MODEL 1
REMARK VINA RESULT: -7.548632358      0.000      0.000
REMARK  8 active torsions:
REMARK  status: ('A' for Active; 'I' for Inactive)
REMARK    1  A    between atoms: C3_7  and  N3_8 
REMARK    2  A    between atoms: C5_16  and  N7_17 
REMARK    3  A    between atoms: N7_17  and  C6_19 
REMARK    4  A    between atoms: C6_19  and  C7_20 
REMARK    5  A    between atoms: C9_22  and  N8_23 
REMARK       I    between atoms: N8_23  and  C10_25 
REMARK    6  A    between atoms: C10_25  and  C11_27 
REMARK    7  A    between atoms: C14_32  and  N10_33 
REMARK    8  A    between atoms: C16_41  and  N13_42 
ROOT
HETATM    1  C7  UNL     1      -6.271   2.890  56.214  1.00  0.00     0.005 A 
HETATM    2  C8  UNL     1      -7.451   2.188  56.497  1.00  0.00     0.043 A 
HETATM    3  C9  UNL     1      -7.991   2.142  57.754  1.00  0.00     0.051 A 
HETATM    4  C15 UNL     1      -7.341   2.827  58.788  1.00  0.00     0.119 A 
HETATM    5  N12 UNL     1      -6.234   3.501  58.520  1.00  0.00    -0.350 N 
ATOM      6  H12 UNL     1      -5.770   4.008  59.275  1.00  0.00     0.166 HD
HETATM    7  C16 UNL     1      -5.701   3.540  57.288  1.00  0.00     0.106 A 
ENDROOT
BRANCH   1   8
HETATM    8  C6  UNL     1      -5.547   2.773  54.963  1.00  0.00     0.162 C 
BRANCH   8   9
HETATM    9  N7  UNL     1      -5.920   3.686  53.884  1.00  0.00    -0.378 N 
ATOM     10  H7  UNL     1      -6.849   3.657  53.465  1.00  0.00     0.160 HD
BRANCH   9  11
HETATM   11  C5  UNL     1      -4.948   4.609  53.442  1.00  0.00     0.144 A 
HETATM   12  C3  UNL     1      -4.019   4.299  52.511  1.00  0.00     0.166 A 
HETATM   13  N2  UNL     1      -3.138   5.317  52.212  1.00  0.00    -0.291 N 
HETATM   14  C2  UNL     1      -3.193   6.519  52.794  1.00  0.00     0.330 A 
ATOM     15  H2  UNL     1      -2.413   5.146  51.515  1.00  0.00     0.172 HD
HETATM   16  N1  UNL     1      -4.107   6.829  53.716  1.00  0.00    -0.269 N 
HETATM   17  O1  UNL     1      -2.349   7.436  52.475  1.00  0.00    -0.246 OA
HETATM   18  C1  UNL     1      -4.210   8.079  54.409  1.00  0.00     0.164 C 
HETATM   19  C17 UNL     1      -5.008   5.856  54.049  1.00  0.00     0.281 A 
HETATM   20  O3  UNL     1      -5.851   6.120  54.889  1.00  0.00    -0.265 OA
BRANCH  12  21
HETATM   21  N3  UNL     1      -3.884   3.078  51.864  1.00  0.00    -0.216 N 
HETATM   22  C4  UNL     1      -3.276   1.953  52.137  1.00  0.00     0.228 A 
HETATM   23  N4  UNL     1      -3.448   1.017  51.145  1.00  0.00    -0.279 N 
HETATM   24  N5  UNL     1      -4.198   1.627  50.232  1.00  0.00    -0.227 N 
ATOM     25  H4  UNL     1      -3.082   0.066  51.117  1.00  0.00     0.189 HD
HETATM   26  N6  UNL     1      -4.465   2.842  50.644  1.00  0.00    -0.219 N 
ATOM     27  H5  UNL     1      -4.514   1.216  49.354  1.00  0.00     0.210 HD
ATOM     28  H6  UNL     1      -5.027   3.520  50.129  1.00  0.00     0.210 HD
ENDBRANCH  12  21
ENDBRANCH   9  11
ENDBRANCH   8   9
ENDBRANCH   1   8
BRANCH   7  29
HETATM   29  N13 UNL     1      -4.640   4.270  57.151  1.00  0.00    -0.385 N 
ATOM     30 2H13 UNL     1      -3.931   4.171  57.877  1.00  0.00     0.157 HD
ATOM     31 1H13 UNL     1      -4.546   4.933  56.381  1.00  0.00     0.157 HD
ENDBRANCH   7  29
BRANCH   3  32
HETATM   32  N8  UNL     1      -9.183   1.404  58.128  1.00  0.00    -0.319 N 
HETATM   33  C10 UNL     1     -10.419   2.068  58.000  1.00  0.00     0.290 C 
HETATM   34  O2  UNL     1     -10.549   3.286  57.623  1.00  0.00    -0.264 OA
ATOM     35  H8  UNL     1      -9.129   0.444  58.469  1.00  0.00     0.169 HD
BRANCH  33  36
HETATM   36  C11 UNL     1     -11.674   1.392  58.289  1.00  0.00     0.176 A 
HETATM   37  N9  UNL     1     -11.940   1.011  59.550  1.00  0.00    -0.348 N 
HETATM   38  C12 UNL     1     -13.060   0.404  59.934  1.00  0.00     0.093 A 
ATOM     39  H9  UNL     1     -11.235   1.201  60.262  1.00  0.00     0.167 HD
HETATM   40  C13 UNL     1     -14.023   0.137  58.979  1.00  0.00     0.065 A 
HETATM   41  C14 UNL     1     -13.747   0.531  57.671  1.00  0.00     0.101 A 
HETATM   42  N11 UNL     1     -12.579   1.153  57.357  1.00  0.00    -0.324 N 
ATOM     43  H11 UNL     1     -12.401   1.438  56.394  1.00  0.00     0.169 HD
BRANCH  41  44
HETATM   44  N10 UNL     1     -14.641   0.299  56.790  1.00  0.00    -0.385 N 
ATOM     45 2H10 UNL     1     -14.829   0.955  56.032  1.00  0.00     0.157 HD
ATOM     46 1H10 UNL     1     -15.172  -0.567  56.880  1.00  0.00     0.157 HD
ENDBRANCH  41  44
ENDBRANCH  33  36
ENDBRANCH   3  32
TORSDOF 8
ENDMDL
MODEL 2
REMARK VINA RESULT: -7.439483808      0.425      1.115
REMARK  8 active torsions:
REMARK  status: ('A' for Active; 'I' for Inactive)
REMARK    1  A    between atoms: C3_7  and  N3_8 
REMARK    2  A    between atoms: C5_16  and  N7_17 
REMARK    3  A    between atoms: N7_17  and  C6_19 
REMARK    4  A    between atoms: C6_19  and  C7_20 
REMARK    5  A    between atoms: C9_22  and  N8_23 
REMARK       I    between atoms: N8_23  and  C10_25 
REMARK    6  A    between atoms: C10_25  and  C11_27 
REMARK    7  A    between atoms: C14_32  and  N10_33 
REMARK    8  A    between atoms: C16_41  and  N13_42 
ROOT
HETATM    1  C7  UNL     1      -6.312   2.828  56.225  1.00  0.00     0.005 A 
HETATM    2  C8  UNL     1      -7.496   2.143  56.532  1.00  0.00     0.043 A 
HETATM    3  C9  UNL     1      -8.012   2.106  57.799  1.00  0.00     0.051 A 
HETATM    4  C15 UNL     1      -7.334   2.785  58.819  1.00  0.00     0.119 A 
HETATM    5  N12 UNL     1      -6.223   3.443  58.529  1.00  0.00    -0.350 N 
ATOM      6  H12 UNL     1      -5.738   3.945  59.273  1.00  0.00     0.166 HD
HETATM    7  C16 UNL     1      -5.713   3.472  57.287  1.00  0.00     0.106 A 
ENDROOT
BRANCH   1   8
HETATM    8  C6  UNL     1      -5.613   2.699  54.962  1.00  0.00     0.162 C 
BRANCH   8   9
HETATM    9  N7  UNL     1      -5.991   3.615  53.888  1.00  0.00    -0.378 N 
ATOM     10  H7  UNL     1      -6.917   3.574  53.460  1.00  0.00     0.160 HD
BRANCH   9  11
HETATM   11  C5  UNL     1      -5.032   4.560  53.464  1.00  0.00     0.144 A 
HETATM   12  C3  UNL     1      -4.090   4.275  52.539  1.00  0.00     0.166 A 
HETATM   13  N2  UNL     1      -3.224   5.312  52.258  1.00  0.00    -0.291 N 
HETATM   14  C2  UNL     1      -3.305   6.507  52.852  1.00  0.00     0.330 A 
ATOM     15  H2  UNL     1      -2.489   5.160  51.567  1.00  0.00     0.172 HD
HETATM   16  N1  UNL     1      -4.233   6.791  53.767  1.00  0.00    -0.269 N 
HETATM   17  O1  UNL     1      -2.475   7.442  52.549  1.00  0.00    -0.246 OA
HETATM   18  C1  UNL     1      -4.365   8.032  54.471  1.00  0.00     0.164 C 
HETATM   19  C17 UNL     1      -5.120   5.799  54.083  1.00  0.00     0.281 A 
HETATM   20  O3  UNL     1      -5.975   6.040  54.918  1.00  0.00    -0.265 OA
BRANCH  12  21
HETATM   21  N3  UNL     1      -3.927   3.063  51.882  1.00  0.00    -0.216 N 
HETATM   22  C4  UNL     1      -3.303   1.945  52.150  1.00  0.00     0.228 A 
HETATM   23  N4  UNL     1      -3.448   1.017  51.148  1.00  0.00    -0.279 N 
HETATM   24  N5  UNL     1      -4.198   1.624  50.232  1.00  0.00    -0.227 N 
ATOM     25  H4  UNL     1      -3.066   0.073  51.114  1.00  0.00     0.189 HD
HETATM   26  N6  UNL     1      -4.490   2.830  50.653  1.00  0.00    -0.219 N 
ATOM     27  H5  UNL     1      -4.497   1.216  49.346  1.00  0.00     0.210 HD
ATOM     28  H6  UNL     1      -5.057   3.503  50.138  1.00  0.00     0.210 HD
ENDBRANCH  12  21
ENDBRANCH   9  11
ENDBRANCH   8   9
ENDBRANCH   1   8
BRANCH   7  29
HETATM   29  N13 UNL     1      -4.645   4.188  57.129  1.00  0.00    -0.385 N 
ATOM     30 2H13 UNL     1      -3.837   3.706  56.734  1.00  0.00     0.157 HD
ATOM     31 1H13 UNL     1      -4.610   5.164  57.421  1.00  0.00     0.157 HD
ENDBRANCH   7  29
BRANCH   3  32
HETATM   32  N8  UNL     1      -9.207   1.385  58.197  1.00  0.00    -0.319 N 
HETATM   33  C10 UNL     1     -10.441   2.046  58.040  1.00  0.00     0.290 C 
HETATM   34  O2  UNL     1     -10.567   3.250  57.617  1.00  0.00    -0.264 OA
ATOM     35  H8  UNL     1      -9.156   0.439  58.574  1.00  0.00     0.169 HD
BRANCH  33  36
HETATM   36  C11 UNL     1     -11.698   1.385  58.350  1.00  0.00     0.176 A 
HETATM   37  N9  UNL     1     -12.562   1.115  57.357  1.00  0.00    -0.348 N 
HETATM   38  C12 UNL     1     -13.730   0.499  57.519  1.00  0.00     0.093 A 
ATOM     39  H9  UNL     1     -12.303   1.402  56.413  1.00  0.00     0.167 HD
HETATM   40  C13 UNL     1     -14.094   0.107  58.793  1.00  0.00     0.065 A 
HETATM   41  C14 UNL     1     -13.200   0.387  59.824  1.00  0.00     0.101 A 
HETATM   42  N11 UNL     1     -12.020   1.017  59.578  1.00  0.00    -0.324 N 
ATOM     43  H11 UNL     1     -11.377   1.207  60.348  1.00  0.00     0.169 HD
BRANCH  41  44
HETATM   44  N10 UNL     1     -13.528   0.014  61.000  1.00  0.00    -0.385 N 
ATOM     45 2H10 UNL     1     -12.836  -0.336  61.663  1.00  0.00     0.157 HD
ATOM     46 1H10 UNL     1     -14.515   0.067  61.249  1.00  0.00     0.157 HD
ENDBRANCH  41  44
ENDBRANCH  33  36
ENDBRANCH   3  32
TORSDOF 8
ENDMDL
MODEL 3
REMARK VINA RESULT: -7.286092660      1.647      2.127
REMARK  8 active torsions:
REMARK  status: ('A' for Active; 'I' for Inactive)
REMARK    1  A    between atoms: C3_7  and  N3_8 
REMARK    2  A    between atoms: C5_16  and  N7_17 
REMARK    3  A    between atoms: N7_17  and  C6_19 
REMARK    4  A    between atoms: C6_19  and  C7_20 
REMARK    5  A    between atoms: C9_22  and  N8_23 
REMARK       I    between atoms: N8_23  and  C10_25 
REMARK    6  A    between atoms: C10_25  and  C11_27 
REMARK    7  A    between atoms: C14_32  and  N10_33 
REMARK    8  A    between atoms: C16_41  and  N13_42 
ROOT
HETATM    1  C7  UNL     1      -8.101   2.999  56.329  1.00  0.00     0.005 A 
HETATM    2  C8  UNL     1      -9.419   2.525  56.269  1.00  0.00     0.043 A 
HETATM    3  C9  UNL     1     -10.279   2.620  57.329  1.00  0.00     0.051 A 
HETATM    4  C15 UNL     1      -9.823   3.219  58.511  1.00  0.00     0.119 A 
HETATM    5  N12 UNL     1      -8.584   3.679  58.565  1.00  0.00    -0.350 N 
ATOM      6  H12 UNL     1      -8.260   4.124  59.423  1.00  0.00     0.166 HD
HETATM    7  C16 UNL     1      -7.738   3.579  57.526  1.00  0.00     0.106 A 
ENDROOT
BRANCH   1   8
HETATM    8  C6  UNL     1      -7.097   2.712  55.322  1.00  0.00     0.162 C 
BRANCH   8   9
HETATM    9  N7  UNL     1      -7.067   3.571  54.140  1.00  0.00    -0.378 N 
ATOM     10  H7  UNL     1      -7.742   3.453  53.384  1.00  0.00     0.160 HD
BRANCH   9  11
HETATM   11  C5  UNL     1      -6.071   4.569  54.081  1.00  0.00     0.144 A 
HETATM   12  C3  UNL     1      -4.876   4.372  53.482  1.00  0.00     0.166 A 
HETATM   13  N2  UNL     1      -4.018   5.451  53.534  1.00  0.00    -0.291 N 
HETATM   14  C2  UNL     1      -4.337   6.604  54.130  1.00  0.00     0.330 A 
ATOM     15  H2  UNL     1      -3.100   5.365  53.098  1.00  0.00     0.172 HD
HETATM   16  N1  UNL     1      -5.514   6.803  54.725  1.00  0.00    -0.269 N 
HETATM   17  O1  UNL     1      -3.501   7.581  54.145  1.00  0.00    -0.246 OA
HETATM   18  C1  UNL     1      -5.917   7.994  55.412  1.00  0.00     0.164 C 
HETATM   19  C17 UNL     1      -6.406   5.765  54.701  1.00  0.00     0.281 A 
HETATM   20  O3  UNL     1      -7.487   5.928  55.240  1.00  0.00    -0.265 OA
BRANCH  12  21
HETATM   21  N3  UNL     1      -4.460   3.208  52.850  1.00  0.00    -0.216 N 
HETATM   22  C4  UNL     1      -4.029   2.042  53.256  1.00  0.00     0.228 A 
HETATM   23  N4  UNL     1      -3.736   1.203  52.208  1.00  0.00    -0.279 N 
HETATM   24  N5  UNL     1      -4.006   1.917  51.119  1.00  0.00    -0.227 N 
ATOM     25  H4  UNL     1      -3.389   0.246  52.255  1.00  0.00     0.189 HD
HETATM   26  N6  UNL     1      -4.436   3.101  51.483  1.00  0.00    -0.219 N 
ATOM     27  H5  UNL     1      -3.896   1.596  50.157  1.00  0.00     0.210 HD
ATOM     28  H6  UNL     1      -4.716   3.840  50.838  1.00  0.00     0.210 HD
ENDBRANCH  12  21
ENDBRANCH   9  11
ENDBRANCH   8   9
ENDBRANCH   1   8
BRANCH   7  29
HETATM   29  N13 UNL     1      -6.567   4.107  57.694  1.00  0.00    -0.385 N 
ATOM     30 2H13 UNL     1      -5.793   3.637  57.227  1.00  0.00     0.157 HD
ATOM     31 1H13 UNL     1      -6.432   4.922  58.292  1.00  0.00     0.157 HD
ENDBRANCH   7  29
BRANCH   3  32
HETATM   32  N8  UNL     1     -11.640   2.115  57.353  1.00  0.00    -0.319 N 
HETATM   33  C10 UNL     1     -11.899   1.000  58.172  1.00  0.00     0.290 C 
HETATM   34  O2  UNL     1     -11.007   0.381  58.855  1.00  0.00    -0.264 OA
ATOM     35  H8  UNL     1     -12.378   2.550  56.799  1.00  0.00     0.169 HD
BRANCH  33  36
HETATM   36  C11 UNL     1     -13.242   0.460  58.312  1.00  0.00     0.176 A 
HETATM   37  N9  UNL     1     -14.029   0.367  57.227  1.00  0.00    -0.348 N 
HETATM   38  C12 UNL     1     -15.266  -0.126  57.231  1.00  0.00     0.093 A 
ATOM     39  H9  UNL     1     -13.653   0.696  56.338  1.00  0.00     0.167 HD
HETATM   40  C13 UNL     1     -15.790  -0.573  58.429  1.00  0.00     0.065 A 
HETATM   41  C14 UNL     1     -14.975  -0.476  59.555  1.00  0.00     0.101 A 
HETATM   42  N11 UNL     1     -13.717   0.036  59.469  1.00  0.00    -0.324 N 
ATOM     43  H11 UNL     1     -13.136   0.092  60.306  1.00  0.00     0.169 HD
BRANCH  41  44
HETATM   44  N10 UNL     1     -15.451  -0.901  60.660  1.00  0.00    -0.385 N 
ATOM     45 2H10 UNL     1     -16.452  -0.872  60.858  1.00  0.00     0.157 HD
ATOM     46 1H10 UNL     1     -14.789  -1.261  61.347  1.00  0.00     0.157 HD
ENDBRANCH  41  44
ENDBRANCH  33  36
ENDBRANCH   3  32
TORSDOF 8
ENDMDL
MODEL 4
REMARK VINA RESULT: -7.232385215      2.624      5.189
REMARK  8 active torsions:
REMARK  status: ('A' for Active; 'I' for Inactive)
REMARK    1  A    between atoms: C3_7  and  N3_8 
REMARK    2  A    between atoms: C5_16  and  N7_17 
REMARK    3  A    between atoms: N7_17  and  C6_19 
REMARK    4  A    between atoms: C6_19  and  C7_20 
REMARK    5  A    between atoms: C9_22  and  N8_23 
REMARK       I    between atoms: N8_23  and  C10_25 
REMARK    6  A    between atoms: C10_25  and  C11_27 
REMARK    7  A    between atoms: C14_32  and  N10_33 
REMARK    8  A    between atoms: C16_41  and  N13_42 
ROOT
HETATM    1  C7  UNL     1      -4.886   7.152  52.521  1.00  0.00     0.005 A 
HETATM    2  C8  UNL     1      -5.366   6.464  53.645  1.00  0.00     0.043 A 
HETATM    3  C9  UNL     1      -6.702   6.368  53.928  1.00  0.00     0.051 A 
HETATM    4  C15 UNL     1      -7.617   6.973  53.057  1.00  0.00     0.119 A 
HETATM    5  N12 UNL     1      -7.166   7.611  51.989  1.00  0.00    -0.350 N 
ATOM      6  H12 UNL     1      -7.837   8.040  51.352  1.00  0.00     0.166 HD
HETATM    7  C16 UNL     1      -5.855   7.711  51.716  1.00  0.00     0.106 A 
ENDROOT
BRANCH   1   8
HETATM    8  C6  UNL     1      -3.488   7.474  52.313  1.00  0.00     0.162 C 
BRANCH   8   9
HETATM    9  N7  UNL     1      -2.715   6.585  51.449  1.00  0.00    -0.378 N 
ATOM     10  H7  UNL     1      -2.067   6.956  50.753  1.00  0.00     0.160 HD
BRANCH   9  11
HETATM   11  C5  UNL     1      -2.895   5.195  51.611  1.00  0.00     0.144 A 
HETATM   12  C3  UNL     1      -3.652   4.456  50.769  1.00  0.00     0.166 A 
HETATM   13  N2  UNL     1      -3.731   3.116  51.088  1.00  0.00    -0.291 N 
HETATM   14  C2  UNL     1      -3.111   2.584  52.147  1.00  0.00     0.330 A 
ATOM     15  H2  UNL     1      -4.287   2.504  50.491  1.00  0.00     0.172 HD
HETATM   16  N1  UNL     1      -2.366   3.310  52.981  1.00  0.00    -0.269 N 
HETATM   17  O1  UNL     1      -3.214   1.326  52.397  1.00  0.00    -0.246 OA
HETATM   18  C1  UNL     1      -1.699   2.822  54.152  1.00  0.00     0.164 C 
HETATM   19  C17 UNL     1      -2.251   4.646  52.710  1.00  0.00     0.281 A 
HETATM   20  O3  UNL     1      -1.573   5.326  53.462  1.00  0.00    -0.265 OA
BRANCH  12  21
HETATM   21  N3  UNL     1      -4.335   4.926  49.656  1.00  0.00    -0.216 N 
HETATM   22  C4  UNL     1      -5.591   4.954  49.289  1.00  0.00     0.228 A 
HETATM   23  N4  UNL     1      -5.758   5.545  48.060  1.00  0.00    -0.279 N 
HETATM   24  N5  UNL     1      -4.530   5.881  47.677  1.00  0.00    -0.227 N 
ATOM     25  H4  UNL     1      -6.631   5.693  47.554  1.00  0.00     0.189 HD
HETATM   26  N6  UNL     1      -3.681   5.524  48.610  1.00  0.00    -0.219 N 
ATOM     27  H5  UNL     1      -4.288   6.342  46.799  1.00  0.00     0.210 HD
ATOM     28  H6  UNL     1      -2.673   5.672  48.564  1.00  0.00     0.210 HD
ENDBRANCH  12  21
ENDBRANCH   9  11
ENDBRANCH   8   9
ENDBRANCH   1   8
BRANCH   7  29
HETATM   29  N13 UNL     1      -5.549   8.325  50.617  1.00  0.00    -0.385 N 
ATOM     30 2H13 UNL     1      -5.586   9.344  50.647  1.00  0.00     0.157 HD
ATOM     31 1H13 UNL     1      -5.325   7.811  49.765  1.00  0.00     0.157 HD
ENDBRANCH   7  29
BRANCH   3  32
HETATM   32  N8  UNL     1      -7.267   5.709  55.092  1.00  0.00    -0.319 N 
HETATM   33  C10 UNL     1      -7.585   4.343  54.968  1.00  0.00     0.290 C 
HETATM   34  O2  UNL     1      -7.452   3.665  53.887  1.00  0.00    -0.264 OA
ATOM     35  H8  UNL     1      -7.426   6.215  55.963  1.00  0.00     0.169 HD
BRANCH  33  36
HETATM   36  C11 UNL     1      -8.096   3.581  56.096  1.00  0.00     0.176 A 
HETATM   37  N9  UNL     1      -7.231   2.986  56.933  1.00  0.00    -0.348 N 
HETATM   38  C12 UNL     1      -7.582   2.280  58.005  1.00  0.00     0.093 A 
ATOM     39  H9  UNL     1      -6.235   3.082  56.734  1.00  0.00     0.167 HD
HETATM   40  C13 UNL     1      -8.927   2.138  58.286  1.00  0.00     0.065 A 
HETATM   41  C14 UNL     1      -9.826   2.754  57.418  1.00  0.00     0.101 A 
HETATM   42  N11 UNL     1      -9.389   3.465  56.343  1.00  0.00    -0.324 N 
ATOM     43  H11 UNL     1     -10.065   3.913  55.724  1.00  0.00     0.169 HD
BRANCH  41  44
HETATM   44  N10 UNL     1     -11.069   2.637  57.683  1.00  0.00    -0.385 N 
ATOM     45 2H10 UNL     1     -11.443   1.803  58.135  1.00  0.00     0.157 HD
ATOM     46 1H10 UNL     1     -11.680   3.407  57.412  1.00  0.00     0.157 HD
ENDBRANCH  41  44
ENDBRANCH  33  36
ENDBRANCH   3  32
TORSDOF 8
ENDMDL
MODEL 5
REMARK VINA RESULT: -7.230289832      3.682     10.577
REMARK  8 active torsions:
REMARK  status: ('A' for Active; 'I' for Inactive)
REMARK    1  A    between atoms: C3_7  and  N3_8 
REMARK    2  A    between atoms: C5_16  and  N7_17 
REMARK    3  A    between atoms: N7_17  and  C6_19 
REMARK    4  A    between atoms: C6_19  and  C7_20 
REMARK    5  A    between atoms: C9_22  and  N8_23 
REMARK       I    between atoms: N8_23  and  C10_25 
REMARK    6  A    between atoms: C10_25  and  C11_27 
REMARK    7  A    between atoms: C14_32  and  N10_33 
REMARK    8  A    between atoms: C16_41  and  N13_42 
ROOT
HETATM    1  C7  UNL     1      -9.639   0.659  59.452  1.00  0.00     0.005 A 
HETATM    2  C8  UNL     1      -9.674   1.718  58.534  1.00  0.00     0.043 A 
HETATM    3  C9  UNL     1      -8.559   2.445  58.214  1.00  0.00     0.051 A 
HETATM    4  C15 UNL     1      -7.343   2.111  58.823  1.00  0.00     0.119 A 
HETATM    5  N12 UNL     1      -7.305   1.104  59.680  1.00  0.00    -0.350 N 
ATOM      6  H12 UNL     1      -6.415   0.857  60.113  1.00  0.00     0.166 HD
HETATM    7  C16 UNL     1      -8.401   0.395  60.000  1.00  0.00     0.106 A 
ENDROOT
BRANCH   1   8
HETATM    8  C6  UNL     1     -10.825   0.022  59.990  1.00  0.00     0.162 C 
BRANCH   8   9
HETATM    9  N7  UNL     1     -12.043   0.826  60.066  1.00  0.00    -0.378 N 
ATOM     10  H7  UNL     1     -12.020   1.788  60.404  1.00  0.00     0.160 HD
BRANCH   9  11
HETATM   11  C5  UNL     1     -13.252   0.224  59.656  1.00  0.00     0.144 A 
HETATM   12  C3  UNL     1     -13.972  -0.586  60.463  1.00  0.00     0.166 A 
HETATM   13  N2  UNL     1     -15.118  -1.100  59.891  1.00  0.00    -0.291 N 
HETATM   14  C2  UNL     1     -15.492  -0.822  58.638  1.00  0.00     0.330 A 
ATOM     15  H2  UNL     1     -15.706  -1.719  60.450  1.00  0.00     0.172 HD
HETATM   16  N1  UNL     1     -14.783  -0.024  57.838  1.00  0.00    -0.269 N 
HETATM   17  O1  UNL     1     -16.573  -1.324  58.156  1.00  0.00    -0.246 OA
HETATM   18  C1  UNL     1     -15.098   0.294  56.477  1.00  0.00     0.164 C 
HETATM   19  C17 UNL     1     -13.637   0.515  58.355  1.00  0.00     0.281 A 
HETATM   20  O3  UNL     1     -12.975   1.247  57.639  1.00  0.00    -0.265 OA
BRANCH  12  21
HETATM   21  N3  UNL     1     -13.654  -0.935  61.768  1.00  0.00    -0.216 N 
HETATM   22  C4  UNL     1     -13.946  -0.451  62.948  1.00  0.00     0.228 A 
HETATM   23  N4  UNL     1     -13.369  -1.177  63.962  1.00  0.00    -0.279 N 
HETATM   24  N5  UNL     1     -12.694  -2.142  63.345  1.00  0.00    -0.227 N 
ATOM     25  H4  UNL     1     -13.443  -1.012  64.966  1.00  0.00     0.189 HD
HETATM   26  N6  UNL     1     -12.856  -2.013  62.051  1.00  0.00    -0.219 N 
ATOM     27  H5  UNL     1     -12.141  -2.866  63.805  1.00  0.00     0.210 HD
ATOM     28  H6  UNL     1     -12.444  -2.629  61.350  1.00  0.00     0.210 HD
ENDBRANCH  12  21
ENDBRANCH   9  11
ENDBRANCH   8   9
ENDBRANCH   1   8
BRANCH   7  29
HETATM   29  N13 UNL     1      -8.220  -0.592  60.818  1.00  0.00    -0.385 N 
ATOM     30 2H13 UNL     1      -7.978  -1.487  60.394  1.00  0.00     0.157 HD
ATOM     31 1H13 UNL     1      -8.353  -0.481  61.823  1.00  0.00     0.157 HD
ENDBRANCH   7  29
BRANCH   3  32
HETATM   32  N8  UNL     1      -8.529   3.577  57.306  1.00  0.00    -0.319 N 
HETATM   33  C10 UNL     1      -8.258   3.309  55.951  1.00  0.00     0.290 C 
HETATM   34  O2  UNL     1      -7.992   2.145  55.483  1.00  0.00    -0.264 OA
ATOM     35  H8  UNL     1      -8.698   4.528  57.636  1.00  0.00     0.169 HD
BRANCH  33  36
HETATM   36  C11 UNL     1      -8.268   4.367  54.954  1.00  0.00     0.176 A 
HETATM   37  N9  UNL     1      -9.270   4.418  54.060  1.00  0.00    -0.348 N 
HETATM   38  C12 UNL     1      -9.393   5.348  53.116  1.00  0.00     0.093 A 
ATOM     39  H9  UNL     1      -9.986   3.693  54.108  1.00  0.00     0.167 HD
HETATM   40  C13 UNL     1      -8.429   6.335  53.037  1.00  0.00     0.065 A 
HETATM   41  C14 UNL     1      -7.390   6.283  53.963  1.00  0.00     0.101 A 
HETATM   42  N11 UNL     1      -7.335   5.301  54.903  1.00  0.00    -0.324 N 
ATOM     43  H11 UNL     1      -6.568   5.286  55.575  1.00  0.00     0.169 HD
BRANCH  41  44
HETATM   44  N10 UNL     1      -6.505   7.201  53.901  1.00  0.00    -0.385 N 
ATOM     45 2H10 UNL     1      -5.730   7.154  53.240  1.00  0.00     0.157 HD
ATOM     46 1H10 UNL     1      -6.595   7.982  54.552  1.00  0.00     0.157 HD
ENDBRANCH  41  44
ENDBRANCH  33  36
ENDBRANCH   3  32
TORSDOF 8
ENDMDL
