MODEL 1
REMARK VINA RESULT: -9.394222267      0.000      0.000
REMARK  6 active torsions:
REMARK  status: ('A' for Active; 'I' for Inactive)
REMARK    1  A    between atoms: C2_3  and  N2_4 
REMARK       I    between atoms: N2_4  and  C3_6 
REMARK    2  A    between atoms: C3_6  and  C4_8 
REMARK    3  A    between atoms: C4_8  and  N3_9 
REMARK    4  A    between atoms: N3_9  and  S1_11 
REMARK    5  A    between atoms: S1_11  and  C5_14 
REMARK    6  A    between atoms: C8_17  and  C9_18 
ROOT
HETATM    1  N1  UNL     1      -3.790   1.464  51.357  1.00  0.00    -0.196 NA
HETATM    2  C1  UNL     1      -3.965   2.157  52.286  1.00  0.00     0.078 C 
HETATM    3  C2  UNL     1      -4.175   3.037  53.432  1.00  0.00     0.247 C 
ENDROOT
BRANCH   3   4
HETATM    4  N2  UNL     1      -5.588   3.204  53.663  1.00  0.00    -0.344 N 
HETATM    5  C3  UNL     1      -6.127   4.332  54.340  1.00  0.00     0.284 C 
HETATM    6  O1  UNL     1      -5.328   5.199  54.742  1.00  0.00    -0.267 OA
ATOM      7  H2  UNL     1      -6.227   2.484  53.327  1.00  0.00     0.163 HD
BRANCH   5   8
HETATM    8  C4  UNL     1      -7.583   4.468  54.556  1.00  0.00     0.300 C 
HETATM    9  N7  UNL     1      -8.286   3.235  54.185  1.00  0.00    -0.067 NA
HETATM   10  N8  UNL     1      -9.473   3.678  53.582  1.00  0.00    -0.017 NA
HETATM   11  N9  UNL     1      -9.004   4.744  52.824  1.00  0.00    -0.017 NA
HETATM   12  N10 UNL     1      -8.121   5.403  53.630  1.00  0.00    -0.067 NA
BRANCH   8  13
HETATM   13  N3  UNL     1      -7.933   4.740  55.908  1.00  0.00    -0.266 N 
ATOM     14  H3  UNL     1      -8.426   5.592  56.174  1.00  0.00     0.176 HD
BRANCH  13  15
HETATM   15  S1  UNL     1      -7.486   3.573  57.057  1.00  0.00     0.267 S 
HETATM   16  O2  UNL     1      -6.882   4.292  58.258  1.00  0.00    -0.200 OA
HETATM   17  O3  UNL     1      -6.487   2.586  56.577  1.00  0.00    -0.200 OA
BRANCH  15  18
HETATM   18  C5  UNL     1      -8.949   2.723  57.566  1.00  0.00     0.147 A 
HETATM   19  C6  UNL     1      -8.889   1.549  58.275  1.00  0.00     0.033 A 
HETATM   20  C7  UNL     1     -10.056   0.893  58.674  1.00  0.00     0.032 A 
HETATM   21  C8  UNL     1     -11.304   1.394  58.376  1.00  0.00     0.045 A 
HETATM   22  N6  UNL     1     -11.318   2.548  57.679  1.00  0.00    -0.322 N 
HETATM   23  C15 UNL     1     -10.197   3.204  57.280  1.00  0.00     0.269 A 
ATOM     24  H6  UNL     1     -12.222   2.953  57.438  1.00  0.00     0.169 HD
HETATM   25  O5  UNL     1     -10.274   4.285  56.628  1.00  0.00    -0.266 OA
BRANCH  21  26
HETATM   26  C9  UNL     1     -12.540   0.712  58.791  1.00  0.00    -0.007 A 
HETATM   27  C10 UNL     1     -12.735   0.386  60.114  1.00  0.00     0.016 A 
HETATM   28  C11 UNL     1     -13.907  -0.264  60.526  1.00  0.00     0.035 A 
HETATM   29  C12 UNL     1     -14.872  -0.579  59.602  1.00  0.00     0.085 A 
HETATM   30  N4  UNL     1     -16.073  -1.187  59.694  1.00  0.00    -0.240 N 
HETATM   31  C13 UNL     1     -14.714  -0.271  58.275  1.00  0.00     0.086 A 
HETATM   32  O4  UNL     1     -16.587  -1.233  58.498  1.00  0.00    -0.156 OA
ATOM     33  H4  UNL     1     -16.501  -1.546  60.548  1.00  0.00     0.197 HD
HETATM   34  N5  UNL     1     -15.795  -0.692  57.630  1.00  0.00    -0.240 N 
ATOM     35  H5  UNL     1     -15.970  -0.605  56.628  1.00  0.00     0.197 HD
HETATM   36  C14 UNL     1     -13.543   0.370  57.913  1.00  0.00     0.047 A 
ENDBRANCH  21  26
ENDBRANCH  15  18
ENDBRANCH  13  15
ENDBRANCH   8  13
ENDBRANCH   5   8
ENDBRANCH   3   4
TORSDOF 6
ENDMDL
MODEL 2
REMARK VINA RESULT: -9.365082574      0.825      1.153
REMARK  6 active torsions:
REMARK  status: ('A' for Active; 'I' for Inactive)
REMARK    1  A    between atoms: C2_3  and  N2_4 
REMARK       I    between atoms: N2_4  and  C3_6 
REMARK    2  A    between atoms: C3_6  and  C4_8 
REMARK    3  A    between atoms: C4_8  and  N3_9 
REMARK    4  A    between atoms: N3_9  and  S1_11 
REMARK    5  A    between atoms: S1_11  and  C5_14 
REMARK    6  A    between atoms: C8_17  and  C9_18 
ROOT
HETATM    1  N1  UNL     1      -3.827   1.635  51.189  1.00  0.00    -0.196 NA
HETATM    2  C1  UNL     1      -3.988   2.227  52.189  1.00  0.00     0.078 C 
HETATM    3  C2  UNL     1      -4.179   2.983  53.423  1.00  0.00     0.247 C 
ENDROOT
BRANCH   3   4
HETATM    4  N2  UNL     1      -5.589   3.170  53.662  1.00  0.00    -0.344 N 
HETATM    5  C3  UNL     1      -6.111   4.326  54.304  1.00  0.00     0.284 C 
HETATM    6  O1  UNL     1      -5.301   5.200  54.666  1.00  0.00    -0.267 OA
ATOM      7  H2  UNL     1      -6.237   2.443  53.360  1.00  0.00     0.163 HD
BRANCH   5   8
HETATM    8  C4  UNL     1      -7.564   4.482  54.530  1.00  0.00     0.300 C 
HETATM    9  N7  UNL     1      -8.289   3.267  54.144  1.00  0.00    -0.067 NA
HETATM   10  N8  UNL     1      -9.472   3.738  53.555  1.00  0.00    -0.017 NA
HETATM   11  N9  UNL     1      -8.990   4.809  52.811  1.00  0.00    -0.017 NA
HETATM   12  N10 UNL     1      -8.091   5.441  53.623  1.00  0.00    -0.067 NA
BRANCH   8  13
HETATM   13  N3  UNL     1      -7.902   4.738  55.889  1.00  0.00    -0.266 N 
ATOM     14  H3  UNL     1      -8.363   5.602  56.174  1.00  0.00     0.176 HD
BRANCH  13  15
HETATM   15  S1  UNL     1      -7.495   3.531  57.013  1.00  0.00     0.267 S 
HETATM   16  O2  UNL     1      -6.863   4.203  58.226  1.00  0.00    -0.200 OA
HETATM   17  O3  UNL     1      -6.535   2.519  56.509  1.00  0.00    -0.200 OA
BRANCH  15  18
HETATM   18  C5  UNL     1      -8.987   2.725  57.507  1.00  0.00     0.147 A 
HETATM   19  C6  UNL     1     -10.211   3.123  57.032  1.00  0.00     0.033 A 
HETATM   20  C7  UNL     1     -11.382   2.470  57.429  1.00  0.00     0.032 A 
HETATM   21  C8  UNL     1     -11.353   1.409  58.306  1.00  0.00     0.045 A 
HETATM   22  N6  UNL     1     -10.131   1.051  58.749  1.00  0.00    -0.322 N 
HETATM   23  C15 UNL     1      -8.981   1.670  58.377  1.00  0.00     0.269 A 
ATOM     24  H6  UNL     1     -10.067   0.269  59.401  1.00  0.00     0.169 HD
HETATM   25  O5  UNL     1      -7.862   1.286  58.827  1.00  0.00    -0.266 OA
BRANCH  21  26
HETATM   26  C9  UNL     1     -12.579   0.714  58.733  1.00  0.00    -0.007 A 
HETATM   27  C10 UNL     1     -12.738   0.349  60.051  1.00  0.00     0.016 A 
HETATM   28  C11 UNL     1     -13.899  -0.314  60.474  1.00  0.00     0.035 A 
HETATM   29  C12 UNL     1     -14.888  -0.604  59.566  1.00  0.00     0.085 A 
HETATM   30  N4  UNL     1     -16.084  -1.216  59.673  1.00  0.00    -0.240 N 
HETATM   31  C13 UNL     1     -14.764  -0.257  58.246  1.00  0.00     0.086 A 
HETATM   32  O4  UNL     1     -16.631  -1.228  58.490  1.00  0.00    -0.156 OA
ATOM     33  H4  UNL     1     -16.490  -1.601  60.526  1.00  0.00     0.197 HD
HETATM   34  N5  UNL     1     -15.862  -0.660  57.617  1.00  0.00    -0.240 N 
ATOM     35  H5  UNL     1     -16.063  -0.544  56.623  1.00  0.00     0.197 HD
HETATM   36  C14 UNL     1     -13.604   0.396  57.872  1.00  0.00     0.047 A 
ENDBRANCH  21  26
ENDBRANCH  15  18
ENDBRANCH  13  15
ENDBRANCH   8  13
ENDBRANCH   5   8
ENDBRANCH   3   4
TORSDOF 6
ENDMDL
MODEL 3
REMARK VINA RESULT: -9.121222652      2.062      3.235
REMARK  6 active torsions:
REMARK  status: ('A' for Active; 'I' for Inactive)
REMARK    1  A    between atoms: C2_3  and  N2_4 
REMARK       I    between atoms: N2_4  and  C3_6 
REMARK    2  A    between atoms: C3_6  and  C4_8 
REMARK    3  A    between atoms: C4_8  and  N3_9 
REMARK    4  A    between atoms: N3_9  and  S1_11 
REMARK    5  A    between atoms: S1_11  and  C5_14 
REMARK    6  A    between atoms: C8_17  and  C9_18 
ROOT
HETATM    1  N1  UNL     1     -10.579   5.897  53.609  1.00  0.00    -0.196 NA
HETATM    2  C1  UNL     1      -9.452   5.572  53.594  1.00  0.00     0.078 C 
HETATM    3  C2  UNL     1      -8.043   5.189  53.569  1.00  0.00     0.247 C 
ENDROOT
BRANCH   3   4
HETATM    4  N2  UNL     1      -7.582   4.950  54.914  1.00  0.00    -0.344 N 
HETATM    5  C3  UNL     1      -6.879   5.928  55.669  1.00  0.00     0.284 C 
HETATM    6  O1  UNL     1      -6.663   7.029  55.128  1.00  0.00    -0.267 OA
ATOM      7  H2  UNL     1      -7.768   4.042  55.340  1.00  0.00     0.163 HD
BRANCH   5   8
HETATM    8  C4  UNL     1      -6.424   5.644  57.047  1.00  0.00     0.300 C 
HETATM    9  N7  UNL     1      -6.206   6.887  57.795  1.00  0.00    -0.067 NA
HETATM   10  N8  UNL     1      -5.063   6.633  58.569  1.00  0.00    -0.017 NA
HETATM   11  N9  UNL     1      -4.271   5.947  57.656  1.00  0.00    -0.017 NA
HETATM   12  N10 UNL     1      -5.117   5.086  57.015  1.00  0.00    -0.067 NA
BRANCH   8  13
HETATM   13  N3  UNL     1      -7.352   4.875  57.804  1.00  0.00    -0.266 N 
ATOM     14  H3  UNL     1      -8.113   5.313  58.323  1.00  0.00     0.176 HD
BRANCH  13  15
HETATM   15  S1  UNL     1      -7.128   3.192  57.797  1.00  0.00     0.267 S 
HETATM   16  O2  UNL     1      -6.163   2.836  58.922  1.00  0.00    -0.200 OA
HETATM   17  O3  UNL     1      -6.565   2.651  56.536  1.00  0.00    -0.200 OA
BRANCH  15  18
HETATM   18  C5  UNL     1      -8.692   2.434  58.112  1.00  0.00     0.147 A 
HETATM   19  C6  UNL     1      -8.822   1.397  59.001  1.00  0.00     0.033 A 
HETATM   20  C7  UNL     1     -10.068   0.812  59.242  1.00  0.00     0.032 A 
HETATM   21  C8  UNL     1     -11.207   1.251  58.603  1.00  0.00     0.045 A 
HETATM   22  N6  UNL     1     -11.035   2.271  57.739  1.00  0.00    -0.322 N 
HETATM   23  C15 UNL     1      -9.834   2.854  57.488  1.00  0.00     0.269 A 
ATOM     24  H6  UNL     1     -11.853   2.625  57.244  1.00  0.00     0.169 HD
HETATM   25  O5  UNL     1      -9.736   3.811  56.665  1.00  0.00    -0.266 OA
BRANCH  21  26
HETATM   26  C9  UNL     1     -12.525   0.643  58.848  1.00  0.00    -0.007 A 
HETATM   27  C10 UNL     1     -12.883   0.270  60.124  1.00  0.00     0.016 A 
HETATM   28  C11 UNL     1     -14.135  -0.310  60.375  1.00  0.00     0.035 A 
HETATM   29  C12 UNL     1     -15.013  -0.510  59.338  1.00  0.00     0.085 A 
HETATM   30  N4  UNL     1     -16.255  -1.031  59.272  1.00  0.00    -0.240 N 
HETATM   31  C13 UNL     1     -14.691  -0.152  58.055  1.00  0.00     0.086 A 
HETATM   32  O4  UNL     1     -16.639  -0.983  58.027  1.00  0.00    -0.156 OA
ATOM     33  H4  UNL     1     -16.797  -1.398  60.054  1.00  0.00     0.197 HD
HETATM   34  N5  UNL     1     -15.723  -0.462  57.277  1.00  0.00    -0.240 N 
ATOM     35  H5  UNL     1     -15.782  -0.315  56.269  1.00  0.00     0.197 HD
HETATM   36  C14 UNL     1     -13.448   0.417  57.853  1.00  0.00     0.047 A 
ENDBRANCH  21  26
ENDBRANCH  15  18
ENDBRANCH  13  15
ENDBRANCH   8  13
ENDBRANCH   5   8
ENDBRANCH   3   4
TORSDOF 6
ENDMDL
MODEL 4
REMARK VINA RESULT: -8.965224674      1.144      1.576
REMARK  6 active torsions:
REMARK  status: ('A' for Active; 'I' for Inactive)
REMARK    1  A    between atoms: C2_3  and  N2_4 
REMARK       I    between atoms: N2_4  and  C3_6 
REMARK    2  A    between atoms: C3_6  and  C4_8 
REMARK    3  A    between atoms: C4_8  and  N3_9 
REMARK    4  A    between atoms: N3_9  and  S1_11 
REMARK    5  A    between atoms: S1_11  and  C5_14 
REMARK    6  A    between atoms: C8_17  and  C9_18 
ROOT
HETATM    1  N1  UNL     1      -3.610   1.794  51.382  1.00  0.00    -0.196 NA
HETATM    2  C1  UNL     1      -3.828   2.533  52.265  1.00  0.00     0.078 C 
HETATM    3  C2  UNL     1      -4.091   3.471  53.353  1.00  0.00     0.247 C 
ENDROOT
BRANCH   3   4
HETATM    4  N2  UNL     1      -5.513   3.652  53.503  1.00  0.00    -0.344 N 
HETATM    5  C3  UNL     1      -6.077   4.750  54.209  1.00  0.00     0.284 C 
HETATM    6  O1  UNL     1      -5.292   5.577  54.710  1.00  0.00    -0.267 OA
ATOM      7  H2  UNL     1      -6.140   2.964  53.087  1.00  0.00     0.163 HD
BRANCH   5   8
HETATM    8  C4  UNL     1      -7.542   4.901  54.341  1.00  0.00     0.300 C 
HETATM    9  N7  UNL     1      -8.247   3.885  53.552  1.00  0.00    -0.067 NA
HETATM   10  N8  UNL     1      -9.357   4.561  53.024  1.00  0.00    -0.017 NA
HETATM   11  N9  UNL     1      -8.784   5.778  52.673  1.00  0.00    -0.017 NA
HETATM   12  N10 UNL     1      -7.959   6.105  53.711  1.00  0.00    -0.067 NA
BRANCH   8  13
HETATM   13  N3  UNL     1      -8.007   4.768  55.679  1.00  0.00    -0.266 N 
ATOM     14  H3  UNL     1      -8.635   5.453  56.100  1.00  0.00     0.176 HD
BRANCH  13  15
HETATM   15  S1  UNL     1      -7.462   3.410  56.541  1.00  0.00     0.267 S 
HETATM   16  O2  UNL     1      -6.507   3.886  57.628  1.00  0.00    -0.200 OA
HETATM   17  O3  UNL     1      -6.741   2.407  55.719  1.00  0.00    -0.200 OA
BRANCH  15  18
HETATM   18  C5  UNL     1      -8.865   2.646  57.295  1.00  0.00     0.147 A 
HETATM   19  C6  UNL     1      -8.728   1.627  58.203  1.00  0.00     0.033 A 
HETATM   20  C7  UNL     1      -9.849   1.038  58.795  1.00  0.00     0.032 A 
HETATM   21  C8  UNL     1     -11.126   1.454  58.494  1.00  0.00     0.045 A 
HETATM   22  N6  UNL     1     -11.217   2.457  57.598  1.00  0.00    -0.322 N 
HETATM   23  C15 UNL     1     -10.143   3.045  57.010  1.00  0.00     0.269 A 
ATOM     24  H6  UNL     1     -12.146   2.795  57.346  1.00  0.00     0.169 HD
HETATM   25  O5  UNL     1     -10.292   3.984  56.175  1.00  0.00    -0.266 OA
BRANCH  21  26
HETATM   26  C9  UNL     1     -12.314   0.842  59.110  1.00  0.00    -0.007 A 
HETATM   27  C10 UNL     1     -13.350   0.402  58.317  1.00  0.00     0.016 A 
HETATM   28  C11 UNL     1     -14.489  -0.183  58.887  1.00  0.00     0.035 A 
HETATM   29  C12 UNL     1     -14.575  -0.320  60.251  1.00  0.00     0.085 A 
HETATM   30  N4  UNL     1     -15.519  -0.830  61.067  1.00  0.00    -0.240 N 
HETATM   31  C13 UNL     1     -13.564   0.106  61.073  1.00  0.00     0.086 A 
HETATM   32  O4  UNL     1     -15.091  -0.711  62.292  1.00  0.00    -0.156 OA
ATOM     33  H4  UNL     1     -16.410  -1.236  60.778  1.00  0.00     0.197 HD
HETATM   34  N5  UNL     1     -13.923  -0.154  62.324  1.00  0.00    -0.240 N 
ATOM     35  H5  UNL     1     -13.377   0.049  63.162  1.00  0.00     0.197 HD
HETATM   36  C14 UNL     1     -12.460   0.677  60.468  1.00  0.00     0.047 A 
ENDBRANCH  21  26
ENDBRANCH  15  18
ENDBRANCH  13  15
ENDBRANCH   8  13
ENDBRANCH   5   8
ENDBRANCH   3   4
TORSDOF 6
ENDMDL
MODEL 5
REMARK VINA RESULT: -8.931798500      1.602      1.856
REMARK  6 active torsions:
REMARK  status: ('A' for Active; 'I' for Inactive)
REMARK    1  A    between atoms: C2_3  and  N2_4 
REMARK       I    between atoms: N2_4  and  C3_6 
REMARK    2  A    between atoms: C3_6  and  C4_8 
REMARK    3  A    between atoms: C4_8  and  N3_9 
REMARK    4  A    between atoms: N3_9  and  S1_11 
REMARK    5  A    between atoms: S1_11  and  C5_14 
REMARK    6  A    between atoms: C8_17  and  C9_18 
ROOT
HETATM    1  N1  UNL     1      -2.975   6.871  52.442  1.00  0.00    -0.196 NA
HETATM    2  C1  UNL     1      -3.294   6.115  53.280  1.00  0.00     0.078 C 
HETATM    3  C2  UNL     1      -3.678   5.187  54.339  1.00  0.00     0.247 C 
ENDROOT
BRANCH   3   4
HETATM    4  N2  UNL     1      -5.085   5.328  54.620  1.00  0.00    -0.344 N 
HETATM    5  C3  UNL     1      -6.067   4.451  54.082  1.00  0.00     0.284 C 
HETATM    6  O1  UNL     1      -5.673   3.531  53.341  1.00  0.00    -0.267 OA
ATOM      7  H2  UNL     1      -5.389   6.088  55.229  1.00  0.00     0.163 HD
BRANCH   5   8
HETATM    8  C4  UNL     1      -7.501   4.629  54.395  1.00  0.00     0.300 C 
HETATM    9  N7  UNL     1      -8.251   3.395  54.140  1.00  0.00    -0.067 NA
HETATM   10  N8  UNL     1      -9.471   3.832  53.602  1.00  0.00    -0.017 NA
HETATM   11  N9  UNL     1      -9.039   4.849  52.758  1.00  0.00    -0.017 NA
HETATM   12  N10 UNL     1      -8.087   5.529  53.464  1.00  0.00    -0.067 NA
BRANCH   8  13
HETATM   13  N3  UNL     1      -7.746   4.976  55.754  1.00  0.00    -0.266 N 
ATOM     14  H3  UNL     1      -8.148   5.877  56.013  1.00  0.00     0.176 HD
BRANCH  13  15
HETATM   15  S1  UNL     1      -7.333   3.814  56.920  1.00  0.00     0.267 S 
HETATM   16  O2  UNL     1      -6.736   4.536  58.123  1.00  0.00    -0.200 OA
HETATM   17  O3  UNL     1      -6.341   2.809  56.465  1.00  0.00    -0.200 OA
BRANCH  15  18
HETATM   18  C5  UNL     1      -8.815   2.990  57.415  1.00  0.00     0.147 A 
HETATM   19  C6  UNL     1     -10.052   3.446  57.034  1.00  0.00     0.033 A 
HETATM   20  C7  UNL     1     -11.215   2.778  57.429  1.00  0.00     0.032 A 
HETATM   21  C8  UNL     1     -11.166   1.644  58.209  1.00  0.00     0.045 A 
HETATM   22  N6  UNL     1      -9.931   1.230  58.560  1.00  0.00    -0.322 N 
HETATM   23  C15 UNL     1      -8.788   1.862  58.189  1.00  0.00     0.269 A 
ATOM     24  H6  UNL     1      -9.852   0.394  59.139  1.00  0.00     0.169 HD
HETATM   25  O5  UNL     1      -7.657   1.425  58.550  1.00  0.00    -0.266 OA
BRANCH  21  26
HETATM   26  C9  UNL     1     -12.383   0.933  58.632  1.00  0.00    -0.007 A 
HETATM   27  C10 UNL     1     -12.560   0.603  59.957  1.00  0.00     0.016 A 
HETATM   28  C11 UNL     1     -13.714  -0.075  60.377  1.00  0.00     0.035 A 
HETATM   29  C12 UNL     1     -14.677  -0.416  59.459  1.00  0.00     0.085 A 
HETATM   30  N4  UNL     1     -15.861  -1.053  59.561  1.00  0.00    -0.240 N 
HETATM   31  C13 UNL     1     -14.534  -0.105  58.132  1.00  0.00     0.086 A 
HETATM   32  O4  UNL     1     -16.382  -1.113  58.368  1.00  0.00    -0.156 OA
ATOM     33  H4  UNL     1     -16.275  -1.421  60.417  1.00  0.00     0.197 HD
HETATM   34  N5  UNL     1     -15.609  -0.554  57.494  1.00  0.00    -0.240 N 
ATOM     35  H5  UNL     1     -15.792  -0.472  56.493  1.00  0.00     0.197 HD
HETATM   36  C14 UNL     1     -13.382   0.564  57.761  1.00  0.00     0.047 A 
ENDBRANCH  21  26
ENDBRANCH  15  18
ENDBRANCH  13  15
ENDBRANCH   8  13
ENDBRANCH   5   8
ENDBRANCH   3   4
TORSDOF 6
ENDMDL
