MODEL 1
REMARK VINA RESULT: -10.508242195      0.000      0.000
REMARK  16 active torsions:
REMARK  status: ('A' for Active; 'I' for Inactive)
REMARK    1  A    between atoms: O1_2  and  C2_3 
REMARK    2  A    between atoms: C5_6  and  N1_7 
REMARK    3  A    between atoms: N1_7  and  C6_9 
REMARK    4  A    between atoms: C7_10  and  C8_11 
REMARK       I    between atoms: C8_11  and  N2_13 
REMARK    5  A    between atoms: N2_13  and  C9_15 
REMARK    6  A    between atoms: C9_15  and  C10_16 
REMARK    7  A    between atoms: C9_15  and  N3_20 
REMARK    8  A    between atoms: C10_16  and  C11_17 
REMARK    9  A    between atoms: C11_17  and  S1_18 
REMARK       I    between atoms: N3_20  and  C13_22 
REMARK   10  A    between atoms: C13_22  and  C14_24 
REMARK   11  A    between atoms: C14_24  and  O4_25 
REMARK   12  A    between atoms: C14_24  and  N4_27 
REMARK   13  A    between atoms: N4_27  and  C15_28 
REMARK   14  A    between atoms: C17_32  and  C18_33 
REMARK   15  A    between atoms: C21_37  and  N6_38 
REMARK   16  A    between atoms: C26_47  and  N7_48 
ROOT
HETATM    1  C8  UNL     1      12.937   0.270  -6.963  1.00  0.00     0.259 C 
HETATM    2  O2  UNL     1      11.818  -0.278  -6.634  1.00  0.00    -0.267 OA
HETATM    3  N2  UNL     1      14.019  -0.590  -6.926  1.00  0.00    -0.336 N 
ATOM      4  H2  UNL     1      14.934  -0.227  -7.193  1.00  0.00     0.164 HD
ENDROOT
BRANCH   3   5
HETATM    5  C9  UNL     1      13.921  -2.000  -6.523  1.00  0.00     0.188 C 
BRANCH   5   6
HETATM    6  C10 UNL     1      14.340  -2.908  -7.662  1.00  0.00     0.057 C 
BRANCH   6   7
HETATM    7  C11 UNL     1      15.320  -3.914  -7.102  1.00  0.00     0.077 C 
BRANCH   7   8
HETATM    8  S1  UNL     1      14.530  -5.549  -6.924  1.00  0.00    -0.173 SA
HETATM    9  C12 UNL     1      13.189  -5.797  -8.085  1.00  0.00     0.089 C 
ENDBRANCH   7   8
ENDBRANCH   6   7
ENDBRANCH   5   6
BRANCH   5  10
HETATM   10  N3  UNL     1      14.770  -2.286  -5.417  1.00  0.00    -0.332 N 
HETATM   11  C13 UNL     1      14.729  -1.694  -4.133  1.00  0.00     0.308 C 
HETATM   12  O3  UNL     1      13.889  -0.819  -3.838  1.00  0.00    -0.262 OA
ATOM     13  H3  UNL     1      15.488  -2.995  -5.568  1.00  0.00     0.165 HD
BRANCH  11  14
HETATM   14  C14 UNL     1      15.691  -2.092  -3.069  1.00  0.00     0.285 C 
BRANCH  14  15
HETATM   15  O4  UNL     1      16.061  -1.132  -2.268  1.00  0.00    -0.331 OA
ATOM     16  H4  UNL     1      16.063  -1.355  -1.344  1.00  0.00     0.220 HD
ENDBRANCH  14  15
BRANCH  14  17
HETATM   17  N4  UNL     1      16.177  -3.294  -2.894  1.00  0.00    -0.353 NA
BRANCH  17  18
HETATM   18  C15 UNL     1      16.413  -4.450  -2.706  1.00  0.00     0.233 A 
HETATM   19  N5  UNL     1      15.471  -5.415  -2.426  1.00  0.00    -0.335 N 
HETATM   20  C16 UNL     1      15.858  -6.673  -2.202  1.00  0.00     0.124 A 
ATOM     21  H5  UNL     1      14.481  -5.169  -2.389  1.00  0.00     0.168 HD
HETATM   22  C17 UNL     1      17.163  -7.076  -2.236  1.00  0.00     0.074 A 
HETATM   23  O5  UNL     1      18.076  -6.146  -2.509  1.00  0.00    -0.292 OA
HETATM   24  C21 UNL     1      17.741  -4.923  -2.729  1.00  0.00     0.201 A 
BRANCH  22  25
HETATM   25  C18 UNL     1      17.565  -8.465  -1.983  1.00  0.00     0.036 C 
HETATM   26  C19 UNL     1      18.856  -8.621  -1.229  1.00  0.00     0.016 C 
HETATM   27  C20 UNL     1      17.785  -9.196  -3.324  1.00  0.00     0.016 C 
ENDBRANCH  22  25
BRANCH  24  28
HETATM   28  N6  UNL     1      18.674  -4.042  -2.994  1.00  0.00    -0.376 N 
ATOM     29  H62 UNL     1      18.403  -3.105  -3.294  1.00  0.00     0.158 HD
ATOM     30  H61 UNL     1      19.640  -4.351  -2.883  1.00  0.00     0.158 HD
ENDBRANCH  24  28
ENDBRANCH  17  18
ENDBRANCH  14  17
ENDBRANCH  11  14
ENDBRANCH   5  10
ENDBRANCH   3   5
BRANCH   1  31
HETATM   31  C7  UNL     1      12.889   1.658  -7.312  1.00  0.00     0.104 A 
HETATM   32  C6  UNL     1      12.321   2.018  -8.541  1.00  0.00     0.065 A 
HETATM   33  C28 UNL     1      12.238   3.350  -8.973  1.00  0.00     0.028 A 
HETATM   34  C23 UNL     1      12.749   4.312  -8.120  1.00  0.00     0.089 A 
HETATM   35  C27 UNL     1      11.684   3.699 -10.182  1.00  0.00     0.052 A 
HETATM   36  O6  UNL     1      13.269   3.991  -6.991  1.00  0.00    -0.297 OA
HETATM   37  C24 UNL     1      12.683   5.660  -8.526  1.00  0.00     0.041 A 
HETATM   38  C22 UNL     1      13.354   2.722  -6.569  1.00  0.00     0.160 A 
HETATM   39  S2  UNL     1      14.035   2.446  -5.115  1.00  0.00    -0.051 SA
HETATM   40  C25 UNL     1      12.122   6.009  -9.746  1.00  0.00     0.039 A 
HETATM   41  C26 UNL     1      11.619   5.009 -10.580  1.00  0.00     0.103 A 
BRANCH  32  42
HETATM   42  N1  UNL     1      11.795   1.074  -9.412  1.00  0.00    -0.355 N 
ATOM     43  H1  UNL     1      10.896   0.646  -9.187  1.00  0.00     0.166 HD
BRANCH  42  44
HETATM   44  C5  UNL     1      12.454   0.681 -10.599  1.00  0.00     0.032 A 
HETATM   45  C4  UNL     1      13.819   0.314 -10.541  1.00  0.00     0.032 A 
HETATM   46  C3  UNL     1      14.498  -0.071 -11.664  1.00  0.00     0.039 A 
HETATM   47  C2  UNL     1      13.872  -0.118 -12.912  1.00  0.00     0.068 A 
HETATM   48  C30 UNL     1      12.566   0.229 -12.987  1.00  0.00     0.039 A 
HETATM   49  C29 UNL     1      11.878   0.623 -11.835  1.00  0.00     0.032 A 
BRANCH  47  50
HETATM   50  O1  UNL     1      14.620  -0.518 -14.016  1.00  0.00    -0.356 OA
HETATM   51  C1  UNL     1      15.462  -1.618 -14.095  1.00  0.00     0.210 C 
ENDBRANCH  47  50
ENDBRANCH  42  44
ENDBRANCH  32  42
BRANCH  41  52
HETATM   52  N7  UNL     1      11.062   5.440 -11.815  1.00  0.00    -0.116 N 
HETATM   53  O7  UNL     1      10.476   6.543 -11.877  1.00  0.00    -0.532 OA
HETATM   54  O8  UNL     1      11.128   4.700 -12.959  1.00  0.00    -0.532 OA
ENDBRANCH  41  52
ENDBRANCH   1  31
TORSDOF 16
ENDMDL
MODEL 2
REMARK VINA RESULT: -10.085581993      2.658      4.208
REMARK  16 active torsions:
REMARK  status: ('A' for Active; 'I' for Inactive)
REMARK    1  A    between atoms: O1_2  and  C2_3 
REMARK    2  A    between atoms: C5_6  and  N1_7 
REMARK    3  A    between atoms: N1_7  and  C6_9 
REMARK    4  A    between atoms: C7_10  and  C8_11 
REMARK       I    between atoms: C8_11  and  N2_13 
REMARK    5  A    between atoms: N2_13  and  C9_15 
REMARK    6  A    between atoms: C9_15  and  C10_16 
REMARK    7  A    between atoms: C9_15  and  N3_20 
REMARK    8  A    between atoms: C10_16  and  C11_17 
REMARK    9  A    between atoms: C11_17  and  S1_18 
REMARK       I    between atoms: N3_20  and  C13_22 
REMARK   10  A    between atoms: C13_22  and  C14_24 
REMARK   11  A    between atoms: C14_24  and  O4_25 
REMARK   12  A    between atoms: C14_24  and  N4_27 
REMARK   13  A    between atoms: N4_27  and  C15_28 
REMARK   14  A    between atoms: C17_32  and  C18_33 
REMARK   15  A    between atoms: C21_37  and  N6_38 
REMARK   16  A    between atoms: C26_47  and  N7_48 
ROOT
HETATM    1  C8  UNL     1      11.944   3.109  -9.243  1.00  0.00     0.259 C 
HETATM    2  O2  UNL     1      10.839   2.595  -8.825  1.00  0.00    -0.267 OA
HETATM    3  N2  UNL     1      12.972   2.195  -9.389  1.00  0.00    -0.336 N 
ATOM      4  H2  UNL     1      13.871   2.531  -9.735  1.00  0.00     0.164 HD
ENDROOT
BRANCH   3   5
HETATM    5  C9  UNL     1      12.839   0.767  -9.071  1.00  0.00     0.188 C 
BRANCH   5   6
HETATM    6  C10 UNL     1      14.023  -0.010  -9.612  1.00  0.00     0.057 C 
BRANCH   6   7
HETATM    7  C11 UNL     1      14.618   0.800 -10.742  1.00  0.00     0.077 C 
BRANCH   7   8
HETATM    8  S1  UNL     1      15.487  -0.288 -11.921  1.00  0.00    -0.173 SA
HETATM    9  C12 UNL     1      16.188   0.611 -13.302  1.00  0.00     0.089 C 
ENDBRANCH   7   8
ENDBRANCH   6   7
ENDBRANCH   5   6
BRANCH   5  10
HETATM   10  N3  UNL     1      12.791   0.547  -7.667  1.00  0.00    -0.332 N 
HETATM   11  C13 UNL     1      13.661   1.083  -6.688  1.00  0.00     0.308 C 
HETATM   12  O3  UNL     1      14.602   1.846  -6.991  1.00  0.00    -0.262 OA
ATOM     13  H3  UNL     1      12.048  -0.064  -7.328  1.00  0.00     0.165 HD
BRANCH  11  14
HETATM   14  C14 UNL     1      13.492   0.759  -5.246  1.00  0.00     0.285 C 
BRANCH  14  15
HETATM   15  O4  UNL     1      12.584   1.458  -4.623  1.00  0.00    -0.331 OA
ATOM     16  H4  UNL     1      12.905   1.988  -3.902  1.00  0.00     0.220 HD
ENDBRANCH  14  15
BRANCH  14  17
HETATM   17  N4  UNL     1      14.171  -0.142  -4.583  1.00  0.00    -0.353 NA
BRANCH  17  18
HETATM   18  C15 UNL     1      14.804  -1.066  -4.169  1.00  0.00     0.233 A 
HETATM   19  N5  UNL     1      14.850  -2.317  -4.747  1.00  0.00    -0.335 N 
HETATM   20  C16 UNL     1      15.571  -3.284  -4.176  1.00  0.00     0.124 A 
ATOM     21  H5  UNL     1      14.334  -2.502  -5.608  1.00  0.00     0.168 HD
HETATM   22  C17 UNL     1      16.288  -3.109  -3.026  1.00  0.00     0.074 A 
HETATM   23  O5  UNL     1      16.247  -1.901  -2.467  1.00  0.00    -0.292 OA
HETATM   24  C21 UNL     1      15.563  -0.945  -2.988  1.00  0.00     0.201 A 
BRANCH  22  25
HETATM   25  C18 UNL     1      17.071  -4.189  -2.414  1.00  0.00     0.036 C 
HETATM   26  C19 UNL     1      18.342  -4.536  -3.138  1.00  0.00     0.016 C 
HETATM   27  C20 UNL     1      16.241  -5.490  -2.400  1.00  0.00     0.016 C 
ENDBRANCH  22  25
BRANCH  24  28
HETATM   28  N6  UNL     1      15.553   0.228  -2.402  1.00  0.00    -0.376 N 
ATOM     29  H62 UNL     1      16.268   0.913  -2.648  1.00  0.00     0.158 HD
ATOM     30  H61 UNL     1      14.813   0.391  -1.719  1.00  0.00     0.158 HD
ENDBRANCH  24  28
ENDBRANCH  17  18
ENDBRANCH  14  17
ENDBRANCH  11  14
ENDBRANCH   5  10
ENDBRANCH   3   5
BRANCH   1  31
HETATM   31  C7  UNL     1      11.938   4.519  -9.492  1.00  0.00     0.104 A 
HETATM   32  C6  UNL     1      11.220   5.000 -10.594  1.00  0.00     0.065 A 
HETATM   33  C28 UNL     1      11.164   6.363 -10.923  1.00  0.00     0.028 A 
HETATM   34  C23 UNL     1      11.858   7.229 -10.098  1.00  0.00     0.089 A 
HETATM   35  C27 UNL     1      10.462   6.830 -12.009  1.00  0.00     0.052 A 
HETATM   36  O6  UNL     1      12.516   6.798  -9.084  1.00  0.00    -0.297 OA
HETATM   37  C24 UNL     1      11.824   8.605 -10.402  1.00  0.00     0.041 A 
HETATM   38  C22 UNL     1      12.578   5.498  -8.761  1.00  0.00     0.160 A 
HETATM   39  S2  UNL     1      13.446   5.079  -7.448  1.00  0.00    -0.051 SA
HETATM   40  C25 UNL     1      11.113   9.073 -11.498  1.00  0.00     0.039 A 
HETATM   41  C26 UNL     1      10.427   8.167 -12.307  1.00  0.00     0.103 A 
BRANCH  32  42
HETATM   42  N1  UNL     1      10.510   4.154 -11.435  1.00  0.00    -0.355 N 
ATOM     43  H1  UNL     1       9.493   4.240 -11.471  1.00  0.00     0.166 HD
BRANCH  42  44
HETATM   44  C5  UNL     1      11.137   3.177 -12.241  1.00  0.00     0.032 A 
HETATM   45  C4  UNL     1      10.669   1.844 -12.200  1.00  0.00     0.032 A 
HETATM   46  C3  UNL     1      11.247   0.866 -12.962  1.00  0.00     0.039 A 
HETATM   47  C2  UNL     1      12.320   1.145 -13.811  1.00  0.00     0.068 A 
HETATM   48  C30 UNL     1      12.781   2.416 -13.865  1.00  0.00     0.039 A 
HETATM   49  C29 UNL     1      12.188   3.411 -13.082  1.00  0.00     0.032 A 
BRANCH  47  50
HETATM   50  O1  UNL     1      12.863   0.104 -14.560  1.00  0.00    -0.356 OA
HETATM   51  C1  UNL     1      13.219   0.141 -15.900  1.00  0.00     0.210 C 
ENDBRANCH  47  50
ENDBRANCH  42  44
ENDBRANCH  32  42
BRANCH  41  52
HETATM   52  N7  UNL     1       9.724   8.718 -13.413  1.00  0.00    -0.116 N 
HETATM   53  O7  UNL     1       9.867   8.214 -14.549  1.00  0.00    -0.532 OA
HETATM   54  O8  UNL     1       8.890   9.792 -13.304  1.00  0.00    -0.532 OA
ENDBRANCH  41  52
ENDBRANCH   1  31
TORSDOF 16
ENDMDL
MODEL 3
REMARK VINA RESULT: -9.921809539      2.693      4.469
REMARK  16 active torsions:
REMARK  status: ('A' for Active; 'I' for Inactive)
REMARK    1  A    between atoms: O1_2  and  C2_3 
REMARK    2  A    between atoms: C5_6  and  N1_7 
REMARK    3  A    between atoms: N1_7  and  C6_9 
REMARK    4  A    between atoms: C7_10  and  C8_11 
REMARK       I    between atoms: C8_11  and  N2_13 
REMARK    5  A    between atoms: N2_13  and  C9_15 
REMARK    6  A    between atoms: C9_15  and  C10_16 
REMARK    7  A    between atoms: C9_15  and  N3_20 
REMARK    8  A    between atoms: C10_16  and  C11_17 
REMARK    9  A    between atoms: C11_17  and  S1_18 
REMARK       I    between atoms: N3_20  and  C13_22 
REMARK   10  A    between atoms: C13_22  and  C14_24 
REMARK   11  A    between atoms: C14_24  and  O4_25 
REMARK   12  A    between atoms: C14_24  and  N4_27 
REMARK   13  A    between atoms: N4_27  and  C15_28 
REMARK   14  A    between atoms: C17_32  and  C18_33 
REMARK   15  A    between atoms: C21_37  and  N6_38 
REMARK   16  A    between atoms: C26_47  and  N7_48 
ROOT
HETATM    1  C8  UNL     1      13.510   1.672  -4.766  1.00  0.00     0.259 C 
HETATM    2  O2  UNL     1      12.436   1.742  -4.056  1.00  0.00    -0.267 OA
HETATM    3  N2  UNL     1      14.588   1.114  -4.104  1.00  0.00    -0.336 N 
ATOM      4  H2  UNL     1      15.466   1.011  -4.613  1.00  0.00     0.164 HD
ENDROOT
BRANCH   3   5
HETATM    5  C9  UNL     1      14.537   0.663  -2.706  1.00  0.00     0.188 C 
BRANCH   5   6
HETATM    6  C10 UNL     1      13.143   0.180  -2.355  1.00  0.00     0.057 C 
BRANCH   6   7
HETATM    7  C11 UNL     1      12.889   0.546  -0.909  1.00  0.00     0.077 C 
BRANCH   7   8
HETATM    8  S1  UNL     1      11.376  -0.271  -0.299  1.00  0.00    -0.173 SA
HETATM    9  C12 UNL     1      11.252  -0.249   1.487  1.00  0.00     0.089 C 
ENDBRANCH   7   8
ENDBRANCH   6   7
ENDBRANCH   5   6
BRANCH   5  10
HETATM   10  N3  UNL     1      15.432  -0.418  -2.474  1.00  0.00    -0.332 N 
HETATM   11  C13 UNL     1      16.803  -0.481  -2.820  1.00  0.00     0.308 C 
HETATM   12  O3  UNL     1      17.382   0.467  -3.389  1.00  0.00    -0.262 OA
ATOM     13  H3  UNL     1      15.043  -1.237  -2.008  1.00  0.00     0.165 HD
BRANCH  11  14
HETATM   14  C14 UNL     1      17.619  -1.688  -2.516  1.00  0.00     0.285 C 
BRANCH  14  15
HETATM   15  O4  UNL     1      18.873  -1.455  -2.241  1.00  0.00    -0.331 OA
ATOM     16  H4  UNL     1      19.492  -1.740  -2.903  1.00  0.00     0.220 HD
ENDBRANCH  14  15
BRANCH  14  17
HETATM   17  N4  UNL     1      17.183  -2.921  -2.514  1.00  0.00    -0.353 NA
BRANCH  17  18
HETATM   18  C15 UNL     1      16.996  -4.101  -2.516  1.00  0.00     0.233 A 
HETATM   19  N5  UNL     1      15.778  -4.710  -2.305  1.00  0.00    -0.335 N 
HETATM   20  C16 UNL     1      15.696  -6.043  -2.300  1.00  0.00     0.124 A 
ATOM     21  H5  UNL     1      14.942  -4.145  -2.154  1.00  0.00     0.168 HD
HETATM   22  C17 UNL     1      16.771  -6.863  -2.496  1.00  0.00     0.074 A 
HETATM   23  O5  UNL     1      17.949  -6.277  -2.702  1.00  0.00    -0.292 OA
HETATM   24  C21 UNL     1      18.066  -4.996  -2.714  1.00  0.00     0.201 A 
BRANCH  22  25
HETATM   25  C18 UNL     1      16.658  -8.327  -2.481  1.00  0.00     0.036 C 
HETATM   26  C19 UNL     1      17.783  -9.054  -3.162  1.00  0.00     0.016 C 
HETATM   27  C20 UNL     1      15.380  -8.758  -3.231  1.00  0.00     0.016 C 
ENDBRANCH  22  25
BRANCH  24  28
HETATM   28  N6  UNL     1      19.246  -4.463  -2.921  1.00  0.00    -0.376 N 
ATOM     29  H62 UNL     1      20.082  -5.019  -2.741  1.00  0.00     0.158 HD
ATOM     30  H61 UNL     1      19.260  -3.501  -3.258  1.00  0.00     0.158 HD
ENDBRANCH  24  28
ENDBRANCH  17  18
ENDBRANCH  14  17
ENDBRANCH  11  14
ENDBRANCH   5  10
ENDBRANCH   3   5
BRANCH   1  31
HETATM   31  C7  UNL     1      13.422   2.169  -6.106  1.00  0.00     0.104 A 
HETATM   32  C6  UNL     1      12.868   1.342  -7.091  1.00  0.00     0.065 A 
HETATM   33  C28 UNL     1      12.750   1.738  -8.431  1.00  0.00     0.028 A 
HETATM   34  C23 UNL     1      13.211   3.003  -8.747  1.00  0.00     0.089 A 
HETATM   35  C27 UNL     1      12.210   0.920  -9.396  1.00  0.00     0.052 A 
HETATM   36  O6  UNL     1      13.718   3.770  -7.851  1.00  0.00    -0.297 OA
HETATM   37  C24 UNL     1      13.108   3.431 -10.086  1.00  0.00     0.041 A 
HETATM   38  C22 UNL     1      13.836   3.401  -6.567  1.00  0.00     0.160 A 
HETATM   39  S2  UNL     1      14.496   4.466  -5.526  1.00  0.00    -0.051 SA
HETATM   40  C25 UNL     1      12.561   2.604 -11.057  1.00  0.00     0.039 A 
HETATM   41  C26 UNL     1      12.109   1.333 -10.699  1.00  0.00     0.103 A 
BRANCH  32  42
HETATM   42  N1  UNL     1      12.393   0.070  -6.800  1.00  0.00    -0.355 N 
ATOM     43  H1  UNL     1      11.402  -0.045  -6.585  1.00  0.00     0.166 HD
BRANCH  42  44
HETATM   44  C5  UNL     1      13.225  -1.072  -6.790  1.00  0.00     0.032 A 
HETATM   45  C4  UNL     1      13.583  -1.675  -8.018  1.00  0.00     0.032 A 
HETATM   46  C3  UNL     1      14.385  -2.782  -8.057  1.00  0.00     0.039 A 
HETATM   47  C2  UNL     1      14.883  -3.360  -6.887  1.00  0.00     0.068 A 
HETATM   48  C30 UNL     1      14.552  -2.796  -5.702  1.00  0.00     0.039 A 
HETATM   49  C29 UNL     1      13.730  -1.666  -5.669  1.00  0.00     0.032 A 
BRANCH  47  50
HETATM   50  O1  UNL     1      15.694  -4.487  -6.995  1.00  0.00    -0.356 OA
HETATM   51  C1  UNL     1      16.438  -5.077  -5.984  1.00  0.00     0.210 C 
ENDBRANCH  47  50
ENDBRANCH  42  44
ENDBRANCH  32  42
BRANCH  41  52
HETATM   52  N7  UNL     1      11.564   0.541 -11.746  1.00  0.00    -0.116 N 
HETATM   53  O7  UNL     1      12.236   0.341 -12.782  1.00  0.00    -0.532 OA
HETATM   54  O8  UNL     1      10.322  -0.020 -11.685  1.00  0.00    -0.532 OA
ENDBRANCH  41  52
ENDBRANCH   1  31
TORSDOF 16
ENDMDL
MODEL 4
REMARK VINA RESULT: -9.898139315      2.909      5.393
REMARK  16 active torsions:
REMARK  status: ('A' for Active; 'I' for Inactive)
REMARK    1  A    between atoms: O1_2  and  C2_3 
REMARK    2  A    between atoms: C5_6  and  N1_7 
REMARK    3  A    between atoms: N1_7  and  C6_9 
REMARK    4  A    between atoms: C7_10  and  C8_11 
REMARK       I    between atoms: C8_11  and  N2_13 
REMARK    5  A    between atoms: N2_13  and  C9_15 
REMARK    6  A    between atoms: C9_15  and  C10_16 
REMARK    7  A    between atoms: C9_15  and  N3_20 
REMARK    8  A    between atoms: C10_16  and  C11_17 
REMARK    9  A    between atoms: C11_17  and  S1_18 
REMARK       I    between atoms: N3_20  and  C13_22 
REMARK   10  A    between atoms: C13_22  and  C14_24 
REMARK   11  A    between atoms: C14_24  and  O4_25 
REMARK   12  A    between atoms: C14_24  and  N4_27 
REMARK   13  A    between atoms: N4_27  and  C15_28 
REMARK   14  A    between atoms: C17_32  and  C18_33 
REMARK   15  A    between atoms: C21_37  and  N6_38 
REMARK   16  A    between atoms: C26_47  and  N7_48 
ROOT
HETATM    1  C8  UNL     1      11.758   2.493 -10.601  1.00  0.00     0.259 C 
HETATM    2  O2  UNL     1      10.775   1.877 -10.040  1.00  0.00    -0.267 OA
HETATM    3  N2  UNL     1      12.943   1.781 -10.601  1.00  0.00    -0.336 N 
ATOM      4  H2  UNL     1      13.759   2.202 -11.046  1.00  0.00     0.164 HD
ENDROOT
BRANCH   3   5
HETATM    5  C9  UNL     1      13.091   0.451  -9.994  1.00  0.00     0.188 C 
BRANCH   5   6
HETATM    6  C10 UNL     1      14.351  -0.226 -10.496  1.00  0.00     0.057 C 
BRANCH   6   7
HETATM    7  C11 UNL     1      14.505   0.133 -11.958  1.00  0.00     0.077 C 
BRANCH   7   8
HETATM    8  S1  UNL     1      16.155   0.846 -12.271  1.00  0.00    -0.173 SA
HETATM    9  C12 UNL     1      16.694   1.940 -10.960  1.00  0.00     0.089 C 
ENDBRANCH   7   8
ENDBRANCH   6   7
ENDBRANCH   5   6
BRANCH   5  10
HETATM   10  N3  UNL     1      13.188   0.533  -8.577  1.00  0.00    -0.332 N 
HETATM   11  C13 UNL     1      13.097  -0.533  -7.651  1.00  0.00     0.308 C 
HETATM   12  O3  UNL     1      12.917  -1.712  -8.020  1.00  0.00    -0.262 OA
ATOM     13  H3  UNL     1      13.340   1.463  -8.186  1.00  0.00     0.165 HD
BRANCH  11  14
HETATM   14  C14 UNL     1      13.214  -0.294  -6.187  1.00  0.00     0.285 C 
BRANCH  14  15
HETATM   15  O4  UNL     1      12.560   0.742  -5.740  1.00  0.00    -0.331 OA
ATOM     16  H4  UNL     1      11.616   0.642  -5.709  1.00  0.00     0.220 HD
ENDBRANCH  14  15
BRANCH  14  17
HETATM   17  N4  UNL     1      13.908  -1.022  -5.350  1.00  0.00    -0.353 NA
BRANCH  17  18
HETATM   18  C15 UNL     1      14.579  -1.813  -4.758  1.00  0.00     0.233 A 
HETATM   19  N5  UNL     1      15.127  -2.953  -5.306  1.00  0.00    -0.335 N 
HETATM   20  C16 UNL     1      15.836  -3.782  -4.537  1.00  0.00     0.124 A 
ATOM     21  H5  UNL     1      14.991  -3.162  -6.295  1.00  0.00     0.168 HD
HETATM   22  C17 UNL     1      16.062  -3.566  -3.207  1.00  0.00     0.074 A 
HETATM   23  O5  UNL     1      15.535  -2.464  -2.675  1.00  0.00    -0.292 OA
HETATM   24  C21 UNL     1      14.845  -1.643  -3.385  1.00  0.00     0.201 A 
BRANCH  22  25
HETATM   25  C18 UNL     1      16.842  -4.495  -2.379  1.00  0.00     0.036 C 
HETATM   26  C19 UNL     1      18.164  -4.903  -2.965  1.00  0.00     0.016 C 
HETATM   27  C20 UNL     1      16.056  -5.808  -2.189  1.00  0.00     0.016 C 
ENDBRANCH  22  25
BRANCH  24  28
HETATM   28  N6  UNL     1      14.347  -0.571  -2.819  1.00  0.00    -0.376 N 
ATOM     29  H62 UNL     1      13.339  -0.414  -2.850  1.00  0.00     0.158 HD
ATOM     30  H61 UNL     1      15.011   0.059  -2.369  1.00  0.00     0.158 HD
ENDBRANCH  24  28
ENDBRANCH  17  18
ENDBRANCH  14  17
ENDBRANCH  11  14
ENDBRANCH   5  10
ENDBRANCH   3   5
BRANCH   1  31
HETATM   31  C7  UNL     1      11.477   3.793 -11.132  1.00  0.00     0.104 A 
HETATM   32  C6  UNL     1      11.409   4.875 -10.246  1.00  0.00     0.065 A 
HETATM   33  C28 UNL     1      11.130   6.183 -10.671  1.00  0.00     0.028 A 
HETATM   34  C23 UNL     1      10.922   6.363 -12.027  1.00  0.00     0.089 A 
HETATM   35  C27 UNL     1      11.059   7.242  -9.797  1.00  0.00     0.052 A 
HETATM   36  O6  UNL     1      10.986   5.378 -12.846  1.00  0.00    -0.297 OA
HETATM   37  C24 UNL     1      10.638   7.665 -12.486  1.00  0.00     0.041 A 
HETATM   38  C22 UNL     1      11.250   4.125 -12.451  1.00  0.00     0.160 A 
HETATM   39  S2  UNL     1      11.305   2.961 -13.590  1.00  0.00    -0.051 SA
HETATM   40  C25 UNL     1      10.569   8.733 -11.602  1.00  0.00     0.039 A 
HETATM   41  C26 UNL     1      10.783   8.509 -10.241  1.00  0.00     0.103 A 
BRANCH  32  42
HETATM   42  N1  UNL     1      11.619   4.724  -8.882  1.00  0.00    -0.355 N 
ATOM     43  H1  UNL     1      10.819   4.793  -8.252  1.00  0.00     0.166 HD
BRANCH  42  44
HETATM   44  C5  UNL     1      12.897   4.478  -8.331  1.00  0.00     0.032 A 
HETATM   45  C4  UNL     1      12.993   3.880  -7.053  1.00  0.00     0.032 A 
HETATM   46  C3  UNL     1      14.209   3.625  -6.479  1.00  0.00     0.039 A 
HETATM   47  C2  UNL     1      15.402   3.944  -7.132  1.00  0.00     0.068 A 
HETATM   48  C30 UNL     1      15.329   4.516  -8.357  1.00  0.00     0.039 A 
HETATM   49  C29 UNL     1      14.084   4.776  -8.936  1.00  0.00     0.032 A 
BRANCH  47  50
HETATM   50  O1  UNL     1      16.606   3.658  -6.493  1.00  0.00    -0.356 OA
HETATM   51  C1  UNL     1      16.886   2.553  -5.704  1.00  0.00     0.210 C 
ENDBRANCH  47  50
ENDBRANCH  42  44
ENDBRANCH  32  42
BRANCH  41  52
HETATM   52  N7  UNL     1      10.692   9.648  -9.395  1.00  0.00    -0.116 N 
HETATM   53  O7  UNL     1      11.359   9.686  -8.337  1.00  0.00    -0.532 OA
HETATM   54  O8  UNL     1       9.899  10.721  -9.675  1.00  0.00    -0.532 OA
ENDBRANCH  41  52
ENDBRANCH   1  31
TORSDOF 16
ENDMDL
MODEL 5
REMARK VINA RESULT: -9.873604354      2.836      4.728
REMARK  16 active torsions:
REMARK  status: ('A' for Active; 'I' for Inactive)
REMARK    1  A    between atoms: O1_2  and  C2_3 
REMARK    2  A    between atoms: C5_6  and  N1_7 
REMARK    3  A    between atoms: N1_7  and  C6_9 
REMARK    4  A    between atoms: C7_10  and  C8_11 
REMARK       I    between atoms: C8_11  and  N2_13 
REMARK    5  A    between atoms: N2_13  and  C9_15 
REMARK    6  A    between atoms: C9_15  and  C10_16 
REMARK    7  A    between atoms: C9_15  and  N3_20 
REMARK    8  A    between atoms: C10_16  and  C11_17 
REMARK    9  A    between atoms: C11_17  and  S1_18 
REMARK       I    between atoms: N3_20  and  C13_22 
REMARK   10  A    between atoms: C13_22  and  C14_24 
REMARK   11  A    between atoms: C14_24  and  O4_25 
REMARK   12  A    between atoms: C14_24  and  N4_27 
REMARK   13  A    between atoms: N4_27  and  C15_28 
REMARK   14  A    between atoms: C17_32  and  C18_33 
REMARK   15  A    between atoms: C21_37  and  N6_38 
REMARK   16  A    between atoms: C26_47  and  N7_48 
ROOT
HETATM    1  C8  UNL     1      11.748   3.498  -9.643  1.00  0.00     0.259 C 
HETATM    2  O2  UNL     1      10.641   2.946  -9.281  1.00  0.00    -0.267 OA
HETATM    3  N2  UNL     1      12.806   2.616  -9.764  1.00  0.00    -0.336 N 
ATOM      4  H2  UNL     1      13.709   2.983 -10.066  1.00  0.00     0.164 HD
ENDROOT
BRANCH   3   5
HETATM    5  C9  UNL     1      12.699   1.178  -9.481  1.00  0.00     0.188 C 
BRANCH   5   6
HETATM    6  C10 UNL     1      13.865   0.428 -10.094  1.00  0.00     0.057 C 
BRANCH   6   7
HETATM    7  C11 UNL     1      14.682   1.427 -10.882  1.00  0.00     0.077 C 
BRANCH   7   8
HETATM    8  S1  UNL     1      15.823   0.569 -12.017  1.00  0.00    -0.173 SA
HETATM    9  C12 UNL     1      16.811   1.702 -12.990  1.00  0.00     0.089 C 
ENDBRANCH   7   8
ENDBRANCH   6   7
ENDBRANCH   5   6
BRANCH   5  10
HETATM   10  N3  UNL     1      12.716   0.919  -8.082  1.00  0.00    -0.332 N 
HETATM   11  C13 UNL     1      13.561   1.511  -7.114  1.00  0.00     0.308 C 
HETATM   12  O3  UNL     1      14.416   2.367  -7.422  1.00  0.00    -0.262 OA
ATOM     13  H3  UNL     1      12.044   0.232  -7.739  1.00  0.00     0.165 HD
BRANCH  11  14
HETATM   14  C14 UNL     1      13.467   1.136  -5.677  1.00  0.00     0.285 C 
BRANCH  14  15
HETATM   15  O4  UNL     1      12.711   1.911  -4.949  1.00  0.00    -0.331 OA
ATOM     16  H4  UNL     1      13.142   2.315  -4.205  1.00  0.00     0.220 HD
ENDBRANCH  14  15
BRANCH  14  17
HETATM   17  N4  UNL     1      14.075   0.124  -5.112  1.00  0.00    -0.353 NA
BRANCH  17  18
HETATM   18  C15 UNL     1      14.729  -0.648  -4.477  1.00  0.00     0.233 A 
HETATM   19  N5  UNL     1      15.561  -0.308  -3.432  1.00  0.00    -0.335 N 
HETATM   20  C16 UNL     1      16.268  -1.257  -2.814  1.00  0.00     0.124 A 
ATOM     21  H5  UNL     1      15.637   0.664  -3.134  1.00  0.00     0.168 HD
HETATM   22  C17 UNL     1      16.216  -2.578  -3.158  1.00  0.00     0.074 A 
HETATM   23  O5  UNL     1      15.410  -2.910  -4.165  1.00  0.00    -0.292 OA
HETATM   24  C21 UNL     1      14.715  -2.023  -4.785  1.00  0.00     0.201 A 
BRANCH  22  25
HETATM   25  C18 UNL     1      17.006  -3.604  -2.465  1.00  0.00     0.036 C 
HETATM   26  C19 UNL     1      18.303  -3.961  -3.136  1.00  0.00     0.016 C 
HETATM   27  C20 UNL     1      16.205  -4.921  -2.398  1.00  0.00     0.016 C 
ENDBRANCH  22  25
BRANCH  24  28
HETATM   28  N6  UNL     1      13.935  -2.396  -5.770  1.00  0.00    -0.376 N 
ATOM     29  H62 UNL     1      13.577  -1.692  -6.416  1.00  0.00     0.158 HD
ATOM     30  H61 UNL     1      13.726  -3.392  -5.836  1.00  0.00     0.158 HD
ENDBRANCH  24  28
ENDBRANCH  17  18
ENDBRANCH  14  17
ENDBRANCH  11  14
ENDBRANCH   5  10
ENDBRANCH   3   5
BRANCH   1  31
HETATM   31  C7  UNL     1      11.713   4.913  -9.864  1.00  0.00     0.104 A 
HETATM   32  C6  UNL     1      11.053   5.395 -11.001  1.00  0.00     0.065 A 
HETATM   33  C28 UNL     1      10.975   6.762 -11.305  1.00  0.00     0.028 A 
HETATM   34  C23 UNL     1      11.586   7.631 -10.420  1.00  0.00     0.089 A 
HETATM   35  C27 UNL     1      10.330   7.231 -12.426  1.00  0.00     0.052 A 
HETATM   36  O6  UNL     1      12.190   7.198  -9.374  1.00  0.00    -0.297 OA
HETATM   37  C24 UNL     1      11.527   9.011 -10.698  1.00  0.00     0.041 A 
HETATM   38  C22 UNL     1      12.272   5.894  -9.073  1.00  0.00     0.160 A 
HETATM   39  S2  UNL     1      13.066   5.473  -7.714  1.00  0.00    -0.051 SA
HETATM   40  C25 UNL     1      10.875   9.482 -11.829  1.00  0.00     0.039 A 
HETATM   41  C26 UNL     1      10.272   8.572 -12.700  1.00  0.00     0.103 A 
BRANCH  32  42
HETATM   42  N1  UNL     1      10.426   4.545 -11.903  1.00  0.00    -0.355 N 
ATOM     43  H1  UNL     1       9.427   4.663 -12.073  1.00  0.00     0.166 HD
BRANCH  42  44
HETATM   44  C5  UNL     1      11.116   3.524 -12.594  1.00  0.00     0.032 A 
HETATM   45  C4  UNL     1      10.602   2.208 -12.572  1.00  0.00     0.032 A 
HETATM   46  C3  UNL     1      11.237   1.187 -13.226  1.00  0.00     0.039 A 
HETATM   47  C2  UNL     1      12.417   1.405 -13.941  1.00  0.00     0.068 A 
HETATM   48  C30 UNL     1      12.924   2.659 -13.973  1.00  0.00     0.039 A 
HETATM   49  C29 UNL     1      12.271   3.697 -13.302  1.00  0.00     0.032 A 
BRANCH  47  50
HETATM   50  O1  UNL     1      13.014   0.323 -14.583  1.00  0.00    -0.356 OA
HETATM   51  C1  UNL     1      14.075   0.369 -15.476  1.00  0.00     0.210 C 
ENDBRANCH  47  50
ENDBRANCH  42  44
ENDBRANCH  32  42
BRANCH  41  52
HETATM   52  N7  UNL     1       9.625   9.126 -13.839  1.00  0.00    -0.116 N 
HETATM   53  O7  UNL     1       9.596   8.477 -14.908  1.00  0.00    -0.532 OA
HETATM   54  O8  UNL     1       9.028  10.352 -13.832  1.00  0.00    -0.532 OA
ENDBRANCH  41  52
ENDBRANCH   1  31
TORSDOF 16
ENDMDL
