MODEL 1
REMARK VINA RESULT: -10.960002538      0.000      0.000
REMARK  13 active torsions:
REMARK  status: ('A' for Active; 'I' for Inactive)
REMARK    1  A    between atoms: C2_2  and  N1_3 
REMARK    2  A    between atoms: N1_3  and  N2_4 
REMARK       I    between atoms: N2_4  and  C3_6 
REMARK       I    between atoms: C3_6  and  N4_10 
REMARK    3  A    between atoms: N4_10  and  C4_12 
REMARK    4  A    between atoms: C4_12  and  C5_13 
REMARK    5  A    between atoms: C5_13  and  N5_14 
REMARK    6  A    between atoms: C6_15  and  C7_16 
REMARK    7  A    between atoms: N6_17  and  N7_19 
REMARK    8  A    between atoms: N7_19  and  O1_21 
REMARK    9  A    between atoms: C8_23  and  S1_24 
REMARK   10  A    between atoms: S1_24  and  C9_25 
REMARK   11  A    between atoms: N9_36  and  C17_37 
REMARK   12  A    between atoms: C24_44  and  C25_45 
REMARK   13  A    between atoms: C28_48  and  N10_49 
ROOT
HETATM    1  N5  UNL     1      13.418   0.979  -6.202  1.00  0.00    -0.342 N 
HETATM    2  C6  UNL     1      13.402   2.122  -6.892  1.00  0.00     0.070 A 
HETATM    3  C8  UNL     1      13.684   1.880  -8.219  1.00  0.00     0.050 A 
HETATM    4  C23 UNL     1      13.881   0.525  -8.340  1.00  0.00     0.021 A 
HETATM    5  C24 UNL     1      14.173  -0.309  -9.383  1.00  0.00    -0.012 A 
HETATM    6  C31 UNL     1      14.291  -1.686  -9.155  1.00  0.00     0.013 A 
HETATM    7  C32 UNL     1      14.111  -2.177  -7.887  1.00  0.00     0.003 A 
HETATM    8  C33 UNL     1      13.821  -1.385  -6.812  1.00  0.00     0.030 A 
HETATM    9  C34 UNL     1      13.708  -0.033  -7.056  1.00  0.00     0.047 A 
ENDROOT
BRANCH   3  10
HETATM   10  S1  UNL     1      13.751   3.067  -9.498  1.00  0.00    -0.050 SA
BRANCH  10  11
HETATM   11  C9  UNL     1      12.476   4.325  -9.377  1.00  0.00     0.160 A 
HETATM   12  N8  UNL     1      12.737   5.536  -8.865  1.00  0.00    -0.335 N 
HETATM   13  C10 UNL     1      11.823   6.498  -8.760  1.00  0.00     0.050 A 
ATOM     14  H8  UNL     1      13.684   5.730  -8.539  1.00  0.00     0.168 HD
HETATM   15  C11 UNL     1      12.114   7.720  -8.240  1.00  0.00     0.030 A 
HETATM   16  C15 UNL     1      10.548   6.235  -9.201  1.00  0.00     0.059 A 
HETATM   17  C12 UNL     1      11.127   8.695  -8.156  1.00  0.00     0.002 A 
HETATM   18  C13 UNL     1       9.834   8.431  -8.600  1.00  0.00     0.001 A 
HETATM   19  C14 UNL     1       9.555   7.195  -9.122  1.00  0.00     0.019 A 
HETATM   20  C16 UNL     1      10.272   4.989  -9.728  1.00  0.00     0.266 A 
HETATM   21  O2  UNL     1       9.079   4.726 -10.146  1.00  0.00    -0.267 OA
HETATM   22  N9  UNL     1      11.237   4.073  -9.802  1.00  0.00    -0.258 N 
BRANCH  22  23
HETATM   23  C17 UNL     1      10.905   2.794 -10.337  1.00  0.00     0.044 A 
HETATM   24  C18 UNL     1      10.865   2.636 -11.704  1.00  0.00     0.030 A 
HETATM   25  C19 UNL     1      10.544   1.408 -12.240  1.00  0.00     0.002 A 
HETATM   26  C20 UNL     1      10.254   0.313 -11.427  1.00  0.00     0.000 A 
HETATM   27  C21 UNL     1      10.307   0.525 -10.053  1.00  0.00     0.002 A 
HETATM   28  C22 UNL     1      10.628   1.748  -9.495  1.00  0.00     0.030 A 
ENDBRANCH  22  23
ENDBRANCH  10  11
ENDBRANCH   3  10
BRANCH   2  29
HETATM   29  C7  UNL     1      13.132   3.425  -6.354  1.00  0.00     0.140 C 
HETATM   30  N6  UNL     1      14.084   4.195  -5.997  1.00  0.00    -0.290 N 
ATOM     31  H6  UNL     1      15.035   3.844  -6.109  1.00  0.00     0.188 HD
BRANCH  30  32
HETATM   32  N7  UNL     1      13.934   5.472  -5.466  1.00  0.00    -0.210 N 
ATOM     33  H7  UNL     1      14.703   5.910  -4.958  1.00  0.00     0.215 HD
BRANCH  32  34
HETATM   34  O1  UNL     1      12.758   6.133  -5.629  1.00  0.00    -0.274 OA
ATOM     35  H1  UNL     1      12.320   6.506  -4.872  1.00  0.00     0.246 HD
ENDBRANCH  32  34
ENDBRANCH  30  32
ENDBRANCH   2  29
BRANCH   1  36
HETATM   36  C5  UNL     1      13.170   0.816  -4.781  1.00  0.00     0.149 C 
BRANCH  36  37
HETATM   37  C4  UNL     1      14.195   1.519  -3.923  1.00  0.00     0.158 C 
BRANCH  37  38
HETATM   38  N4  UNL     1      15.474   0.867  -4.110  1.00  0.00    -0.224 N 
HETATM   39  C3  UNL     1      15.932  -0.151  -3.236  1.00  0.00     0.683 C 
HETATM   40  N2  UNL     1      15.153  -1.218  -2.774  1.00  0.00    -0.137 N 
HETATM   41  N3  UNL     1      17.165  -0.083  -2.837  1.00  0.00    -0.234 N 
ATOM     42  H2  UNL     1      14.207  -1.014  -2.451  1.00  0.00     0.201 HD
ATOM     43  H32 UNL     1      17.494  -0.815  -2.208  1.00  0.00     0.174 HD
ATOM     44  H31 UNL     1      17.732   0.695  -3.174  1.00  0.00     0.174 HD
ATOM     45  H4  UNL     1      16.064   1.148  -4.893  1.00  0.00     0.177 HD
BRANCH  40  46
HETATM   46  N1  UNL     1      15.588  -2.544  -2.726  1.00  0.00    -0.127 NA
BRANCH  46  47
HETATM   47  C2  UNL     1      15.830  -3.119  -4.025  1.00  0.00     0.131 C 
HETATM   48  C1  UNL     1      16.806  -4.259  -3.841  1.00  0.00     0.024 C 
ENDBRANCH  46  47
ENDBRANCH  40  46
ENDBRANCH  37  38
ENDBRANCH  36  37
ENDBRANCH   1  36
BRANCH   5  49
HETATM   49  C25 UNL     1      14.425   0.184 -10.719  1.00  0.00    -0.025 A 
HETATM   50  C26 UNL     1      15.611   0.876 -10.941  1.00  0.00     0.014 A 
HETATM   51  C27 UNL     1      15.910   1.432 -12.172  1.00  0.00     0.037 A 
HETATM   52  C28 UNL     1      15.020   1.315 -13.237  1.00  0.00     0.102 A 
HETATM   53  C29 UNL     1      13.850   0.629 -13.010  1.00  0.00     0.037 A 
HETATM   54  C30 UNL     1      13.546   0.065 -11.766  1.00  0.00     0.014 A 
BRANCH  52  55
HETATM   55  N10 UNL     1      15.325   1.886 -14.513  1.00  0.00    -0.116 N 
HETATM   56  O3  UNL     1      15.980   2.932 -14.531  1.00  0.00    -0.532 OA
HETATM   57  O4  UNL     1      14.917   1.313 -15.684  1.00  0.00    -0.532 OA
ENDBRANCH  52  55
ENDBRANCH   5  49
TORSDOF 13
ENDMDL
MODEL 2
REMARK VINA RESULT: -10.451245035      1.201      1.943
REMARK  13 active torsions:
REMARK  status: ('A' for Active; 'I' for Inactive)
REMARK    1  A    between atoms: C2_2  and  N1_3 
REMARK    2  A    between atoms: N1_3  and  N2_4 
REMARK       I    between atoms: N2_4  and  C3_6 
REMARK       I    between atoms: C3_6  and  N4_10 
REMARK    3  A    between atoms: N4_10  and  C4_12 
REMARK    4  A    between atoms: C4_12  and  C5_13 
REMARK    5  A    between atoms: C5_13  and  N5_14 
REMARK    6  A    between atoms: C6_15  and  C7_16 
REMARK    7  A    between atoms: N6_17  and  N7_19 
REMARK    8  A    between atoms: N7_19  and  O1_21 
REMARK    9  A    between atoms: C8_23  and  S1_24 
REMARK   10  A    between atoms: S1_24  and  C9_25 
REMARK   11  A    between atoms: N9_36  and  C17_37 
REMARK   12  A    between atoms: C24_44  and  C25_45 
REMARK   13  A    between atoms: C28_48  and  N10_49 
ROOT
HETATM    1  N5  UNL     1      13.083   0.475  -6.480  1.00  0.00    -0.342 N 
HETATM    2  C6  UNL     1      13.109   1.697  -7.019  1.00  0.00     0.070 A 
HETATM    3  C8  UNL     1      13.608   1.640  -8.301  1.00  0.00     0.050 A 
HETATM    4  C23 UNL     1      13.902   0.320  -8.552  1.00  0.00     0.021 A 
HETATM    5  C24 UNL     1      14.402  -0.360  -9.627  1.00  0.00    -0.012 A 
HETATM    6  C31 UNL     1      14.564  -1.749  -9.552  1.00  0.00     0.013 A 
HETATM    7  C32 UNL     1      14.217  -2.407  -8.400  1.00  0.00     0.003 A 
HETATM    8  C33 UNL     1      13.715  -1.772  -7.299  1.00  0.00     0.030 A 
HETATM    9  C34 UNL     1      13.563  -0.405  -7.391  1.00  0.00     0.047 A 
ENDROOT
BRANCH   3  10
HETATM   10  S1  UNL     1      13.806   2.983  -9.399  1.00  0.00    -0.050 SA
BRANCH  10  11
HETATM   11  C9  UNL     1      12.508   4.217  -9.262  1.00  0.00     0.160 A 
HETATM   12  N8  UNL     1      12.726   5.396  -8.663  1.00  0.00    -0.335 N 
HETATM   13  C10 UNL     1      11.794   6.339  -8.544  1.00  0.00     0.050 A 
ATOM     14  H8  UNL     1      13.653   5.580  -8.279  1.00  0.00     0.168 HD
HETATM   15  C11 UNL     1      12.041   7.529  -7.935  1.00  0.00     0.030 A 
HETATM   16  C15 UNL     1      10.545   6.090  -9.063  1.00  0.00     0.059 A 
HETATM   17  C12 UNL     1      11.037   8.485  -7.838  1.00  0.00     0.002 A 
HETATM   18  C13 UNL     1       9.772   8.235  -8.362  1.00  0.00     0.001 A 
HETATM   19  C14 UNL     1       9.536   7.031  -8.974  1.00  0.00     0.019 A 
HETATM   20  C16 UNL     1      10.314   4.877  -9.681  1.00  0.00     0.266 A 
HETATM   21  O2  UNL     1       9.147   4.626 -10.173  1.00  0.00    -0.267 OA
HETATM   22  N9  UNL     1      11.295   3.978  -9.764  1.00  0.00    -0.258 N 
BRANCH  22  23
HETATM   23  C17 UNL     1      11.008   2.732 -10.394  1.00  0.00     0.044 A 
HETATM   24  C18 UNL     1      11.152   2.630 -11.759  1.00  0.00     0.030 A 
HETATM   25  C19 UNL     1      10.877   1.434 -12.386  1.00  0.00     0.002 A 
HETATM   26  C20 UNL     1      10.452   0.317 -11.669  1.00  0.00     0.000 A 
HETATM   27  C21 UNL     1      10.322   0.472 -10.292  1.00  0.00     0.002 A 
HETATM   28  C22 UNL     1      10.593   1.662  -9.644  1.00  0.00     0.030 A 
ENDBRANCH  22  23
ENDBRANCH  10  11
ENDBRANCH   3  10
BRANCH   2  29
HETATM   29  C7  UNL     1      12.681   2.908  -6.378  1.00  0.00     0.140 C 
HETATM   30  N6  UNL     1      13.437   3.509  -5.546  1.00  0.00    -0.290 N 
ATOM     31  H6  UNL     1      14.350   3.093  -5.359  1.00  0.00     0.188 HD
BRANCH  30  32
HETATM   32  N7  UNL     1      13.124   4.684  -4.871  1.00  0.00    -0.210 N 
ATOM     33  H7  UNL     1      12.755   4.648  -3.921  1.00  0.00     0.215 HD
BRANCH  32  34
HETATM   34  O1  UNL     1      13.312   5.882  -5.486  1.00  0.00    -0.274 OA
ATOM     35  H1  UNL     1      12.621   6.534  -5.466  1.00  0.00     0.246 HD
ENDBRANCH  32  34
ENDBRANCH  30  32
ENDBRANCH   2  29
BRANCH   1  36
HETATM   36  C5  UNL     1      12.625   0.121  -5.148  1.00  0.00     0.149 C 
BRANCH  36  37
HETATM   37  C4  UNL     1      13.662  -0.639  -4.355  1.00  0.00     0.158 C 
BRANCH  37  38
HETATM   38  N4  UNL     1      14.251   0.264  -3.388  1.00  0.00    -0.224 N 
HETATM   39  C3  UNL     1      15.502   0.891  -3.614  1.00  0.00     0.683 C 
HETATM   40  N2  UNL     1      15.888   1.497  -4.815  1.00  0.00    -0.137 N 
HETATM   41  N3  UNL     1      16.349   0.900  -2.631  1.00  0.00    -0.234 N 
ATOM     42  H2  UNL     1      15.694   0.999  -5.684  1.00  0.00     0.201 HD
ATOM     43  H32 UNL     1      17.250   1.352  -2.793  1.00  0.00     0.174 HD
ATOM     44  H31 UNL     1      16.068   0.459  -1.755  1.00  0.00     0.174 HD
ATOM     45  H4  UNL     1      13.752   0.454  -2.519  1.00  0.00     0.177 HD
BRANCH  40  46
HETATM   46  N1  UNL     1      16.522   2.739  -4.900  1.00  0.00    -0.127 NA
BRANCH  46  47
HETATM   47  C2  UNL     1      17.437   2.845  -6.007  1.00  0.00     0.131 C 
HETATM   48  C1  UNL     1      16.634   3.258  -7.221  1.00  0.00     0.024 C 
ENDBRANCH  46  47
ENDBRANCH  40  46
ENDBRANCH  37  38
ENDBRANCH  36  37
ENDBRANCH   1  36
BRANCH   5  49
HETATM   49  C25 UNL     1      14.831   0.311 -10.834  1.00  0.00    -0.025 A 
HETATM   50  C26 UNL     1      16.053   0.975 -10.808  1.00  0.00     0.014 A 
HETATM   51  C27 UNL     1      16.517   1.691 -11.896  1.00  0.00     0.037 A 
HETATM   52  C28 UNL     1      15.764   1.770 -13.065  1.00  0.00     0.102 A 
HETATM   53  C29 UNL     1      14.557   1.110 -13.084  1.00  0.00     0.037 A 
HETATM   54  C30 UNL     1      14.087   0.385 -11.985  1.00  0.00     0.014 A 
BRANCH  52  55
HETATM   55  N10 UNL     1      16.240   2.507 -14.195  1.00  0.00    -0.116 N 
HETATM   56  O3  UNL     1      17.453   2.480 -14.428  1.00  0.00    -0.532 OA
HETATM   57  O4  UNL     1      15.403   3.223 -15.003  1.00  0.00    -0.532 OA
ENDBRANCH  52  55
ENDBRANCH   5  49
TORSDOF 13
ENDMDL
MODEL 3
REMARK VINA RESULT: -9.898530696      2.674      7.642
REMARK  13 active torsions:
REMARK  status: ('A' for Active; 'I' for Inactive)
REMARK    1  A    between atoms: C2_2  and  N1_3 
REMARK    2  A    between atoms: N1_3  and  N2_4 
REMARK       I    between atoms: N2_4  and  C3_6 
REMARK       I    between atoms: C3_6  and  N4_10 
REMARK    3  A    between atoms: N4_10  and  C4_12 
REMARK    4  A    between atoms: C4_12  and  C5_13 
REMARK    5  A    between atoms: C5_13  and  N5_14 
REMARK    6  A    between atoms: C6_15  and  C7_16 
REMARK    7  A    between atoms: N6_17  and  N7_19 
REMARK    8  A    between atoms: N7_19  and  O1_21 
REMARK    9  A    between atoms: C8_23  and  S1_24 
REMARK   10  A    between atoms: S1_24  and  C9_25 
REMARK   11  A    between atoms: N9_36  and  C17_37 
REMARK   12  A    between atoms: C24_44  and  C25_45 
REMARK   13  A    between atoms: C28_48  and  N10_49 
ROOT
HETATM    1  N5  UNL     1      11.065   4.404 -10.739  1.00  0.00    -0.342 N 
HETATM    2  C6  UNL     1      12.068   4.056  -9.929  1.00  0.00     0.070 A 
HETATM    3  C8  UNL     1      12.960   3.246 -10.597  1.00  0.00     0.050 A 
HETATM    4  C23 UNL     1      12.474   3.093 -11.875  1.00  0.00     0.021 A 
HETATM    5  C24 UNL     1      12.907   2.430 -12.988  1.00  0.00    -0.012 A 
HETATM    6  C31 UNL     1      12.157   2.500 -14.170  1.00  0.00     0.013 A 
HETATM    7  C32 UNL     1      10.999   3.235 -14.191  1.00  0.00     0.003 A 
HETATM    8  C33 UNL     1      10.525   3.913 -13.104  1.00  0.00     0.030 A 
HETATM    9  C34 UNL     1      11.276   3.833 -11.950  1.00  0.00     0.047 A 
ENDROOT
BRANCH   3  10
HETATM   10  S1  UNL     1      14.432   2.567  -9.949  1.00  0.00    -0.050 SA
BRANCH  10  11
HETATM   11  C9  UNL     1      14.244   1.894  -8.295  1.00  0.00     0.160 A 
HETATM   12  N8  UNL     1      15.114   2.187  -7.319  1.00  0.00    -0.335 N 
HETATM   13  C10 UNL     1      15.010   1.712  -6.079  1.00  0.00     0.050 A 
ATOM     14  H8  UNL     1      15.896   2.804  -7.536  1.00  0.00     0.168 HD
HETATM   15  C11 UNL     1      15.904   2.027  -5.105  1.00  0.00     0.030 A 
HETATM   16  C15 UNL     1      13.954   0.881  -5.787  1.00  0.00     0.059 A 
HETATM   17  C12 UNL     1      15.751   1.511  -3.824  1.00  0.00     0.002 A 
HETATM   18  C13 UNL     1      14.684   0.668  -3.526  1.00  0.00     0.001 A 
HETATM   19  C14 UNL     1      13.789   0.360  -4.517  1.00  0.00     0.019 A 
HETATM   20  C16 UNL     1      13.054   0.575  -6.788  1.00  0.00     0.266 A 
HETATM   21  O2  UNL     1      12.058  -0.205  -6.531  1.00  0.00    -0.267 OA
HETATM   22  N9  UNL     1      13.222   1.086  -8.008  1.00  0.00    -0.258 N 
BRANCH  22  23
HETATM   23  C17 UNL     1      12.280   0.730  -9.017  1.00  0.00     0.044 A 
HETATM   24  C18 UNL     1      11.016   1.275  -8.968  1.00  0.00     0.030 A 
HETATM   25  C19 UNL     1      10.091   0.941  -9.932  1.00  0.00     0.002 A 
HETATM   26  C20 UNL     1      10.403   0.057 -10.964  1.00  0.00     0.000 A 
HETATM   27  C21 UNL     1      11.692  -0.467 -10.969  1.00  0.00     0.002 A 
HETATM   28  C22 UNL     1      12.635  -0.144 -10.011  1.00  0.00     0.030 A 
ENDBRANCH  22  23
ENDBRANCH  10  11
ENDBRANCH   3  10
BRANCH   2  29
HETATM   29  C7  UNL     1      12.219   4.457  -8.559  1.00  0.00     0.140 C 
HETATM   30  N6  UNL     1      13.090   5.325  -8.224  1.00  0.00    -0.290 N 
ATOM     31  H6  UNL     1      13.669   5.716  -8.967  1.00  0.00     0.188 HD
BRANCH  30  32
HETATM   32  N7  UNL     1      13.318   5.784  -6.931  1.00  0.00    -0.210 N 
ATOM     33  H7  UNL     1      14.151   5.490  -6.421  1.00  0.00     0.215 HD
BRANCH  32  34
HETATM   34  O1  UNL     1      12.424   6.628  -6.350  1.00  0.00    -0.274 OA
ATOM     35  H1  UNL     1      12.233   6.545  -5.423  1.00  0.00     0.246 HD
ENDBRANCH  32  34
ENDBRANCH  30  32
ENDBRANCH   2  29
BRANCH   1  36
HETATM   36  C5  UNL     1       9.931   5.248 -10.408  1.00  0.00     0.149 C 
BRANCH  36  37
HETATM   37  C4  UNL     1      10.322   6.686 -10.169  1.00  0.00     0.158 C 
BRANCH  37  38
HETATM   38  N4  UNL     1      11.137   7.131 -11.280  1.00  0.00    -0.224 N 
HETATM   39  C3  UNL     1      10.578   7.790 -12.403  1.00  0.00     0.683 C 
HETATM   40  N2  UNL     1       9.630   8.818 -12.338  1.00  0.00    -0.137 N 
HETATM   41  N3  UNL     1      10.977   7.406 -13.577  1.00  0.00    -0.234 N 
ATOM     42  H2  UNL     1       8.846   8.704 -11.696  1.00  0.00     0.201 HD
ATOM     43  H32 UNL     1      10.575   7.880 -14.386  1.00  0.00     0.174 HD
ATOM     44  H31 UNL     1      11.668   6.658 -13.625  1.00  0.00     0.174 HD
ATOM     45  H4  UNL     1      12.143   6.966 -11.253  1.00  0.00     0.177 HD
BRANCH  40  46
HETATM   46  N1  UNL     1       9.690   9.989 -13.097  1.00  0.00    -0.127 NA
BRANCH  46  47
HETATM   47  C2  UNL     1       9.429  11.183 -12.335  1.00  0.00     0.131 C 
HETATM   48  C1  UNL     1       9.435  10.797 -10.872  1.00  0.00     0.024 C 
ENDBRANCH  46  47
ENDBRANCH  40  46
ENDBRANCH  37  38
ENDBRANCH  36  37
ENDBRANCH   1  36
BRANCH   5  49
HETATM   49  C25 UNL     1      14.091   1.600 -12.982  1.00  0.00    -0.025 A 
HETATM   50  C26 UNL     1      15.313   2.212 -13.242  1.00  0.00     0.014 A 
HETATM   51  C27 UNL     1      16.489   1.489 -13.313  1.00  0.00     0.037 A 
HETATM   52  C28 UNL     1      16.486   0.109 -13.124  1.00  0.00     0.102 A 
HETATM   53  C29 UNL     1      15.274  -0.489 -12.867  1.00  0.00     0.037 A 
HETATM   54  C30 UNL     1      14.083   0.241 -12.794  1.00  0.00     0.014 A 
BRANCH  52  55
HETATM   55  N10 UNL     1      17.700  -0.644 -13.194  1.00  0.00    -0.116 N 
HETATM   56  O3  UNL     1      17.776  -1.673 -12.516  1.00  0.00    -0.532 OA
HETATM   57  O4  UNL     1      18.752  -0.259 -13.975  1.00  0.00    -0.532 OA
ENDBRANCH  52  55
ENDBRANCH   5  49
TORSDOF 13
ENDMDL
MODEL 4
REMARK VINA RESULT: -9.887893927      1.541      1.965
REMARK  13 active torsions:
REMARK  status: ('A' for Active; 'I' for Inactive)
REMARK    1  A    between atoms: C2_2  and  N1_3 
REMARK    2  A    between atoms: N1_3  and  N2_4 
REMARK       I    between atoms: N2_4  and  C3_6 
REMARK       I    between atoms: C3_6  and  N4_10 
REMARK    3  A    between atoms: N4_10  and  C4_12 
REMARK    4  A    between atoms: C4_12  and  C5_13 
REMARK    5  A    between atoms: C5_13  and  N5_14 
REMARK    6  A    between atoms: C6_15  and  C7_16 
REMARK    7  A    between atoms: N6_17  and  N7_19 
REMARK    8  A    between atoms: N7_19  and  O1_21 
REMARK    9  A    between atoms: C8_23  and  S1_24 
REMARK   10  A    between atoms: S1_24  and  C9_25 
REMARK   11  A    between atoms: N9_36  and  C17_37 
REMARK   12  A    between atoms: C24_44  and  C25_45 
REMARK   13  A    between atoms: C28_48  and  N10_49 
ROOT
HETATM    1  N5  UNL     1      13.207   0.739  -6.452  1.00  0.00    -0.342 N 
HETATM    2  C6  UNL     1      13.194   1.932  -7.053  1.00  0.00     0.070 A 
HETATM    3  C8  UNL     1      13.608   1.810  -8.361  1.00  0.00     0.050 A 
HETATM    4  C23 UNL     1      13.886   0.478  -8.564  1.00  0.00     0.021 A 
HETATM    5  C24 UNL     1      14.315  -0.255  -9.634  1.00  0.00    -0.012 A 
HETATM    6  C31 UNL     1      14.484  -1.640  -9.501  1.00  0.00     0.013 A 
HETATM    7  C32 UNL     1      14.216  -2.238  -8.296  1.00  0.00     0.003 A 
HETATM    8  C33 UNL     1      13.787  -1.548  -7.197  1.00  0.00     0.030 A 
HETATM    9  C34 UNL     1      13.627  -0.187  -7.348  1.00  0.00     0.047 A 
ENDROOT
BRANCH   3  10
HETATM   10  S1  UNL     1      13.729   3.096  -9.536  1.00  0.00    -0.050 SA
BRANCH  10  11
HETATM   11  C9  UNL     1      12.447   4.341  -9.370  1.00  0.00     0.160 A 
HETATM   12  N8  UNL     1      12.698   5.530  -8.804  1.00  0.00    -0.335 N 
HETATM   13  C10 UNL     1      11.777   6.482  -8.665  1.00  0.00     0.050 A 
ATOM     14  H8  UNL     1      13.641   5.715  -8.463  1.00  0.00     0.168 HD
HETATM   15  C11 UNL     1      12.058   7.682  -8.090  1.00  0.00     0.030 A 
HETATM   16  C15 UNL     1      10.507   6.233  -9.126  1.00  0.00     0.059 A 
HETATM   17  C12 UNL     1      11.065   8.648  -7.972  1.00  0.00     0.002 A 
HETATM   18  C13 UNL     1       9.777   8.397  -8.436  1.00  0.00     0.001 A 
HETATM   19  C14 UNL     1       9.509   7.183  -9.014  1.00  0.00     0.019 A 
HETATM   20  C16 UNL     1      10.242   5.009  -9.710  1.00  0.00     0.266 A 
HETATM   21  O2  UNL     1       9.054   4.758 -10.147  1.00  0.00    -0.267 OA
HETATM   22  N9  UNL     1      11.212   4.102  -9.815  1.00  0.00    -0.258 N 
BRANCH  22  23
HETATM   23  C17 UNL     1      10.891   2.846 -10.407  1.00  0.00     0.044 A 
HETATM   24  C18 UNL     1      10.922   2.731 -11.779  1.00  0.00     0.030 A 
HETATM   25  C19 UNL     1      10.612   1.526 -12.370  1.00  0.00     0.002 A 
HETATM   26  C20 UNL     1      10.264   0.411 -11.610  1.00  0.00     0.000 A 
HETATM   27  C21 UNL     1      10.247   0.578 -10.229  1.00  0.00     0.002 A 
HETATM   28  C22 UNL     1      10.555   1.778  -9.616  1.00  0.00     0.030 A 
ENDBRANCH  22  23
ENDBRANCH  10  11
ENDBRANCH   3  10
BRANCH   2  29
HETATM   29  C7  UNL     1      12.808   3.174  -6.446  1.00  0.00     0.140 C 
HETATM   30  N6  UNL     1      13.486   3.672  -5.489  1.00  0.00    -0.290 N 
ATOM     31  H6  UNL     1      14.306   3.152  -5.177  1.00  0.00     0.188 HD
BRANCH  30  32
HETATM   32  N7  UNL     1      13.203   4.866  -4.833  1.00  0.00    -0.210 N 
ATOM     33  H7  UNL     1      13.205   4.904  -3.814  1.00  0.00     0.215 HD
BRANCH  32  34
HETATM   34  O1  UNL     1      12.923   5.981  -5.558  1.00  0.00    -0.274 OA
ATOM     35  H1  UNL     1      13.521   6.258  -6.243  1.00  0.00     0.246 HD
ENDBRANCH  32  34
ENDBRANCH  30  32
ENDBRANCH   2  29
BRANCH   1  36
HETATM   36  C5  UNL     1      12.839   0.453  -5.077  1.00  0.00     0.149 C 
BRANCH  36  37
HETATM   37  C4  UNL     1      13.109  -0.980  -4.685  1.00  0.00     0.158 C 
BRANCH  37  38
HETATM   38  N4  UNL     1      14.030  -0.984  -3.567  1.00  0.00    -0.224 N 
HETATM   39  C3  UNL     1      13.860  -0.125  -2.453  1.00  0.00     0.683 C 
HETATM   40  N2  UNL     1      12.645   0.105  -1.798  1.00  0.00    -0.137 N 
HETATM   41  N3  UNL     1      14.913   0.494  -2.013  1.00  0.00    -0.234 N 
ATOM     42  H2  UNL     1      11.817   0.267  -2.371  1.00  0.00     0.201 HD
ATOM     43  H32 UNL     1      14.790   1.113  -1.211  1.00  0.00     0.174 HD
ATOM     44  H31 UNL     1      15.798   0.327  -2.490  1.00  0.00     0.174 HD
ATOM     45  H4  UNL     1      14.824  -1.624  -3.582  1.00  0.00     0.177 HD
BRANCH  40  46
HETATM   46  N1  UNL     1      12.494   0.126  -0.409  1.00  0.00    -0.127 NA
BRANCH  46  47
HETATM   47  C2  UNL     1      11.189  -0.294   0.035  1.00  0.00     0.131 C 
HETATM   48  C1  UNL     1      11.199  -0.275   1.548  1.00  0.00     0.024 C 
ENDBRANCH  46  47
ENDBRANCH  40  46
ENDBRANCH  37  38
ENDBRANCH  36  37
ENDBRANCH   1  36
BRANCH   5  49
HETATM   49  C25 UNL     1      14.662   0.353 -10.900  1.00  0.00    -0.025 A 
HETATM   50  C26 UNL     1      15.893   0.994 -10.995  1.00  0.00     0.014 A 
HETATM   51  C27 UNL     1      16.284   1.652 -12.146  1.00  0.00     0.037 A 
HETATM   52  C28 UNL     1      15.446   1.694 -13.259  1.00  0.00     0.102 A 
HETATM   53  C29 UNL     1      14.231   1.058 -13.157  1.00  0.00     0.037 A 
HETATM   54  C30 UNL     1      13.833   0.391 -11.993  1.00  0.00     0.014 A 
BRANCH  52  55
HETATM   55  N10 UNL     1      15.846   2.371 -14.453  1.00  0.00    -0.116 N 
HETATM   56  O3  UNL     1      17.029   2.278 -14.796  1.00  0.00    -0.532 OA
HETATM   57  O4  UNL     1      14.971   3.101 -15.206  1.00  0.00    -0.532 OA
ENDBRANCH  52  55
ENDBRANCH   5  49
TORSDOF 13
ENDMDL
MODEL 5
REMARK VINA RESULT: -9.723073562      3.797      7.801
REMARK  13 active torsions:
REMARK  status: ('A' for Active; 'I' for Inactive)
REMARK    1  A    between atoms: C2_2  and  N1_3 
REMARK    2  A    between atoms: N1_3  and  N2_4 
REMARK       I    between atoms: N2_4  and  C3_6 
REMARK       I    between atoms: C3_6  and  N4_10 
REMARK    3  A    between atoms: N4_10  and  C4_12 
REMARK    4  A    between atoms: C4_12  and  C5_13 
REMARK    5  A    between atoms: C5_13  and  N5_14 
REMARK    6  A    between atoms: C6_15  and  C7_16 
REMARK    7  A    between atoms: N6_17  and  N7_19 
REMARK    8  A    between atoms: N7_19  and  O1_21 
REMARK    9  A    between atoms: C8_23  and  S1_24 
REMARK   10  A    between atoms: S1_24  and  C9_25 
REMARK   11  A    between atoms: N9_36  and  C17_37 
REMARK   12  A    between atoms: C24_44  and  C25_45 
REMARK   13  A    between atoms: C28_48  and  N10_49 
ROOT
HETATM    1  N5  UNL     1      12.697   2.407 -10.842  1.00  0.00    -0.342 N 
HETATM    2  C6  UNL     1      12.899   2.570 -12.153  1.00  0.00     0.070 A 
HETATM    3  C8  UNL     1      13.722   1.576 -12.633  1.00  0.00     0.050 A 
HETATM    4  C23 UNL     1      14.036   0.771 -11.563  1.00  0.00     0.021 A 
HETATM    5  C24 UNL     1      14.788  -0.360 -11.406  1.00  0.00    -0.012 A 
HETATM    6  C31 UNL     1      14.886  -0.955 -10.141  1.00  0.00     0.013 A 
HETATM    7  C32 UNL     1      14.225  -0.393  -9.079  1.00  0.00     0.003 A 
HETATM    8  C33 UNL     1      13.464   0.738  -9.185  1.00  0.00     0.030 A 
HETATM    9  C34 UNL     1      13.380   1.309 -10.437  1.00  0.00     0.047 A 
ENDROOT
BRANCH   3  10
HETATM   10  S1  UNL     1      14.243   1.369 -14.287  1.00  0.00    -0.050 SA
BRANCH  10  11
HETATM   11  C9  UNL     1      15.815   2.158 -14.648  1.00  0.00     0.160 A 
HETATM   12  N8  UNL     1      16.772   2.266 -13.715  1.00  0.00    -0.335 N 
HETATM   13  C10 UNL     1      17.952   2.840 -13.942  1.00  0.00     0.050 A 
ATOM     14  H8  UNL     1      16.587   1.889 -12.786  1.00  0.00     0.168 HD
HETATM   15  C11 UNL     1      18.908   2.934 -12.980  1.00  0.00     0.030 A 
HETATM   16  C15 UNL     1      18.200   3.346 -15.195  1.00  0.00     0.059 A 
HETATM   17  C12 UNL     1      20.127   3.537 -13.264  1.00  0.00     0.002 A 
HETATM   18  C13 UNL     1      20.380   4.052 -14.533  1.00  0.00     0.001 A 
HETATM   19  C14 UNL     1      19.407   3.950 -15.493  1.00  0.00     0.019 A 
HETATM   20  C16 UNL     1      17.218   3.239 -16.160  1.00  0.00     0.266 A 
HETATM   21  O2  UNL     1      17.434   3.710 -17.342  1.00  0.00    -0.267 OA
HETATM   22  N9  UNL     1      16.059   2.652 -15.863  1.00  0.00    -0.258 N 
BRANCH  22  23
HETATM   23  C17 UNL     1      15.066   2.578 -16.883  1.00  0.00     0.044 A 
HETATM   24  C18 UNL     1      15.049   1.482 -17.716  1.00  0.00     0.030 A 
HETATM   25  C19 UNL     1      14.099   1.395 -18.709  1.00  0.00     0.002 A 
HETATM   26  C20 UNL     1      13.147   2.396 -18.896  1.00  0.00     0.000 A 
HETATM   27  C21 UNL     1      13.206   3.482 -18.029  1.00  0.00     0.002 A 
HETATM   28  C22 UNL     1      14.150   3.589 -17.026  1.00  0.00     0.030 A 
ENDBRANCH  22  23
ENDBRANCH  10  11
ENDBRANCH   3  10
BRANCH   2  29
HETATM   29  C7  UNL     1      12.349   3.618 -12.964  1.00  0.00     0.140 C 
HETATM   30  N6  UNL     1      11.284   4.225 -12.613  1.00  0.00    -0.290 N 
ATOM     31  H6  UNL     1      10.846   3.933 -11.739  1.00  0.00     0.188 HD
BRANCH  30  32
HETATM   32  N7  UNL     1      10.668   5.252 -13.321  1.00  0.00    -0.210 N 
ATOM     33  H7  UNL     1       9.983   5.037 -14.045  1.00  0.00     0.215 HD
BRANCH  32  34
HETATM   34  O1  UNL     1      10.984   6.544 -13.042  1.00  0.00    -0.274 OA
ATOM     35  H1  UNL     1      11.403   7.079 -13.706  1.00  0.00     0.246 HD
ENDBRANCH  32  34
ENDBRANCH  30  32
ENDBRANCH   2  29
BRANCH   1  36
HETATM   36  C5  UNL     1      11.890   3.247  -9.975  1.00  0.00     0.149 C 
BRANCH  36  37
HETATM   37  C4  UNL     1      12.667   4.398  -9.385  1.00  0.00     0.158 C 
BRANCH  37  38
HETATM   38  N4  UNL     1      12.219   4.606  -8.024  1.00  0.00    -0.224 N 
HETATM   39  C3  UNL     1      12.190   5.893  -7.432  1.00  0.00     0.683 C 
HETATM   40  N2  UNL     1      11.701   7.048  -8.054  1.00  0.00    -0.137 N 
HETATM   41  N3  UNL     1      12.653   6.004  -6.225  1.00  0.00    -0.234 N 
ATOM     42  H2  UNL     1      11.974   7.221  -9.022  1.00  0.00     0.201 HD
ATOM     43  H32 UNL     1      12.632   6.931  -5.799  1.00  0.00     0.174 HD
ATOM     44  H31 UNL     1      13.009   5.163  -5.772  1.00  0.00     0.174 HD
ATOM     45  H4  UNL     1      11.915   3.802  -7.474  1.00  0.00     0.177 HD
BRANCH  40  46
HETATM   46  N1  UNL     1      10.866   7.980  -7.434  1.00  0.00    -0.127 NA
BRANCH  46  47
HETATM   47  C2  UNL     1      10.068   8.744  -8.358  1.00  0.00     0.131 C 
HETATM   48  C1  UNL     1      10.964   9.803  -8.962  1.00  0.00     0.024 C 
ENDBRANCH  46  47
ENDBRANCH  40  46
ENDBRANCH  37  38
ENDBRANCH  36  37
ENDBRANCH   1  36
BRANCH   5  49
HETATM   49  C25 UNL     1      15.542  -0.943 -12.493  1.00  0.00    -0.025 A 
HETATM   50  C26 UNL     1      16.926  -0.805 -12.469  1.00  0.00     0.014 A 
HETATM   51  C27 UNL     1      17.724  -1.280 -13.493  1.00  0.00     0.037 A 
HETATM   52  C28 UNL     1      17.157  -1.919 -14.594  1.00  0.00     0.102 A 
HETATM   53  C29 UNL     1      15.789  -2.053 -14.611  1.00  0.00     0.037 A 
HETATM   54  C30 UNL     1      14.980  -1.573 -13.575  1.00  0.00     0.014 A 
BRANCH  52  55
HETATM   55  N10 UNL     1      17.978  -2.415 -15.656  1.00  0.00    -0.116 N 
HETATM   56  O3  UNL     1      17.659  -3.492 -16.171  1.00  0.00    -0.532 OA
HETATM   57  O4  UNL     1      19.079  -1.742 -16.102  1.00  0.00    -0.532 OA
ENDBRANCH  52  55
ENDBRANCH   5  49
TORSDOF 13
ENDMDL
