MODEL 1
REMARK VINA RESULT: -7.475164801      0.000      0.000
REMARK  7 active torsions:
REMARK  status: ('A' for Active; 'I' for Inactive)
REMARK    1  A    between atoms: C6_9  and  N3_10 
REMARK    2  A    between atoms: N4_13  and  C9_14 
REMARK    3  A    between atoms: C9_14  and  N5_16 
REMARK    4  A    between atoms: N5_16  and  C10_18 
REMARK    5  A    between atoms: C10_18  and  C11_19 
REMARK    6  A    between atoms: C11_19  and  N6_20 
REMARK    7  A    between atoms: N6_20  and  N7_21 
ROOT
HETATM    1  N3  UNL     1      38.543   6.206  48.981  1.00  0.00    -0.374 N 
HETATM    2  C7  UNL     1      39.335   6.802  47.919  1.00  0.00     0.143 C 
HETATM    3  C8  UNL     1      38.467   7.082  46.668  1.00  0.00     0.145 C 
HETATM    4  N4  UNL     1      38.060   5.777  46.198  1.00  0.00    -0.355 N 
HETATM    5  C12 UNL     1      37.419   4.932  47.162  1.00  0.00     0.145 C 
HETATM    6  C13 UNL     1      37.350   5.499  48.558  1.00  0.00     0.143 C 
ENDROOT
BRANCH   4   7
HETATM    7  C9  UNL     1      38.269   5.320  44.874  1.00  0.00     0.170 C 
HETATM    8  S1  UNL     1      39.259   6.116  43.844  1.00  0.00    -0.041 SA
BRANCH   7   9
HETATM    9  N5  UNL     1      37.616   4.148  44.407  1.00  0.00    -0.361 N 
ATOM     10  H5  UNL     1      36.602   4.153  44.297  1.00  0.00     0.162 HD
BRANCH   9  11
HETATM   11  C10 UNL     1      38.365   2.934  44.079  1.00  0.00     0.183 C 
BRANCH  11  12
HETATM   12  C11 UNL     1      38.906   2.284  45.289  1.00  0.00     0.200 C 
BRANCH  12  13
HETATM   13  N6  UNL     1      38.123   1.631  46.017  1.00  0.00    -0.348 NA
BRANCH  13  14
HETATM   14  N7  UNL     1      37.437   1.178  46.940  1.00  0.00    -0.281 N 
ATOM     15  H72 UNL     1      37.888   1.787  47.623  1.00  0.00     0.191 HD
ATOM     16  H71 UNL     1      36.776   0.667  47.526  1.00  0.00     0.191 HD
ENDBRANCH  13  14
ENDBRANCH  12  13
ENDBRANCH  11  12
ENDBRANCH   9  11
ENDBRANCH   7   9
ENDBRANCH   4   7
BRANCH   1  17
HETATM   17  C6  UNL     1      38.945   6.286  50.351  1.00  0.00     0.078 A 
HETATM   18  C2  UNL     1      39.991   5.573  50.893  1.00  0.00     0.050 A 
HETATM   19  C1  UNL     1      40.912   4.568  50.367  1.00  0.00     0.072 C 
HETATM   20  N1  UNL     1      40.075   5.966  52.206  1.00  0.00    -0.301 N 
HETATM   21  N2  UNL     1      39.180   6.847  52.509  1.00  0.00    -0.299 N 
ATOM     22  H1  UNL     1      40.764   5.604  52.865  1.00  0.00     0.187 HD
HETATM   23  C3  UNL     1      38.947   7.502  53.795  1.00  0.00     0.177 C 
HETATM   24  C4  UNL     1      38.463   7.065  51.371  1.00  0.00     0.052 A 
HETATM   25  C5  UNL     1      37.365   8.025  51.317  1.00  0.00     0.072 C 
ENDBRANCH   1  17
TORSDOF 7
ENDMDL
MODEL 2
REMARK VINA RESULT: -7.219823418      1.678      2.080
REMARK  7 active torsions:
REMARK  status: ('A' for Active; 'I' for Inactive)
REMARK    1  A    between atoms: C6_9  and  N3_10 
REMARK    2  A    between atoms: N4_13  and  C9_14 
REMARK    3  A    between atoms: C9_14  and  N5_16 
REMARK    4  A    between atoms: N5_16  and  C10_18 
REMARK    5  A    between atoms: C10_18  and  C11_19 
REMARK    6  A    between atoms: C11_19  and  N6_20 
REMARK    7  A    between atoms: N6_20  and  N7_21 
ROOT
HETATM    1  N3  UNL     1      38.525   6.016  48.442  1.00  0.00    -0.374 N 
HETATM    2  C7  UNL     1      39.458   6.429  47.408  1.00  0.00     0.143 C 
HETATM    3  C8  UNL     1      38.737   6.620  46.051  1.00  0.00     0.145 C 
HETATM    4  N4  UNL     1      38.273   5.300  45.687  1.00  0.00    -0.355 N 
HETATM    5  C12 UNL     1      37.480   4.617  46.667  1.00  0.00     0.145 C 
HETATM    6  C13 UNL     1      37.325   5.347  47.978  1.00  0.00     0.143 C 
ENDROOT
BRANCH   4   7
HETATM    7  C9  UNL     1      38.570   4.679  44.449  1.00  0.00     0.170 C 
HETATM    8  S1  UNL     1      38.614   5.534  43.056  1.00  0.00    -0.041 SA
BRANCH   7   9
HETATM    9  N5  UNL     1      38.837   3.285  44.391  1.00  0.00    -0.361 N 
ATOM     10  H5  UNL     1      38.103   2.649  44.080  1.00  0.00     0.162 HD
BRANCH   9  11
HETATM   11  C10 UNL     1      40.144   2.740  44.765  1.00  0.00     0.183 C 
BRANCH  11  12
HETATM   12  C11 UNL     1      41.245   3.441  44.074  1.00  0.00     0.200 C 
BRANCH  12  13
HETATM   13  N6  UNL     1      41.884   4.316  44.702  1.00  0.00    -0.348 NA
BRANCH  13  14
HETATM   14  N7  UNL     1      42.419   5.354  45.106  1.00  0.00    -0.281 N 
ATOM     15  H72 UNL     1      41.517   5.815  45.229  1.00  0.00     0.191 HD
ATOM     16  H71 UNL     1      43.064   6.086  45.405  1.00  0.00     0.191 HD
ENDBRANCH  13  14
ENDBRANCH  12  13
ENDBRANCH  11  12
ENDBRANCH   9  11
ENDBRANCH   7   9
ENDBRANCH   4   7
BRANCH   1  17
HETATM   17  C6  UNL     1      38.801   6.227  49.828  1.00  0.00     0.078 A 
HETATM   18  C2  UNL     1      39.822   5.609  50.516  1.00  0.00     0.050 A 
HETATM   19  C1  UNL     1      40.823   4.606  50.160  1.00  0.00     0.072 C 
HETATM   20  N1  UNL     1      39.775   6.112  51.793  1.00  0.00    -0.301 N 
HETATM   21  N2  UNL     1      38.824   6.974  51.942  1.00  0.00    -0.299 N 
ATOM     22  H1  UNL     1      40.417   5.838  52.537  1.00  0.00     0.187 HD
HETATM   23  C3  UNL     1      38.454   7.722  53.143  1.00  0.00     0.177 C 
HETATM   24  C4  UNL     1      38.202   7.065  50.733  1.00  0.00     0.052 A 
HETATM   25  C5  UNL     1      37.078   7.966  50.504  1.00  0.00     0.072 C 
ENDBRANCH   1  17
TORSDOF 7
ENDMDL
MODEL 3
REMARK VINA RESULT: -7.052437654      1.807      2.569
REMARK  7 active torsions:
REMARK  status: ('A' for Active; 'I' for Inactive)
REMARK    1  A    between atoms: C6_9  and  N3_10 
REMARK    2  A    between atoms: N4_13  and  C9_14 
REMARK    3  A    between atoms: C9_14  and  N5_16 
REMARK    4  A    between atoms: N5_16  and  C10_18 
REMARK    5  A    between atoms: C10_18  and  C11_19 
REMARK    6  A    between atoms: C11_19  and  N6_20 
REMARK    7  A    between atoms: N6_20  and  N7_21 
ROOT
HETATM    1  N3  UNL     1      38.639   6.459  48.649  1.00  0.00    -0.374 N 
HETATM    2  C7  UNL     1      39.243   5.155  48.433  1.00  0.00     0.143 C 
HETATM    3  C8  UNL     1      40.528   5.272  47.576  1.00  0.00     0.145 C 
HETATM    4  N4  UNL     1      40.073   5.736  46.285  1.00  0.00    -0.355 N 
HETATM    5  C12 UNL     1      39.276   6.928  46.287  1.00  0.00     0.145 C 
HETATM    6  C13 UNL     1      38.951   7.471  47.657  1.00  0.00     0.143 C 
ENDROOT
BRANCH   4   7
HETATM    7  C9  UNL     1      40.369   5.077  45.067  1.00  0.00     0.170 C 
HETATM    8  S1  UNL     1      41.879   4.551  44.727  1.00  0.00    -0.041 SA
BRANCH   7   9
HETATM    9  N5  UNL     1      39.349   4.856  44.104  1.00  0.00    -0.361 N 
ATOM     10  H5  UNL     1      39.364   5.384  43.231  1.00  0.00     0.162 HD
BRANCH   9  11
HETATM   11  C10 UNL     1      38.275   3.888  44.334  1.00  0.00     0.183 C 
BRANCH  11  12
HETATM   12  C11 UNL     1      38.787   2.637  44.928  1.00  0.00     0.200 C 
BRANCH  12  13
HETATM   13  N6  UNL     1      38.129   2.098  45.847  1.00  0.00    -0.348 NA
BRANCH  13  14
HETATM   14  N7  UNL     1      37.738   1.560  46.889  1.00  0.00    -0.281 N 
ATOM     15  H72 UNL     1      38.198   2.264  47.467  1.00  0.00     0.191 HD
ATOM     16  H71 UNL     1      37.315   0.959  47.596  1.00  0.00     0.191 HD
ENDBRANCH  13  14
ENDBRANCH  12  13
ENDBRANCH  11  12
ENDBRANCH   9  11
ENDBRANCH   7   9
ENDBRANCH   4   7
BRANCH   1  17
HETATM   17  C6  UNL     1      37.764   6.707  49.751  1.00  0.00     0.078 A 
HETATM   18  C2  UNL     1      36.397   6.554  49.703  1.00  0.00     0.050 A 
HETATM   19  C1  UNL     1      35.454   6.193  48.647  1.00  0.00     0.072 C 
HETATM   20  N1  UNL     1      35.940   6.843  50.965  1.00  0.00    -0.301 N 
HETATM   21  N2  UNL     1      36.900   7.156  51.771  1.00  0.00    -0.299 N 
ATOM     22  H1  UNL     1      34.957   6.813  51.235  1.00  0.00     0.187 HD
HETATM   23  C3  UNL     1      36.818   7.526  53.183  1.00  0.00     0.177 C 
HETATM   24  C4  UNL     1      38.048   7.079  51.040  1.00  0.00     0.052 A 
HETATM   25  C5  UNL     1      39.358   7.347  51.623  1.00  0.00     0.072 C 
ENDBRANCH   1  17
TORSDOF 7
ENDMDL
MODEL 4
REMARK VINA RESULT: -7.022602747      1.783      2.074
REMARK  7 active torsions:
REMARK  status: ('A' for Active; 'I' for Inactive)
REMARK    1  A    between atoms: C6_9  and  N3_10 
REMARK    2  A    between atoms: N4_13  and  C9_14 
REMARK    3  A    between atoms: C9_14  and  N5_16 
REMARK    4  A    between atoms: N5_16  and  C10_18 
REMARK    5  A    between atoms: C10_18  and  C11_19 
REMARK    6  A    between atoms: C11_19  and  N6_20 
REMARK    7  A    between atoms: N6_20  and  N7_21 
ROOT
HETATM    1  N3  UNL     1      38.578   6.093  48.734  1.00  0.00    -0.374 N 
HETATM    2  C7  UNL     1      39.279   6.853  47.713  1.00  0.00     0.143 C 
HETATM    3  C8  UNL     1      38.433   6.960  46.420  1.00  0.00     0.145 C 
HETATM    4  N4  UNL     1      38.331   5.604  45.929  1.00  0.00    -0.355 N 
HETATM    5  C12 UNL     1      37.836   4.632  46.859  1.00  0.00     0.145 C 
HETATM    6  C13 UNL     1      37.582   5.156  48.251  1.00  0.00     0.143 C 
ENDROOT
BRANCH   4   7
HETATM    7  C9  UNL     1      38.696   5.217  44.616  1.00  0.00     0.170 C 
HETATM    8  S1  UNL     1      37.821   4.120  43.777  1.00  0.00    -0.041 SA
BRANCH   7   9
HETATM    9  N5  UNL     1      39.842   5.779  43.994  1.00  0.00    -0.361 N 
ATOM     10  H5  UNL     1      39.749   6.212  43.075  1.00  0.00     0.162 HD
BRANCH   9  11
HETATM   11  C10 UNL     1      41.155   5.751  44.642  1.00  0.00     0.183 C 
BRANCH  11  12
HETATM   12  C11 UNL     1      41.541   4.381  45.033  1.00  0.00     0.200 C 
BRANCH  12  13
HETATM   13  N6  UNL     1      41.462   3.470  44.176  1.00  0.00    -0.348 NA
BRANCH  13  14
HETATM   14  N7  UNL     1      41.114   2.678  43.294  1.00  0.00    -0.281 N 
ATOM     15  H72 UNL     1      40.981   1.926  43.971  1.00  0.00     0.191 HD
ATOM     16  H71 UNL     1      40.864   2.214  42.420  1.00  0.00     0.191 HD
ENDBRANCH  13  14
ENDBRANCH  12  13
ENDBRANCH  11  12
ENDBRANCH   9  11
ENDBRANCH   7   9
ENDBRANCH   4   7
BRANCH   1  17
HETATM   17  C6  UNL     1      38.887   6.239  50.121  1.00  0.00     0.078 A 
HETATM   18  C2  UNL     1      39.937   5.608  50.750  1.00  0.00     0.050 A 
HETATM   19  C1  UNL     1      40.948   4.645  50.317  1.00  0.00     0.072 C 
HETATM   20  N1  UNL     1      39.916   6.045  52.052  1.00  0.00    -0.301 N 
HETATM   21  N2  UNL     1      38.953   6.879  52.269  1.00  0.00    -0.299 N 
ATOM     22  H1  UNL     1      40.582   5.746  52.764  1.00  0.00     0.187 HD
HETATM   23  C3  UNL     1      38.601   7.557  53.516  1.00  0.00     0.177 C 
HETATM   24  C4  UNL     1      38.297   7.018  51.083  1.00  0.00     0.052 A 
HETATM   25  C5  UNL     1      37.150   7.906  50.929  1.00  0.00     0.072 C 
ENDBRANCH   1  17
TORSDOF 7
ENDMDL
MODEL 5
REMARK VINA RESULT: -6.903775705      1.438      2.368
REMARK  7 active torsions:
REMARK  status: ('A' for Active; 'I' for Inactive)
REMARK    1  A    between atoms: C6_9  and  N3_10 
REMARK    2  A    between atoms: N4_13  and  C9_14 
REMARK    3  A    between atoms: C9_14  and  N5_16 
REMARK    4  A    between atoms: N5_16  and  C10_18 
REMARK    5  A    between atoms: C10_18  and  C11_19 
REMARK    6  A    between atoms: C11_19  and  N6_20 
REMARK    7  A    between atoms: N6_20  and  N7_21 
ROOT
HETATM    1  N3  UNL     1      37.680   7.058  50.052  1.00  0.00    -0.374 N 
HETATM    2  C7  UNL     1      38.438   7.786  49.049  1.00  0.00     0.143 C 
HETATM    3  C8  UNL     1      37.773   7.669  47.656  1.00  0.00     0.145 C 
HETATM    4  N4  UNL     1      37.873   6.268  47.312  1.00  0.00    -0.355 N 
HETATM    5  C12 UNL     1      37.350   5.344  48.276  1.00  0.00     0.145 C 
HETATM    6  C13 UNL     1      36.856   5.973  49.555  1.00  0.00     0.143 C 
ENDROOT
BRANCH   4   7
HETATM    7  C9  UNL     1      38.452   5.795  46.110  1.00  0.00     0.170 C 
HETATM    8  S1  UNL     1      39.835   6.437  45.519  1.00  0.00    -0.041 SA
BRANCH   7   9
HETATM    9  N5  UNL     1      37.836   4.742  45.382  1.00  0.00    -0.361 N 
ATOM     10  H5  UNL     1      36.844   4.551  45.525  1.00  0.00     0.162 HD
BRANCH   9  11
HETATM   11  C10 UNL     1      38.592   3.924  44.432  1.00  0.00     0.183 C 
BRANCH  11  12
HETATM   12  C11 UNL     1      38.955   2.614  45.009  1.00  0.00     0.200 C 
BRANCH  12  13
HETATM   13  N6  UNL     1      38.196   2.108  45.867  1.00  0.00    -0.348 NA
BRANCH  13  14
HETATM   14  N7  UNL     1      37.698   1.541  46.846  1.00  0.00    -0.281 N 
ATOM     15  H72 UNL     1      37.902   2.334  47.455  1.00  0.00     0.191 HD
ATOM     16  H71 UNL     1      37.248   0.895  47.495  1.00  0.00     0.191 HD
ENDBRANCH  13  14
ENDBRANCH  12  13
ENDBRANCH  11  12
ENDBRANCH   9  11
ENDBRANCH   7   9
ENDBRANCH   4   7
BRANCH   1  17
HETATM   17  C6  UNL     1      37.778   7.374  51.442  1.00  0.00     0.078 A 
HETATM   18  C2  UNL     1      36.790   8.004  52.164  1.00  0.00     0.050 A 
HETATM   19  C1  UNL     1      35.483   8.561  51.821  1.00  0.00     0.072 C 
HETATM   20  N1  UNL     1      37.252   8.079  53.454  1.00  0.00    -0.301 N 
HETATM   21  N2  UNL     1      38.426   7.554  53.581  1.00  0.00    -0.299 N 
ATOM     22  H1  UNL     1      36.730   8.499  54.223  1.00  0.00     0.187 HD
HETATM   23  C3  UNL     1      39.247   7.442  54.786  1.00  0.00     0.177 C 
HETATM   24  C4  UNL     1      38.777   7.107  52.343  1.00  0.00     0.052 A 
HETATM   25  C5  UNL     1      40.045   6.429  52.092  1.00  0.00     0.072 C 
ENDBRANCH   1  17
TORSDOF 7
ENDMDL
