MODEL 1
REMARK VINA RESULT: -8.200405426      0.000      0.000
REMARK  3 active torsions:
REMARK  status: ('A' for Active; 'I' for Inactive)
REMARK       I    between atoms: C1_2  and  N1_3 
REMARK       I    between atoms: C1_2  and  N2_8 
REMARK    1  A    between atoms: C8_11  and  O2_12 
REMARK    2  A    between atoms: C8_11  and  C9_14 
REMARK    3  A    between atoms: C9_14  and  N3_15 
ROOT
HETATM    1  O1  UNL     1      40.462   5.821  52.427  1.00  0.00    -0.247 OA
HETATM    2  C1  UNL     1      39.626   6.510  51.717  1.00  0.00     0.320 C 
HETATM    3  N1  UNL     1      39.237   7.732  52.241  1.00  0.00    -0.334 N 
HETATM    4  C2  UNL     1      39.726   8.199  53.563  1.00  0.00     0.127 C 
HETATM    5  C3  UNL     1      39.953   9.670  53.239  1.00  0.00     0.022 C 
HETATM    6  C4  UNL     1      38.731  10.008  52.474  1.00  0.00     0.022 C 
HETATM    7  C5  UNL     1      38.382   8.754  51.711  1.00  0.00     0.127 C 
HETATM    8  N2  UNL     1      39.227   5.944  50.527  1.00  0.00    -0.334 N 
HETATM    9  C6  UNL     1      38.279   6.470  49.601  1.00  0.00     0.130 C 
HETATM   10  C7  UNL     1      37.698   5.318  48.796  1.00  0.00     0.059 C 
HETATM   11  C8  UNL     1      38.756   4.639  47.952  1.00  0.00     0.087 C 
HETATM   12  C14 UNL     1      40.130   4.756  48.632  1.00  0.00     0.059 C 
HETATM   13  C15 UNL     1      39.850   4.660  50.115  1.00  0.00     0.130 C 
ENDROOT
BRANCH  11  14
HETATM   14  O2  UNL     1      38.462   3.281  47.967  1.00  0.00    -0.388 OA
ATOM     15  H2  UNL     1      39.051   2.871  47.345  1.00  0.00     0.210 HD
ENDBRANCH  11  14
BRANCH  11  16
HETATM   16  C9  UNL     1      38.820   5.224  46.585  1.00  0.00     0.310 C 
BRANCH  16  17
HETATM   17  N3  UNL     1      39.981   4.772  45.866  1.00  0.00     0.095 N 
HETATM   18  C10 UNL     1      39.525   3.891  44.744  1.00  0.00     0.298 C 
HETATM   19  C11 UNL     1      40.795   3.378  44.116  1.00  0.00     0.198 C 
HETATM   20  O3  UNL     1      41.951   3.926  44.631  1.00  0.00    -0.388 OA
HETATM   21  C12 UNL     1      41.965   5.307  44.678  1.00  0.00     0.198 C 
HETATM   22  C13 UNL     1      40.658   5.884  45.176  1.00  0.00     0.298 C 
ENDBRANCH  16  17
ENDBRANCH  11  16
TORSDOF 3
ENDMDL
MODEL 2
REMARK VINA RESULT: -8.154035619      2.128      7.595
REMARK  3 active torsions:
REMARK  status: ('A' for Active; 'I' for Inactive)
REMARK       I    between atoms: C1_2  and  N1_3 
REMARK       I    between atoms: C1_2  and  N2_8 
REMARK    1  A    between atoms: C8_11  and  O2_12 
REMARK    2  A    between atoms: C8_11  and  C9_14 
REMARK    3  A    between atoms: C9_14  and  N3_15 
ROOT
HETATM    1  O1  UNL     1      37.417   4.549  45.607  1.00  0.00    -0.247 OA
HETATM    2  C1  UNL     1      38.419   4.848  46.371  1.00  0.00     0.320 C 
HETATM    3  N1  UNL     1      39.681   4.627  45.843  1.00  0.00    -0.334 N 
HETATM    4  C2  UNL     1      39.862   4.042  44.490  1.00  0.00     0.127 C 
HETATM    5  C3  UNL     1      41.029   4.894  44.005  1.00  0.00     0.022 C 
HETATM    6  C4  UNL     1      41.915   4.905  45.192  1.00  0.00     0.022 C 
HETATM    7  C5  UNL     1      40.985   4.887  46.380  1.00  0.00     0.127 C 
HETATM    8  N2  UNL     1      38.109   5.350  47.615  1.00  0.00    -0.334 N 
HETATM    9  C6  UNL     1      39.022   5.699  48.653  1.00  0.00     0.130 C 
HETATM   10  C7  UNL     1      38.295   5.615  49.986  1.00  0.00     0.059 C 
HETATM   11  C8  UNL     1      37.174   6.630  50.074  1.00  0.00     0.087 C 
HETATM   12  C14 UNL     1      36.609   6.916  48.672  1.00  0.00     0.059 C 
HETATM   13  C15 UNL     1      36.680   5.596  47.938  1.00  0.00     0.130 C 
ENDROOT
BRANCH  11  14
HETATM   14  O2  UNL     1      36.137   6.013  50.761  1.00  0.00    -0.388 OA
ATOM     15  H2  UNL     1      36.420   5.123  50.936  1.00  0.00     0.210 HD
ENDBRANCH  11  14
BRANCH  11  16
HETATM   16  C9  UNL     1      37.638   7.900  50.697  1.00  0.00     0.310 C 
BRANCH  16  17
HETATM   17  N3  UNL     1      37.400   7.914  52.116  1.00  0.00     0.095 N 
HETATM   18  C10 UNL     1      38.721   8.015  52.813  1.00  0.00     0.298 C 
HETATM   19  C11 UNL     1      38.392   7.915  54.280  1.00  0.00     0.198 C 
HETATM   20  O3  UNL     1      37.043   7.888  54.564  1.00  0.00    -0.388 OA
HETATM   21  C12 UNL     1      36.309   8.902  53.978  1.00  0.00     0.198 C 
HETATM   22  C13 UNL     1      36.696   9.138  52.535  1.00  0.00     0.298 C 
ENDBRANCH  16  17
ENDBRANCH  11  16
TORSDOF 3
ENDMDL
MODEL 3
REMARK VINA RESULT: -8.003397816      1.310      1.549
REMARK  3 active torsions:
REMARK  status: ('A' for Active; 'I' for Inactive)
REMARK       I    between atoms: C1_2  and  N1_3 
REMARK       I    between atoms: C1_2  and  N2_8 
REMARK    1  A    between atoms: C8_11  and  O2_12 
REMARK    2  A    between atoms: C8_11  and  C9_14 
REMARK    3  A    between atoms: C9_14  and  N3_15 
ROOT
HETATM    1  O1  UNL     1      40.362   6.047  52.976  1.00  0.00    -0.247 OA
HETATM    2  C1  UNL     1      39.623   6.769  52.193  1.00  0.00     0.320 C 
HETATM    3  N1  UNL     1      39.259   8.017  52.671  1.00  0.00    -0.334 N 
HETATM    4  C2  UNL     1      39.665   8.477  54.024  1.00  0.00     0.127 C 
HETATM    5  C3  UNL     1      39.996   9.929  53.704  1.00  0.00     0.022 C 
HETATM    6  C4  UNL     1      38.859  10.320  52.839  1.00  0.00     0.022 C 
HETATM    7  C5  UNL     1      38.506   9.075  52.063  1.00  0.00     0.127 C 
HETATM    8  N2  UNL     1      39.291   6.208  50.981  1.00  0.00    -0.334 N 
HETATM    9  C6  UNL     1      38.450   6.769  49.975  1.00  0.00     0.130 C 
HETATM   10  C7  UNL     1      37.874   5.638  49.138  1.00  0.00     0.059 C 
HETATM   11  C8  UNL     1      38.959   4.891  48.389  1.00  0.00     0.087 C 
HETATM   12  C14 UNL     1      40.278   4.946  49.177  1.00  0.00     0.059 C 
HETATM   13  C15 UNL     1      39.875   4.887  50.633  1.00  0.00     0.130 C 
ENDROOT
BRANCH  11  14
HETATM   14  O2  UNL     1      38.591   3.552  48.395  1.00  0.00    -0.388 OA
ATOM     15  H2  UNL     1      38.124   3.403  49.209  1.00  0.00     0.210 HD
ENDBRANCH  11  14
BRANCH  11  16
HETATM   16  C9  UNL     1      39.163   5.453  47.026  1.00  0.00     0.310 C 
BRANCH  16  17
HETATM   17  N3  UNL     1      38.847   4.494  46.002  1.00  0.00     0.095 N 
HETATM   18  C10 UNL     1      38.413   5.239  44.778  1.00  0.00     0.298 C 
HETATM   19  C11 UNL     1      38.000   4.169  43.801  1.00  0.00     0.198 C 
HETATM   20  O3  UNL     1      38.241   2.879  44.228  1.00  0.00    -0.388 OA
HETATM   21  C12 UNL     1      39.529   2.649  44.673  1.00  0.00     0.198 C 
HETATM   22  C13 UNL     1      40.046   3.766  45.553  1.00  0.00     0.298 C 
ENDBRANCH  16  17
ENDBRANCH  11  16
TORSDOF 3
ENDMDL
MODEL 4
REMARK VINA RESULT: -7.631016222      2.064      2.578
REMARK  3 active torsions:
REMARK  status: ('A' for Active; 'I' for Inactive)
REMARK       I    between atoms: C1_2  and  N1_3 
REMARK       I    between atoms: C1_2  and  N2_8 
REMARK    1  A    between atoms: C8_11  and  O2_12 
REMARK    2  A    between atoms: C8_11  and  C9_14 
REMARK    3  A    between atoms: C9_14  and  N3_15 
ROOT
HETATM    1  O1  UNL     1      35.542   7.077  51.117  1.00  0.00    -0.247 OA
HETATM    2  C1  UNL     1      36.656   7.653  50.794  1.00  0.00     0.320 C 
HETATM    3  N1  UNL     1      37.108   8.642  51.653  1.00  0.00    -0.334 N 
HETATM    4  C2  UNL     1      36.330   9.039  52.854  1.00  0.00     0.127 C 
HETATM    5  C3  UNL     1      37.474   9.212  53.845  1.00  0.00     0.022 C 
HETATM    6  C4  UNL     1      38.471   9.952  53.037  1.00  0.00     0.022 C 
HETATM    7  C5  UNL     1      38.303   9.434  51.630  1.00  0.00     0.127 C 
HETATM    8  N2  UNL     1      37.256   7.212  49.636  1.00  0.00    -0.334 N 
HETATM    9  C6  UNL     1      38.448   7.719  49.038  1.00  0.00     0.130 C 
HETATM   10  C7  UNL     1      38.415   7.405  47.551  1.00  0.00     0.059 C 
HETATM   11  C8  UNL     1      38.437   5.912  47.296  1.00  0.00     0.087 C 
HETATM   12  C14 UNL     1      37.770   5.167  48.464  1.00  0.00     0.059 C 
HETATM   13  C15 UNL     1      36.642   6.067  48.917  1.00  0.00     0.130 C 
ENDROOT
BRANCH  11  14
HETATM   14  O2  UNL     1      37.610   5.686  46.204  1.00  0.00    -0.388 OA
ATOM     15  H2  UNL     1      38.160   5.323  45.520  1.00  0.00     0.210 HD
ENDBRANCH  11  14
BRANCH  11  16
HETATM   16  C9  UNL     1      39.827   5.412  47.111  1.00  0.00     0.310 C 
BRANCH  16  17
HETATM   17  N3  UNL     1      40.039   4.911  45.780  1.00  0.00     0.095 N 
HETATM   18  C10 UNL     1      41.434   5.260  45.363  1.00  0.00     0.298 C 
HETATM   19  C11 UNL     1      41.536   4.800  43.932  1.00  0.00     0.198 C 
HETATM   20  O3  UNL     1      40.432   4.114  43.470  1.00  0.00    -0.388 OA
HETATM   21  C12 UNL     1      40.020   3.072  44.280  1.00  0.00     0.198 C 
HETATM   22  C13 UNL     1      40.030   3.439  45.747  1.00  0.00     0.298 C 
ENDBRANCH  16  17
ENDBRANCH  11  16
TORSDOF 3
ENDMDL
MODEL 5
REMARK VINA RESULT: -7.594249378      1.995      2.651
REMARK  3 active torsions:
REMARK  status: ('A' for Active; 'I' for Inactive)
REMARK       I    between atoms: C1_2  and  N1_3 
REMARK       I    between atoms: C1_2  and  N2_8 
REMARK    1  A    between atoms: C8_11  and  O2_12 
REMARK    2  A    between atoms: C8_11  and  C9_14 
REMARK    3  A    between atoms: C9_14  and  N3_15 
ROOT
HETATM    1  O1  UNL     1      35.841   7.885  50.800  1.00  0.00    -0.247 OA
HETATM    2  C1  UNL     1      37.099   7.573  50.803  1.00  0.00     0.320 C 
HETATM    3  N1  UNL     1      37.793   7.833  51.973  1.00  0.00    -0.334 N 
HETATM    4  C2  UNL     1      37.133   8.472  53.140  1.00  0.00     0.127 C 
HETATM    5  C3  UNL     1      37.766   7.658  54.261  1.00  0.00     0.022 C 
HETATM    6  C4  UNL     1      39.187   7.614  53.845  1.00  0.00     0.022 C 
HETATM    7  C5  UNL     1      39.156   7.574  52.336  1.00  0.00     0.127 C 
HETATM    8  N2  UNL     1      37.592   7.019  49.644  1.00  0.00    -0.334 N 
HETATM    9  C6  UNL     1      38.941   6.645  49.375  1.00  0.00     0.130 C 
HETATM   10  C7  UNL     1      39.160   6.667  47.871  1.00  0.00     0.059 C 
HETATM   11  C8  UNL     1      38.306   5.632  47.168  1.00  0.00     0.087 C 
HETATM   12  C14 UNL     1      37.010   5.391  47.961  1.00  0.00     0.059 C 
HETATM   13  C15 UNL     1      36.640   6.739  48.538  1.00  0.00     0.130 C 
ENDROOT
BRANCH  11  14
HETATM   14  O2  UNL     1      37.895   6.206  45.972  1.00  0.00    -0.388 OA
ATOM     15  H2  UNL     1      38.500   5.901  45.305  1.00  0.00     0.210 HD
ENDBRANCH  11  14
BRANCH  11  16
HETATM   16  C9  UNL     1      39.037   4.347  46.998  1.00  0.00     0.310 C 
BRANCH  16  17
HETATM   17  N3  UNL     1      39.716   4.284  45.732  1.00  0.00     0.095 N 
HETATM   18  C10 UNL     1      41.164   4.590  45.960  1.00  0.00     0.298 C 
HETATM   19  C11 UNL     1      41.776   4.610  44.583  1.00  0.00     0.198 C 
HETATM   20  O3  UNL     1      40.917   4.239  43.569  1.00  0.00    -0.388 OA
HETATM   21  C12 UNL     1      40.255   3.045  43.781  1.00  0.00     0.198 C 
HETATM   22  C13 UNL     1      39.736   2.912  45.196  1.00  0.00     0.298 C 
ENDBRANCH  16  17
ENDBRANCH  11  16
TORSDOF 3
ENDMDL
