MODEL 1
REMARK VINA RESULT: -7.590072559      0.000      0.000
REMARK  6 active torsions:
REMARK  status: ('A' for Active; 'I' for Inactive)
REMARK    1  A    between atoms: C2_2  and  C3_3 
REMARK    2  A    between atoms: C4_4  and  C5_5 
REMARK    3  A    between atoms: C5_5  and  N1_6 
REMARK    4  A    between atoms: C10_12  and  O2_13 
REMARK    5  A    between atoms: C10_12  and  C11_15 
REMARK    6  A    between atoms: C11_15  and  N2_16 
ROOT
HETATM    1  N1  UNL     1      39.259   6.151  50.422  1.00  0.00    -0.334 N 
HETATM    2  C6  UNL     1      38.464   7.172  49.748  1.00  0.00     0.164 C 
HETATM    3  C7  UNL     1      38.102   6.814  48.349  1.00  0.00     0.074 C 
HETATM    4  C8  UNL     1      37.808   8.131  47.612  1.00  0.00     0.047 C 
HETATM    5  C9  UNL     1      36.773   6.077  48.384  1.00  0.00     0.047 C 
HETATM    6  O1  UNL     1      39.064   6.175  47.636  1.00  0.00    -0.334 OA
HETATM    7  C10 UNL     1      39.631   5.073  48.199  1.00  0.00     0.263 C 
HETATM    8  C16 UNL     1      39.644   5.037  49.676  1.00  0.00     0.285 C 
HETATM    9  O4  UNL     1      40.000   4.008  50.259  1.00  0.00    -0.267 OA
ENDROOT
BRANCH   7  10
HETATM   10  O2  UNL     1      40.995   5.085  47.813  1.00  0.00    -0.357 OA
ATOM     11  H2  UNL     1      41.444   5.643  48.437  1.00  0.00     0.213 HD
ENDBRANCH   7  10
BRANCH   7  12
HETATM   12  C11 UNL     1      39.049   3.802  47.608  1.00  0.00     0.205 C 
BRANCH  12  13
HETATM   13  N2  UNL     1      39.150   3.840  46.162  1.00  0.00    -0.346 N 
HETATM   14  C12 UNL     1      40.298   3.338  45.404  1.00  0.00     0.126 C 
HETATM   15  C13 UNL     1      40.391   4.399  44.309  1.00  0.00     0.029 C 
HETATM   16  C14 UNL     1      38.919   4.470  43.881  1.00  0.00     0.104 C 
HETATM   17  C15 UNL     1      38.242   4.330  45.193  1.00  0.00     0.220 C 
HETATM   18  O3  UNL     1      37.038   4.598  45.438  1.00  0.00    -0.273 OA
ENDBRANCH  12  13
ENDBRANCH   7  12
BRANCH   1  19
HETATM   19  C5  UNL     1      39.571   6.391  51.800  1.00  0.00     0.220 C 
BRANCH  19  20
HETATM   20  C4  UNL     1      38.595   7.163  52.507  1.00  0.00    -0.087 C 
HETATM   21  C3  UNL     1      37.763   7.801  53.087  1.00  0.00    -0.105 C 
BRANCH  21  22
HETATM   22  C2  UNL     1      36.719   8.577  53.787  1.00  0.00     0.089 C 
HETATM   23  C1  UNL     1      35.351   8.279  53.237  1.00  0.00     0.018 C 
ENDBRANCH  21  22
ENDBRANCH  19  20
ENDBRANCH   1  19
TORSDOF 6
ENDMDL
MODEL 2
REMARK VINA RESULT: -7.508491632      1.277      1.450
REMARK  6 active torsions:
REMARK  status: ('A' for Active; 'I' for Inactive)
REMARK    1  A    between atoms: C2_2  and  C3_3 
REMARK    2  A    between atoms: C4_4  and  C5_5 
REMARK    3  A    between atoms: C5_5  and  N1_6 
REMARK    4  A    between atoms: C10_12  and  O2_13 
REMARK    5  A    between atoms: C10_12  and  C11_15 
REMARK    6  A    between atoms: C11_15  and  N2_16 
ROOT
HETATM    1  N1  UNL     1      39.329   5.981  50.560  1.00  0.00    -0.334 N 
HETATM    2  C6  UNL     1      38.502   7.023  49.960  1.00  0.00     0.164 C 
HETATM    3  C7  UNL     1      38.116   6.735  48.551  1.00  0.00     0.074 C 
HETATM    4  C8  UNL     1      37.783   8.085  47.894  1.00  0.00     0.047 C 
HETATM    5  C9  UNL     1      36.801   5.973  48.574  1.00  0.00     0.047 C 
HETATM    6  O1  UNL     1      39.072   6.154  47.784  1.00  0.00    -0.334 OA
HETATM    7  C10 UNL     1      39.670   5.033  48.273  1.00  0.00     0.263 C 
HETATM    8  C16 UNL     1      39.716   4.916  49.745  1.00  0.00     0.285 C 
HETATM    9  O4  UNL     1      40.103   3.863  50.263  1.00  0.00    -0.267 OA
ENDROOT
BRANCH   7  10
HETATM   10  O2  UNL     1      41.026   5.091  47.860  1.00  0.00    -0.357 OA
ATOM     11  H2  UNL     1      41.548   5.046  48.652  1.00  0.00     0.213 HD
ENDBRANCH   7  10
BRANCH   7  12
HETATM   12  C11 UNL     1      39.098   3.786  47.626  1.00  0.00     0.205 C 
BRANCH  12  13
HETATM   13  N2  UNL     1      39.184   3.896  46.183  1.00  0.00    -0.346 N 
HETATM   14  C12 UNL     1      40.346   3.479  45.394  1.00  0.00     0.126 C 
HETATM   15  C13 UNL     1      40.386   4.593  44.350  1.00  0.00     0.029 C 
HETATM   16  C14 UNL     1      38.908   4.623  43.935  1.00  0.00     0.104 C 
HETATM   17  C15 UNL     1      38.249   4.392  45.243  1.00  0.00     0.220 C 
HETATM   18  O3  UNL     1      37.037   4.598  45.508  1.00  0.00    -0.273 OA
ENDBRANCH  12  13
ENDBRANCH   7  12
BRANCH   1  19
HETATM   19  C5  UNL     1      39.667   6.151  51.942  1.00  0.00     0.220 C 
BRANCH  19  20
HETATM   20  C4  UNL     1      39.697   7.510  52.387  1.00  0.00    -0.087 C 
HETATM   21  C3  UNL     1      39.722   8.655  52.739  1.00  0.00    -0.105 C 
BRANCH  21  22
HETATM   22  C2  UNL     1      39.757  10.074  53.149  1.00  0.00     0.089 C 
HETATM   23  C1  UNL     1      39.685  10.991  51.959  1.00  0.00     0.018 C 
ENDBRANCH  21  22
ENDBRANCH  19  20
ENDBRANCH   1  19
TORSDOF 6
ENDMDL
MODEL 3
REMARK VINA RESULT: -7.374926784      1.741      2.760
REMARK  6 active torsions:
REMARK  status: ('A' for Active; 'I' for Inactive)
REMARK    1  A    between atoms: C2_2  and  C3_3 
REMARK    2  A    between atoms: C4_4  and  C5_5 
REMARK    3  A    between atoms: C5_5  and  N1_6 
REMARK    4  A    between atoms: C10_12  and  O2_13 
REMARK    5  A    between atoms: C10_12  and  C11_15 
REMARK    6  A    between atoms: C11_15  and  N2_16 
ROOT
HETATM    1  N1  UNL     1      39.192   6.377  51.197  1.00  0.00    -0.334 N 
HETATM    2  C6  UNL     1      38.490   7.437  50.482  1.00  0.00     0.164 C 
HETATM    3  C7  UNL     1      38.176   7.091  49.068  1.00  0.00     0.074 C 
HETATM    4  C8  UNL     1      37.993   8.418  48.312  1.00  0.00     0.047 C 
HETATM    5  C9  UNL     1      36.807   6.431  49.041  1.00  0.00     0.047 C 
HETATM    6  O1  UNL     1      39.132   6.393  48.405  1.00  0.00    -0.334 OA
HETATM    7  C10 UNL     1      39.608   5.264  48.998  1.00  0.00     0.263 C 
HETATM    8  C16 UNL     1      39.548   5.237  50.474  1.00  0.00     0.285 C 
HETATM    9  O4  UNL     1      39.816   4.193  51.078  1.00  0.00    -0.267 OA
ENDROOT
BRANCH   7  10
HETATM   10  O2  UNL     1      40.988   5.197  48.679  1.00  0.00    -0.357 OA
ATOM     11  H2  UNL     1      41.232   4.281  48.740  1.00  0.00     0.213 HD
ENDBRANCH   7  10
BRANCH   7  12
HETATM   12  C11 UNL     1      38.983   4.025  48.385  1.00  0.00     0.205 C 
BRANCH  12  13
HETATM   13  N2  UNL     1      38.951   4.153  46.941  1.00  0.00    -0.346 N 
HETATM   14  C12 UNL     1      40.092   3.876  46.064  1.00  0.00     0.126 C 
HETATM   15  C13 UNL     1      39.928   4.994  45.036  1.00  0.00     0.029 C 
HETATM   16  C14 UNL     1      38.430   4.857  44.730  1.00  0.00     0.104 C 
HETATM   17  C15 UNL     1      37.899   4.545  46.079  1.00  0.00     0.220 C 
HETATM   18  O3  UNL     1      36.695   4.610  46.433  1.00  0.00    -0.273 OA
ENDBRANCH  12  13
ENDBRANCH   7  12
BRANCH   1  19
HETATM   19  C5  UNL     1      39.450   6.607  52.588  1.00  0.00     0.220 C 
BRANCH  19  20
HETATM   20  C4  UNL     1      40.831   6.786  52.916  1.00  0.00    -0.087 C 
HETATM   21  C3  UNL     1      41.989   6.916  53.194  1.00  0.00    -0.105 C 
BRANCH  21  22
HETATM   22  C2  UNL     1      43.419   7.050  53.540  1.00  0.00     0.089 C 
HETATM   23  C1  UNL     1      44.059   5.707  53.761  1.00  0.00     0.018 C 
ENDBRANCH  21  22
ENDBRANCH  19  20
ENDBRANCH   1  19
TORSDOF 6
ENDMDL
MODEL 4
REMARK VINA RESULT: -7.293690622      1.815      2.998
REMARK  6 active torsions:
REMARK  status: ('A' for Active; 'I' for Inactive)
REMARK    1  A    between atoms: C2_2  and  C3_3 
REMARK    2  A    between atoms: C4_4  and  C5_5 
REMARK    3  A    between atoms: C5_5  and  N1_6 
REMARK    4  A    between atoms: C10_12  and  O2_13 
REMARK    5  A    between atoms: C10_12  and  C11_15 
REMARK    6  A    between atoms: C11_15  and  N2_16 
ROOT
HETATM    1  N1  UNL     1      37.435   6.473  49.443  1.00  0.00    -0.334 N 
HETATM    2  C6  UNL     1      38.459   5.644  50.070  1.00  0.00     0.164 C 
HETATM    3  C7  UNL     1      39.264   4.859  49.094  1.00  0.00     0.074 C 
HETATM    4  C8  UNL     1      39.854   3.664  49.861  1.00  0.00     0.047 C 
HETATM    5  C9  UNL     1      40.465   5.702  48.694  1.00  0.00     0.047 C 
HETATM    6  O1  UNL     1      38.580   4.347  48.041  1.00  0.00    -0.334 OA
HETATM    7  C10 UNL     1      37.804   5.204  47.322  1.00  0.00     0.263 C 
HETATM    8  C16 UNL     1      37.281   6.373  48.060  1.00  0.00     0.285 C 
HETATM    9  O4  UNL     1      36.699   7.273  47.446  1.00  0.00    -0.267 OA
ENDROOT
BRANCH   7  10
HETATM   10  O2  UNL     1      36.658   4.469  46.926  1.00  0.00    -0.357 OA
ATOM     11  H2  UNL     1      36.951   3.578  46.777  1.00  0.00     0.213 HD
ENDBRANCH   7  10
BRANCH   7  12
HETATM   12  C11 UNL     1      38.495   5.613  46.035  1.00  0.00     0.205 C 
BRANCH  12  13
HETATM   13  N2  UNL     1      39.304   4.515  45.541  1.00  0.00    -0.346 N 
HETATM   14  C12 UNL     1      40.739   4.371  45.795  1.00  0.00     0.126 C 
HETATM   15  C13 UNL     1      41.207   3.837  44.443  1.00  0.00     0.029 C 
HETATM   16  C14 UNL     1      40.161   2.738  44.214  1.00  0.00     0.104 C 
HETATM   17  C15 UNL     1      38.946   3.395  44.753  1.00  0.00     0.220 C 
HETATM   18  O3  UNL     1      37.758   3.033  44.556  1.00  0.00    -0.273 OA
ENDBRANCH  12  13
ENDBRANCH   7  12
BRANCH   1  19
HETATM   19  C5  UNL     1      36.678   7.322  50.316  1.00  0.00     0.220 C 
BRANCH  19  20
HETATM   20  C4  UNL     1      37.460   8.258  51.063  1.00  0.00    -0.087 C 
HETATM   21  C3  UNL     1      38.124   9.026  51.699  1.00  0.00    -0.105 C 
BRANCH  21  22
HETATM   22  C2  UNL     1      38.954   9.953  52.495  1.00  0.00     0.089 C 
HETATM   23  C1  UNL     1      39.486  11.078  51.650  1.00  0.00     0.018 C 
ENDBRANCH  21  22
ENDBRANCH  19  20
ENDBRANCH   1  19
TORSDOF 6
ENDMDL
MODEL 5
REMARK VINA RESULT: -7.258716255      1.812      3.131
REMARK  6 active torsions:
REMARK  status: ('A' for Active; 'I' for Inactive)
REMARK    1  A    between atoms: C2_2  and  C3_3 
REMARK    2  A    between atoms: C4_4  and  C5_5 
REMARK    3  A    between atoms: C5_5  and  N1_6 
REMARK    4  A    between atoms: C10_12  and  O2_13 
REMARK    5  A    between atoms: C10_12  and  C11_15 
REMARK    6  A    between atoms: C11_15  and  N2_16 
ROOT
HETATM    1  N1  UNL     1      37.067   6.281  49.783  1.00  0.00    -0.334 N 
HETATM    2  C6  UNL     1      38.220   5.550  50.298  1.00  0.00     0.164 C 
HETATM    3  C7  UNL     1      39.091   4.987  49.230  1.00  0.00     0.074 C 
HETATM    4  C8  UNL     1      39.870   3.819  49.857  1.00  0.00     0.047 C 
HETATM    5  C9  UNL     1      40.146   6.027  48.891  1.00  0.00     0.047 C 
HETATM    6  O1  UNL     1      38.447   4.487  48.145  1.00  0.00    -0.334 OA
HETATM    7  C10 UNL     1      37.532   5.291  47.536  1.00  0.00     0.263 C 
HETATM    8  C16 UNL     1      36.878   6.295  48.400  1.00  0.00     0.285 C 
HETATM    9  O4  UNL     1      36.154   7.158  47.894  1.00  0.00    -0.267 OA
ENDROOT
BRANCH   7  10
HETATM   10  O2  UNL     1      36.487   4.441  47.093  1.00  0.00    -0.357 OA
ATOM     11  H2  UNL     1      36.540   4.425  46.144  1.00  0.00     0.213 HD
ENDBRANCH   7  10
BRANCH   7  12
HETATM   12  C11 UNL     1      38.112   5.917  46.282  1.00  0.00     0.205 C 
BRANCH  12  13
HETATM   13  N2  UNL     1      38.840   4.918  45.523  1.00  0.00    -0.346 N 
HETATM   14  C12 UNL     1      38.205   3.892  44.693  1.00  0.00     0.126 C 
HETATM   15  C13 UNL     1      39.115   2.700  44.983  1.00  0.00     0.029 C 
HETATM   16  C14 UNL     1      40.488   3.363  44.802  1.00  0.00     0.104 C 
HETATM   17  C15 UNL     1      40.232   4.697  45.399  1.00  0.00     0.220 C 
HETATM   18  O3  UNL     1      41.105   5.530  45.753  1.00  0.00    -0.273 OA
ENDBRANCH  12  13
ENDBRANCH   7  12
BRANCH   1  19
HETATM   19  C5  UNL     1      36.232   6.923  50.754  1.00  0.00     0.220 C 
BRANCH  19  20
HETATM   20  C4  UNL     1      36.851   8.011  51.447  1.00  0.00    -0.087 C 
HETATM   21  C3  UNL     1      37.364   8.935  52.013  1.00  0.00    -0.105 C 
BRANCH  21  22
HETATM   22  C2  UNL     1      37.989  10.088  52.690  1.00  0.00     0.089 C 
HETATM   23  C1  UNL     1      39.154  10.622  51.903  1.00  0.00     0.018 C 
ENDBRANCH  21  22
ENDBRANCH  19  20
ENDBRANCH   1  19
TORSDOF 6
ENDMDL
