MODEL 1
REMARK VINA RESULT: -8.496982537      0.000      0.000
REMARK  3 active torsions:
REMARK  status: ('A' for Active; 'I' for Inactive)
REMARK    1  A    between atoms: N2_15  and  C11_16 
REMARK    2  A    between atoms: C11_16  and  C12_17 
REMARK    3  A    between atoms: C12_17  and  N3_18 
ROOT
HETATM    1  O1  UNL     1      38.887   4.425  49.465  1.00  0.00    -0.273 OA
HETATM    2  C1  UNL     1      39.319   5.074  48.448  1.00  0.00     0.226 C 
HETATM    3  C2  UNL     1      40.721   4.906  47.984  1.00  0.00     0.106 C 
HETATM    4  C3  UNL     1      40.901   5.296  46.557  1.00  0.00     0.050 C 
HETATM    5  C4  UNL     1      39.638   5.181  45.723  1.00  0.00     0.108 C 
HETATM    6  C5  UNL     1      39.990   5.550  44.323  1.00  0.00     0.040 C 
HETATM    7  C6  UNL     1      38.961   5.288  43.300  1.00  0.00     0.003 C 
HETATM    8  C7  UNL     1      38.114   4.082  43.521  1.00  0.00     0.002 C 
HETATM    9  C8  UNL     1      38.903   2.831  43.758  1.00  0.00     0.019 C 
HETATM   10  C9  UNL     1      39.679   2.873  45.044  1.00  0.00     0.115 C 
HETATM   11  N1  UNL     1      39.121   3.869  45.891  1.00  0.00    -0.405 N 
ATOM     12  H1  UNL     1      38.397   3.654  46.576  1.00  0.00     0.154 HD
HETATM   13  C10 UNL     1      38.671   6.141  46.346  1.00  0.00     0.254 C 
HETATM   14  O2  UNL     1      38.080   7.028  45.721  1.00  0.00    -0.270 OA
HETATM   15  N2  UNL     1      38.466   5.968  47.743  1.00  0.00    -0.285 N 
ENDROOT
BRANCH  15  16
HETATM   16  C11 UNL     1      37.427   6.665  48.462  1.00  0.00     0.165 C 
BRANCH  16  17
HETATM   17  C12 UNL     1      38.013   7.862  49.165  1.00  0.00     0.293 C 
BRANCH  17  18
HETATM   18  N3  UNL     1      37.241   8.246  50.334  1.00  0.00     0.094 N 
HETATM   19  C13 UNL     1      38.225   8.341  51.427  1.00  0.00     0.298 C 
HETATM   20  C14 UNL     1      37.486   8.667  52.688  1.00  0.00     0.198 C 
HETATM   21  O3  UNL     1      36.751   7.518  53.045  1.00  0.00    -0.388 OA
HETATM   22  C15 UNL     1      35.809   7.275  52.075  1.00  0.00     0.198 C 
HETATM   23  C16 UNL     1      36.357   7.155  50.689  1.00  0.00     0.298 C 
ENDBRANCH  17  18
ENDBRANCH  16  17
ENDBRANCH  15  16
TORSDOF 3
ENDMDL
MODEL 2
REMARK VINA RESULT: -8.470578271      0.398      1.058
REMARK  3 active torsions:
REMARK  status: ('A' for Active; 'I' for Inactive)
REMARK    1  A    between atoms: N2_15  and  C11_16 
REMARK    2  A    between atoms: C11_16  and  C12_17 
REMARK    3  A    between atoms: C12_17  and  N3_18 
ROOT
HETATM    1  O1  UNL     1      38.871   4.427  49.463  1.00  0.00    -0.273 OA
HETATM    2  C1  UNL     1      39.306   5.081  48.450  1.00  0.00     0.226 C 
HETATM    3  C2  UNL     1      40.709   4.915  47.989  1.00  0.00     0.106 C 
HETATM    4  C3  UNL     1      40.893   5.312  46.564  1.00  0.00     0.050 C 
HETATM    5  C4  UNL     1      39.633   5.201  45.726  1.00  0.00     0.108 C 
HETATM    6  C5  UNL     1      39.989   5.577  44.329  1.00  0.00     0.040 C 
HETATM    7  C6  UNL     1      38.963   5.320  43.302  1.00  0.00     0.003 C 
HETATM    8  C7  UNL     1      38.114   4.114  43.515  1.00  0.00     0.002 C 
HETATM    9  C8  UNL     1      38.902   2.862  43.747  1.00  0.00     0.019 C 
HETATM   10  C9  UNL     1      39.675   2.897  45.036  1.00  0.00     0.115 C 
HETATM   11  N1  UNL     1      39.116   3.888  45.886  1.00  0.00    -0.405 N 
ATOM     12  H1  UNL     1      38.389   3.671  46.569  1.00  0.00     0.154 HD
HETATM   13  C10 UNL     1      38.664   6.159  46.352  1.00  0.00     0.254 C 
HETATM   14  O2  UNL     1      38.075   7.049  45.729  1.00  0.00    -0.270 OA
HETATM   15  N2  UNL     1      38.456   5.979  47.747  1.00  0.00    -0.285 N 
ENDROOT
BRANCH  15  16
HETATM   16  C11 UNL     1      37.414   6.672  48.466  1.00  0.00     0.165 C 
BRANCH  16  17
HETATM   17  C12 UNL     1      38.024   7.753  49.322  1.00  0.00     0.293 C 
BRANCH  17  18
HETATM   18  N3  UNL     1      37.675   7.607  50.724  1.00  0.00     0.094 N 
HETATM   19  C13 UNL     1      36.202   7.590  50.752  1.00  0.00     0.298 C 
HETATM   20  C14 UNL     1      35.767   7.512  52.183  1.00  0.00     0.198 C 
HETATM   21  O3  UNL     1      36.064   8.758  52.773  1.00  0.00    -0.388 OA
HETATM   22  C15 UNL     1      37.425   8.936  52.773  1.00  0.00     0.198 C 
HETATM   23  C16 UNL     1      38.071   8.808  51.431  1.00  0.00     0.298 C 
ENDBRANCH  17  18
ENDBRANCH  16  17
ENDBRANCH  15  16
TORSDOF 3
ENDMDL
MODEL 3
REMARK VINA RESULT: -8.224850328      1.389      1.942
REMARK  3 active torsions:
REMARK  status: ('A' for Active; 'I' for Inactive)
REMARK    1  A    between atoms: N2_15  and  C11_16 
REMARK    2  A    between atoms: C11_16  and  C12_17 
REMARK    3  A    between atoms: C12_17  and  N3_18 
ROOT
HETATM    1  O1  UNL     1      40.064   6.125  48.825  1.00  0.00    -0.273 OA
HETATM    2  C1  UNL     1      39.446   6.194  47.705  1.00  0.00     0.226 C 
HETATM    3  C2  UNL     1      39.926   7.103  46.632  1.00  0.00     0.106 C 
HETATM    4  C3  UNL     1      39.445   6.696  45.281  1.00  0.00     0.050 C 
HETATM    5  C4  UNL     1      39.133   5.216  45.158  1.00  0.00     0.108 C 
HETATM    6  C5  UNL     1      38.721   4.960  43.750  1.00  0.00     0.040 C 
HETATM    7  C6  UNL     1      38.591   3.546  43.354  1.00  0.00     0.003 C 
HETATM    8  C7  UNL     1      39.546   2.598  43.993  1.00  0.00     0.002 C 
HETATM    9  C8  UNL     1      40.979   3.016  43.864  1.00  0.00     0.019 C 
HETATM   10  C9  UNL     1      41.283   4.279  44.619  1.00  0.00     0.115 C 
HETATM   11  N1  UNL     1      40.273   4.491  45.596  1.00  0.00    -0.405 N 
ATOM     12  H1  UNL     1      40.361   4.144  46.551  1.00  0.00     0.154 HD
HETATM   13  C10 UNL     1      38.025   4.970  46.136  1.00  0.00     0.254 C 
HETATM   14  O2  UNL     1      36.951   4.433  45.842  1.00  0.00    -0.270 OA
HETATM   15  N2  UNL     1      38.287   5.403  47.465  1.00  0.00    -0.285 N 
ENDROOT
BRANCH  15  16
HETATM   16  C11 UNL     1      37.423   5.066  48.571  1.00  0.00     0.165 C 
BRANCH  16  17
HETATM   17  C12 UNL     1      36.663   6.291  49.010  1.00  0.00     0.293 C 
BRANCH  17  18
HETATM   18  N3  UNL     1      37.041   6.726  50.343  1.00  0.00     0.094 N 
HETATM   19  C13 UNL     1      35.769   6.882  51.069  1.00  0.00     0.298 C 
HETATM   20  C14 UNL     1      36.079   7.400  52.440  1.00  0.00     0.198 C 
HETATM   21  O3  UNL     1      36.506   8.736  52.290  1.00  0.00    -0.388 OA
HETATM   22  C15 UNL     1      37.679   8.749  51.577  1.00  0.00     0.198 C 
HETATM   23  C16 UNL     1      37.615   8.053  50.256  1.00  0.00     0.298 C 
ENDBRANCH  17  18
ENDBRANCH  16  17
ENDBRANCH  15  16
TORSDOF 3
ENDMDL
MODEL 4
REMARK VINA RESULT: -7.990669207      1.857      6.694
REMARK  3 active torsions:
REMARK  status: ('A' for Active; 'I' for Inactive)
REMARK    1  A    between atoms: N2_15  and  C11_16 
REMARK    2  A    between atoms: C11_16  and  C12_17 
REMARK    3  A    between atoms: C12_17  and  N3_18 
ROOT
HETATM    1  O1  UNL     1      41.105   5.023  47.621  1.00  0.00    -0.273 OA
HETATM    2  C1  UNL     1      39.883   5.274  47.914  1.00  0.00     0.226 C 
HETATM    3  C2  UNL     1      39.088   4.316  48.724  1.00  0.00     0.106 C 
HETATM    4  C3  UNL     1      37.921   4.961  49.390  1.00  0.00     0.050 C 
HETATM    5  C4  UNL     1      38.099   6.448  49.640  1.00  0.00     0.108 C 
HETATM    6  C5  UNL     1      36.884   6.931  50.353  1.00  0.00     0.040 C 
HETATM    7  C6  UNL     1      36.946   8.302  50.894  1.00  0.00     0.003 C 
HETATM    8  C7  UNL     1      38.278   8.749  51.387  1.00  0.00     0.002 C 
HETATM    9  C8  UNL     1      38.901   7.803  52.368  1.00  0.00     0.019 C 
HETATM   10  C9  UNL     1      39.256   6.480  51.750  1.00  0.00     0.115 C 
HETATM   11  N1  UNL     1      39.322   6.630  50.338  1.00  0.00    -0.405 N 
ATOM     12  H1  UNL     1      40.193   6.854  49.857  1.00  0.00     0.154 HD
HETATM   13  C10 UNL     1      38.249   7.055  48.278  1.00  0.00     0.254 C 
HETATM   14  O2  UNL     1      37.559   7.992  47.862  1.00  0.00    -0.270 OA
HETATM   15  N2  UNL     1      39.262   6.474  47.467  1.00  0.00    -0.285 N 
ENDROOT
BRANCH  15  16
HETATM   16  C11 UNL     1      39.679   7.060  46.216  1.00  0.00     0.165 C 
BRANCH  16  17
HETATM   17  C12 UNL     1      38.935   6.408  45.079  1.00  0.00     0.293 C 
BRANCH  17  18
HETATM   18  N3  UNL     1      39.234   4.991  44.966  1.00  0.00     0.094 N 
HETATM   19  C13 UNL     1      40.504   4.927  44.223  1.00  0.00     0.298 C 
HETATM   20  C14 UNL     1      40.841   3.483  44.006  1.00  0.00     0.198 C 
HETATM   21  O3  UNL     1      39.918   2.981  43.066  1.00  0.00    -0.388 OA
HETATM   22  C15 UNL     1      38.659   3.025  43.613  1.00  0.00     0.198 C 
HETATM   23  C16 UNL     1      38.242   4.372  44.111  1.00  0.00     0.298 C 
ENDBRANCH  17  18
ENDBRANCH  16  17
ENDBRANCH  15  16
TORSDOF 3
ENDMDL
MODEL 5
REMARK VINA RESULT: -7.953770353      1.680      7.135
REMARK  3 active torsions:
REMARK  status: ('A' for Active; 'I' for Inactive)
REMARK    1  A    between atoms: N2_15  and  C11_16 
REMARK    2  A    between atoms: C11_16  and  C12_17 
REMARK    3  A    between atoms: C12_17  and  N3_18 
ROOT
HETATM    1  O1  UNL     1      37.034   5.689  47.299  1.00  0.00    -0.273 OA
HETATM    2  C1  UNL     1      37.737   6.432  48.070  1.00  0.00     0.226 C 
HETATM    3  C2  UNL     1      37.657   7.913  47.973  1.00  0.00     0.106 C 
HETATM    4  C3  UNL     1      38.103   8.593  49.222  1.00  0.00     0.050 C 
HETATM    5  C4  UNL     1      37.951   7.746  50.472  1.00  0.00     0.108 C 
HETATM    6  C5  UNL     1      38.384   8.576  51.631  1.00  0.00     0.040 C 
HETATM    7  C6  UNL     1      38.104   8.025  52.970  1.00  0.00     0.003 C 
HETATM    8  C7  UNL     1      36.850   7.231  53.099  1.00  0.00     0.002 C 
HETATM    9  C8  UNL     1      35.634   7.946  52.596  1.00  0.00     0.019 C 
HETATM   10  C9  UNL     1      35.672   8.177  51.112  1.00  0.00     0.115 C 
HETATM   11  N1  UNL     1      36.609   7.284  50.527  1.00  0.00    -0.405 N 
ATOM     12  H1  UNL     1      36.336   6.369  50.168  1.00  0.00     0.154 HD
HETATM   13  C10 UNL     1      38.840   6.560  50.249  1.00  0.00     0.254 C 
HETATM   14  O2  UNL     1      39.716   6.196  51.041  1.00  0.00    -0.270 OA
HETATM   15  N2  UNL     1      38.610   5.856  49.035  1.00  0.00    -0.285 N 
ENDROOT
BRANCH  15  16
HETATM   16  C11 UNL     1      39.228   4.582  48.753  1.00  0.00     0.165 C 
BRANCH  16  17
HETATM   17  C12 UNL     1      40.479   4.796  47.940  1.00  0.00     0.293 C 
BRANCH  17  18
HETATM   18  N3  UNL     1      40.226   4.723  46.512  1.00  0.00     0.094 N 
HETATM   19  C13 UNL     1      39.561   3.424  46.307  1.00  0.00     0.298 C 
HETATM   20  C14 UNL     1      39.331   3.249  44.837  1.00  0.00     0.198 C 
HETATM   21  O3  UNL     1      40.593   3.037  44.245  1.00  0.00    -0.388 OA
HETATM   22  C15 UNL     1      41.353   4.170  44.403  1.00  0.00     0.198 C 
HETATM   23  C16 UNL     1      41.493   4.634  45.816  1.00  0.00     0.298 C 
ENDBRANCH  17  18
ENDBRANCH  16  17
ENDBRANCH  15  16
TORSDOF 3
ENDMDL
