MODEL 1
REMARK VINA RESULT: -8.396628185      0.000      0.000
REMARK  3 active torsions:
REMARK  status: ('A' for Active; 'I' for Inactive)
REMARK    1  A    between atoms: C4_7  and  C5_8 
REMARK    2  A    between atoms: C5_8  and  N2_9 
REMARK    3  A    between atoms: N3_12  and  C8_13 
ROOT
HETATM    1  C1  UNL     1      36.005   9.014  51.903  1.00  0.00     0.069 C 
HETATM    2  C2  UNL     1      36.681   8.027  51.111  1.00  0.00     0.015 A 
HETATM    3  N1  UNL     1      35.967   7.307  50.197  1.00  0.00    -0.326 N 
ATOM      4  H1  UNL     1      35.005   7.574  49.986  1.00  0.00     0.169 HD
HETATM    5  C3  UNL     1      36.510   6.264  49.580  1.00  0.00     0.257 A 
HETATM    6  O1  UNL     1      35.777   5.635  48.742  1.00  0.00    -0.267 OA
HETATM    7  C4  UNL     1      37.820   5.789  49.781  1.00  0.00     0.049 A 
HETATM    8  C11 UNL     1      38.547   6.506  50.707  1.00  0.00    -0.031 A 
HETATM    9  C12 UNL     1      37.948   7.633  51.348  1.00  0.00    -0.026 A 
HETATM   10  C13 UNL     1      38.685   8.692  52.017  1.00  0.00     0.067 C 
HETATM   11  C14 UNL     1      39.423   8.299  53.206  1.00  0.00     0.172 C 
HETATM   12  O3  UNL     1      40.526   7.510  52.738  1.00  0.00    -0.391 OA
HETATM   13  C15 UNL     1      40.153   6.235  52.482  1.00  0.00     0.172 C 
HETATM   14  C16 UNL     1      39.855   5.898  50.992  1.00  0.00     0.066 C 
ENDROOT
BRANCH   7  15
HETATM   15  C5  UNL     1      38.400   4.900  48.807  1.00  0.00     0.077 C 
BRANCH  15  16
HETATM   16  N2  UNL     1      38.777   5.398  47.502  1.00  0.00    -0.289 NA
HETATM   17  C6  UNL     1      38.032   4.669  46.495  1.00  0.00     0.114 C 
HETATM   18  C7  UNL     1      38.911   3.882  45.527  1.00  0.00     0.140 C 
HETATM   19  N3  UNL     1      39.910   4.838  45.099  1.00  0.00    -0.357 N 
HETATM   20  C9  UNL     1      40.812   5.260  46.132  1.00  0.00     0.140 C 
HETATM   21  C10 UNL     1      40.222   4.910  47.449  1.00  0.00     0.114 C 
BRANCH  19  22
HETATM   22  C8  UNL     1      39.986   5.266  43.782  1.00  0.00     0.350 C 
HETATM   23  O2  UNL     1      39.134   4.915  42.912  1.00  0.00    -0.284 OA
ENDBRANCH  19  22
ENDBRANCH  15  16
ENDBRANCH   7  15
TORSDOF 3
ENDMDL
MODEL 2
REMARK VINA RESULT: -8.391952371      1.886      3.114
REMARK  3 active torsions:
REMARK  status: ('A' for Active; 'I' for Inactive)
REMARK    1  A    between atoms: C4_7  and  C5_8 
REMARK    2  A    between atoms: C5_8  and  N2_9 
REMARK    3  A    between atoms: N3_12  and  C8_13 
ROOT
HETATM    1  C1  UNL     1      40.097   7.461  53.151  1.00  0.00     0.069 C 
HETATM    2  C2  UNL     1      39.729   6.610  52.057  1.00  0.00     0.015 A 
HETATM    3  N1  UNL     1      40.670   5.787  51.510  1.00  0.00    -0.326 N 
ATOM      4  H1  UNL     1      41.574   5.679  51.970  1.00  0.00     0.169 HD
HETATM    5  C3  UNL     1      40.422   5.124  50.386  1.00  0.00     0.257 A 
HETATM    6  O1  UNL     1      41.355   4.377  49.931  1.00  0.00    -0.267 OA
HETATM    7  C4  UNL     1      39.223   5.185  49.651  1.00  0.00     0.049 A 
HETATM    8  C11 UNL     1      38.268   6.019  50.192  1.00  0.00    -0.031 A 
HETATM    9  C12 UNL     1      38.551   6.711  51.409  1.00  0.00    -0.026 A 
HETATM   10  C13 UNL     1      37.544   7.285  52.287  1.00  0.00     0.067 C 
HETATM   11  C14 UNL     1      36.777   8.390  51.736  1.00  0.00     0.172 C 
HETATM   12  O3  UNL     1      35.916   7.812  50.744  1.00  0.00    -0.391 OA
HETATM   13  C15 UNL     1      36.567   7.611  49.575  1.00  0.00     0.172 C 
HETATM   14  C16 UNL     1      37.088   6.165  49.326  1.00  0.00     0.066 C 
ENDROOT
BRANCH   7  15
HETATM   15  C5  UNL     1      38.946   4.162  48.675  1.00  0.00     0.077 C 
BRANCH  15  16
HETATM   16  N2  UNL     1      39.525   4.246  47.351  1.00  0.00    -0.289 NA
HETATM   17  C6  UNL     1      39.257   5.564  46.811  1.00  0.00     0.114 C 
HETATM   18  C7  UNL     1      38.419   5.550  45.536  1.00  0.00     0.140 C 
HETATM   19  N3  UNL     1      39.073   4.572  44.693  1.00  0.00    -0.357 N 
HETATM   20  C9  UNL     1      39.001   3.224  45.179  1.00  0.00     0.140 C 
HETATM   21  C10 UNL     1      38.626   3.257  46.615  1.00  0.00     0.114 C 
BRANCH  19  22
HETATM   22  C8  UNL     1      39.683   4.934  43.502  1.00  0.00     0.350 C 
HETATM   23  O2  UNL     1      40.943   4.937  43.366  1.00  0.00    -0.284 OA
ENDBRANCH  19  22
ENDBRANCH  15  16
ENDBRANCH   7  15
TORSDOF 3
ENDMDL
MODEL 3
REMARK VINA RESULT: -8.208041573      1.445      1.654
REMARK  3 active torsions:
REMARK  status: ('A' for Active; 'I' for Inactive)
REMARK    1  A    between atoms: C4_7  and  C5_8 
REMARK    2  A    between atoms: C5_8  and  N2_9 
REMARK    3  A    between atoms: N3_12  and  C8_13 
ROOT
HETATM    1  C1  UNL     1      36.801   8.275  52.156  1.00  0.00     0.069 C 
HETATM    2  C2  UNL     1      37.052   7.479  50.990  1.00  0.00     0.015 A 
HETATM    3  N1  UNL     1      36.047   7.293  50.085  1.00  0.00    -0.326 N 
ATOM      4  H1  UNL     1      35.186   7.832  50.171  1.00  0.00     0.169 HD
HETATM    5  C3  UNL     1      36.179   6.418  49.095  1.00  0.00     0.257 A 
HETATM    6  O1  UNL     1      35.192   6.294  48.290  1.00  0.00    -0.267 OA
HETATM    7  C4  UNL     1      37.308   5.610  48.864  1.00  0.00     0.049 A 
HETATM    8  C11 UNL     1      38.326   5.786  49.778  1.00  0.00    -0.031 A 
HETATM    9  C12 UNL     1      38.169   6.743  50.826  1.00  0.00    -0.026 A 
HETATM   10  C13 UNL     1      39.263   7.314  51.595  1.00  0.00     0.067 C 
HETATM   11  C14 UNL     1      40.002   6.387  52.435  1.00  0.00     0.172 C 
HETATM   12  O3  UNL     1      40.758   5.562  51.535  1.00  0.00    -0.391 OA
HETATM   13  C15 UNL     1      40.000   4.571  51.013  1.00  0.00     0.172 C 
HETATM   14  C16 UNL     1      39.427   4.829  49.589  1.00  0.00     0.066 C 
ENDROOT
BRANCH   7  15
HETATM   15  C5  UNL     1      37.474   4.986  47.577  1.00  0.00     0.077 C 
BRANCH  15  16
HETATM   16  N2  UNL     1      38.751   5.045  46.899  1.00  0.00    -0.289 NA
HETATM   17  C6  UNL     1      38.647   5.979  45.796  1.00  0.00     0.114 C 
HETATM   18  C7  UNL     1      38.892   5.348  44.429  1.00  0.00     0.140 C 
HETATM   19  N3  UNL     1      40.122   4.603  44.598  1.00  0.00    -0.357 N 
HETATM   20  C9  UNL     1      40.022   3.484  45.491  1.00  0.00     0.140 C 
HETATM   21  C10 UNL     1      38.793   3.639  46.309  1.00  0.00     0.114 C 
BRANCH  19  22
HETATM   22  C8  UNL     1      41.277   4.947  43.913  1.00  0.00     0.350 C 
HETATM   23  O2  UNL     1      42.300   5.403  44.506  1.00  0.00    -0.284 OA
ENDBRANCH  19  22
ENDBRANCH  15  16
ENDBRANCH   7  15
TORSDOF 3
ENDMDL
MODEL 4
REMARK VINA RESULT: -8.064720444      1.744      2.977
REMARK  3 active torsions:
REMARK  status: ('A' for Active; 'I' for Inactive)
REMARK    1  A    between atoms: C4_7  and  C5_8 
REMARK    2  A    between atoms: C5_8  and  N2_9 
REMARK    3  A    between atoms: N3_12  and  C8_13 
ROOT
HETATM    1  C1  UNL     1      39.875   7.464  53.354  1.00  0.00     0.069 C 
HETATM    2  C2  UNL     1      39.602   6.631  52.218  1.00  0.00     0.015 A 
HETATM    3  N1  UNL     1      40.593   5.832  51.727  1.00  0.00    -0.326 N 
ATOM      4  H1  UNL     1      41.461   5.726  52.252  1.00  0.00     0.169 HD
HETATM    5  C3  UNL     1      40.440   5.191  50.574  1.00  0.00     0.257 A 
HETATM    6  O1  UNL     1      41.415   4.465  50.176  1.00  0.00    -0.267 OA
HETATM    7  C4  UNL     1      39.299   5.252  49.752  1.00  0.00     0.049 A 
HETATM    8  C11 UNL     1      38.295   6.062  50.236  1.00  0.00    -0.031 A 
HETATM    9  C12 UNL     1      38.475   6.731  51.485  1.00  0.00    -0.026 A 
HETATM   10  C13 UNL     1      37.396   7.274  52.295  1.00  0.00     0.067 C 
HETATM   11  C14 UNL     1      36.658   8.381  51.711  1.00  0.00     0.172 C 
HETATM   12  O3  UNL     1      35.882   7.813  50.645  1.00  0.00    -0.391 OA
HETATM   13  C15 UNL     1      36.623   7.645  49.525  1.00  0.00     0.172 C 
HETATM   14  C16 UNL     1      37.181   6.212  49.286  1.00  0.00     0.066 C 
ENDROOT
BRANCH   7  15
HETATM   15  C5  UNL     1      39.112   4.247  48.737  1.00  0.00     0.077 C 
BRANCH  15  16
HETATM   16  N2  UNL     1      38.906   4.636  47.358  1.00  0.00    -0.289 NA
HETATM   17  C6  UNL     1      38.848   3.439  46.544  1.00  0.00     0.114 C 
HETATM   18  C7  UNL     1      39.944   3.359  45.486  1.00  0.00     0.140 C 
HETATM   19  N3  UNL     1      39.901   4.650  44.832  1.00  0.00    -0.357 N 
HETATM   20  C9  UNL     1      40.291   5.752  45.664  1.00  0.00     0.140 C 
HETATM   21  C10 UNL     1      40.244   5.316  47.082  1.00  0.00     0.114 C 
BRANCH  19  22
HETATM   22  C8  UNL     1      39.539   4.776  43.499  1.00  0.00     0.350 C 
HETATM   23  O2  UNL     1      39.060   3.806  42.839  1.00  0.00    -0.284 OA
ENDBRANCH  19  22
ENDBRANCH  15  16
ENDBRANCH   7  15
TORSDOF 3
ENDMDL
MODEL 5
REMARK VINA RESULT: -8.041169560      1.791      6.526
REMARK  3 active torsions:
REMARK  status: ('A' for Active; 'I' for Inactive)
REMARK    1  A    between atoms: C4_7  and  C5_8 
REMARK    2  A    between atoms: C5_8  and  N2_9 
REMARK    3  A    between atoms: N3_12  and  C8_13 
ROOT
HETATM    1  C1  UNL     1      38.499   2.070  45.664  1.00  0.00     0.069 C 
HETATM    2  C2  UNL     1      38.488   3.410  46.177  1.00  0.00     0.015 A 
HETATM    3  N1  UNL     1      37.403   3.841  46.883  1.00  0.00    -0.326 N 
ATOM      4  H1  UNL     1      36.684   3.173  47.160  1.00  0.00     0.169 HD
HETATM    5  C3  UNL     1      37.271   5.120  47.213  1.00  0.00     0.257 A 
HETATM    6  O1  UNL     1      36.224   5.450  47.870  1.00  0.00    -0.267 OA
HETATM    7  C4  UNL     1      38.184   6.143  46.892  1.00  0.00     0.049 A 
HETATM    8  C11 UNL     1      39.281   5.718  46.173  1.00  0.00    -0.031 A 
HETATM    9  C12 UNL     1      39.408   4.335  45.841  1.00  0.00    -0.026 A 
HETATM   10  C13 UNL     1      40.652   3.688  45.456  1.00  0.00     0.067 C 
HETATM   11  C14 UNL     1      41.238   4.132  44.202  1.00  0.00     0.172 C 
HETATM   12  O3  UNL     1      41.733   5.456  44.449  1.00  0.00    -0.391 OA
HETATM   13  C15 UNL     1      40.746   6.379  44.377  1.00  0.00     0.172 C 
HETATM   14  C16 UNL     1      40.136   6.832  45.736  1.00  0.00     0.066 C 
ENDROOT
BRANCH   7  15
HETATM   15  C5  UNL     1      38.117   7.392  47.606  1.00  0.00     0.077 C 
BRANCH  15  16
HETATM   16  N2  UNL     1      38.813   7.548  48.865  1.00  0.00    -0.289 NA
HETATM   17  C6  UNL     1      39.253   6.242  49.314  1.00  0.00     0.114 C 
HETATM   18  C7  UNL     1      38.656   5.817  50.652  1.00  0.00     0.140 C 
HETATM   19  N3  UNL     1      38.870   6.960  51.515  1.00  0.00    -0.357 N 
HETATM   20  C9  UNL     1      38.123   8.129  51.150  1.00  0.00     0.140 C 
HETATM   21  C10 UNL     1      37.647   7.971  49.753  1.00  0.00     0.114 C 
BRANCH  19  22
HETATM   22  C8  UNL     1      39.709   6.889  52.617  1.00  0.00     0.350 C 
HETATM   23  O2  UNL     1      40.663   6.058  52.683  1.00  0.00    -0.284 OA
ENDBRANCH  19  22
ENDBRANCH  15  16
ENDBRANCH   7  15
TORSDOF 3
ENDMDL
