MODEL 1
REMARK VINA RESULT: -6.997687679      0.000      0.000
REMARK  4 active torsions:
REMARK  status: ('A' for Active; 'I' for Inactive)
REMARK    1  A    between atoms: C7_8  and  N2_9 
REMARK       I    between atoms: N2_9  and  C8_11 
REMARK       I    between atoms: C8_11  and  N3_13 
REMARK    2  A    between atoms: N3_13  and  C9_15 
REMARK    3  A    between atoms: N4_17  and  C11_18 
REMARK    4  A    between atoms: C11_18  and  C12_19 
ROOT
HETATM    1  N2  UNL     1      -5.379   3.914  13.906  1.00  0.00    -0.338 N 
ATOM      2  H2  UNL     1      -6.262   4.050  13.414  1.00  0.00     0.164 HD
HETATM    3  C8  UNL     1      -4.589   2.797  13.563  1.00  0.00     0.316 C 
HETATM    4  O1  UNL     1      -3.496   2.610  14.155  1.00  0.00    -0.247 OA
HETATM    5  N3  UNL     1      -5.023   1.894  12.559  1.00  0.00    -0.334 N 
ATOM      6  H3  UNL     1      -5.911   2.049  12.080  1.00  0.00     0.164 HD
ENDROOT
BRANCH   1   7
HETATM    7  C7  UNL     1      -5.003   4.879  14.920  1.00  0.00     0.090 C 
HETATM    8  C6  UNL     1      -6.223   5.598  15.359  1.00  0.00     0.061 C 
HETATM    9  C5  UNL     1      -6.205   7.083  15.089  1.00  0.00     0.225 C 
HETATM   10  N1  UNL     1      -5.679   7.254  13.758  1.00  0.00     0.093 N 
HETATM   11  C4  UNL     1      -5.210   7.704  16.046  1.00  0.00     0.038 C 
HETATM   12  C1  UNL     1      -5.969   8.523  13.171  1.00  0.00     0.310 C 
HETATM   13  C2  UNL     1      -4.259   7.093  13.980  1.00  0.00     0.225 C 
HETATM   14  C3  UNL     1      -4.036   8.040  15.164  1.00  0.00     0.038 C 
HETATM   15  C16 UNL     1      -3.896   5.720  14.398  1.00  0.00     0.061 C 
ENDBRANCH   1   7
BRANCH   5  16
HETATM   16  C9  UNL     1      -4.208   0.758  12.217  1.00  0.00     0.137 C 
HETATM   17  C10 UNL     1      -4.952  -0.231  11.338  1.00  0.00     0.145 C 
HETATM   18  N4  UNL     1      -4.073  -1.314  11.043  1.00  0.00    -0.408 N 
HETATM   19  C13 UNL     1      -2.956  -0.868  10.289  1.00  0.00     0.119 C 
HETATM   20  C14 UNL     1      -2.103   0.022  11.175  1.00  0.00     0.058 C 
HETATM   21  C15 UNL     1      -2.941   1.232  11.535  1.00  0.00     0.196 C 
HETATM   22  F2  UNL     1      -3.202   2.010  10.445  1.00  0.00    -0.247 F 
BRANCH  18  23
HETATM   23  C11 UNL     1      -3.843  -2.241  12.084  1.00  0.00     0.148 C 
BRANCH  23  24
HETATM   24  C12 UNL     1      -2.925  -3.336  11.586  1.00  0.00     0.241 C 
HETATM   25  F1  UNL     1      -3.642  -4.519  11.650  1.00  0.00    -0.254 F 
ENDBRANCH  23  24
ENDBRANCH  18  23
ENDBRANCH   5  16
TORSDOF 4
ENDMDL
MODEL 2
REMARK VINA RESULT: -6.515304968      3.556      4.403
REMARK  4 active torsions:
REMARK  status: ('A' for Active; 'I' for Inactive)
REMARK    1  A    between atoms: C7_8  and  N2_9 
REMARK       I    between atoms: N2_9  and  C8_11 
REMARK       I    between atoms: C8_11  and  N3_13 
REMARK    2  A    between atoms: N3_13  and  C9_15 
REMARK    3  A    between atoms: N4_17  and  C11_18 
REMARK    4  A    between atoms: C11_18  and  C12_19 
ROOT
HETATM    1  N2  UNL     1      -5.148   4.733   9.734  1.00  0.00    -0.338 N 
ATOM      2  H2  UNL     1      -5.503   4.369   8.850  1.00  0.00     0.164 HD
HETATM    3  C8  UNL     1      -4.652   3.816  10.685  1.00  0.00     0.316 C 
HETATM    4  O1  UNL     1      -4.209   4.244  11.780  1.00  0.00    -0.247 OA
HETATM    5  N3  UNL     1      -4.654   2.425  10.406  1.00  0.00    -0.334 N 
ATOM      6  H3  UNL     1      -5.015   2.082   9.515  1.00  0.00     0.164 HD
ENDROOT
BRANCH   1   7
HETATM    7  C7  UNL     1      -5.179   6.167   9.946  1.00  0.00     0.090 C 
HETATM    8  C6  UNL     1      -6.296   6.481  10.869  1.00  0.00     0.061 C 
HETATM    9  C5  UNL     1      -7.371   7.359  10.275  1.00  0.00     0.225 C 
HETATM   10  N1  UNL     1      -7.621   6.861   8.945  1.00  0.00     0.093 N 
HETATM   11  C4  UNL     1      -6.789   8.748  10.130  1.00  0.00     0.038 C 
HETATM   12  C1  UNL     1      -8.868   7.280   8.387  1.00  0.00     0.310 C 
HETATM   13  C2  UNL     1      -6.507   7.416   8.209  1.00  0.00     0.225 C 
HETATM   14  C3  UNL     1      -6.564   8.884   8.647  1.00  0.00     0.038 C 
HETATM   15  C16 UNL     1      -5.204   6.849   8.628  1.00  0.00     0.061 C 
ENDBRANCH   1   7
BRANCH   5  16
HETATM   16  C9  UNL     1      -4.146   1.499  11.383  1.00  0.00     0.137 C 
HETATM   17  C10 UNL     1      -5.261   0.818  12.154  1.00  0.00     0.145 C 
HETATM   18  N4  UNL     1      -4.672  -0.082  13.089  1.00  0.00    -0.408 N 
HETATM   19  C13 UNL     1      -3.959  -1.112  12.419  1.00  0.00     0.119 C 
HETATM   20  C14 UNL     1      -2.750  -0.496  11.742  1.00  0.00     0.058 C 
HETATM   21  C15 UNL     1      -3.265   0.474  10.697  1.00  0.00     0.196 C 
HETATM   22  F2  UNL     1      -3.915  -0.169   9.685  1.00  0.00    -0.247 F 
BRANCH  18  23
HETATM   23  C11 UNL     1      -4.082   0.496  14.235  1.00  0.00     0.148 C 
BRANCH  23  24
HETATM   24  C12 UNL     1      -4.623  -0.184  15.474  1.00  0.00     0.241 C 
HETATM   25  F1  UNL     1      -3.844   0.244  16.537  1.00  0.00    -0.254 F 
ENDBRANCH  23  24
ENDBRANCH  18  23
ENDBRANCH   5  16
TORSDOF 4
ENDMDL
MODEL 3
REMARK VINA RESULT: -6.436903535      5.125      6.678
REMARK  4 active torsions:
REMARK  status: ('A' for Active; 'I' for Inactive)
REMARK    1  A    between atoms: C7_8  and  N2_9 
REMARK       I    between atoms: N2_9  and  C8_11 
REMARK       I    between atoms: C8_11  and  N3_13 
REMARK    2  A    between atoms: N3_13  and  C9_15 
REMARK    3  A    between atoms: N4_17  and  C11_18 
REMARK    4  A    between atoms: C11_18  and  C12_19 
ROOT
HETATM    1  N2  UNL     1      -0.178   3.928   9.828  1.00  0.00    -0.338 N 
ATOM      2  H2  UNL     1      -0.427   4.763  10.358  1.00  0.00     0.164 HD
HETATM    3  C8  UNL     1      -0.992   2.784   9.962  1.00  0.00     0.316 C 
HETATM    4  O1  UNL     1      -0.705   1.744   9.318  1.00  0.00    -0.247 OA
HETATM    5  N3  UNL     1      -2.126   2.809  10.815  1.00  0.00    -0.334 N 
ATOM      6  H3  UNL     1      -2.356   3.655  11.336  1.00  0.00     0.164 HD
ENDROOT
BRANCH   1   7
HETATM    7  C7  UNL     1       0.996   3.979   8.978  1.00  0.00     0.090 C 
HETATM    8  C6  UNL     1       2.159   3.485   9.752  1.00  0.00     0.061 C 
HETATM    9  C5  UNL     1       3.255   4.502   9.955  1.00  0.00     0.225 C 
HETATM   10  N1  UNL     1       2.607   5.743  10.298  1.00  0.00     0.093 N 
HETATM   11  C4  UNL     1       3.933   4.706   8.618  1.00  0.00     0.038 C 
HETATM   12  C1  UNL     1       3.463   6.699  10.925  1.00  0.00     0.310 C 
HETATM   13  C2  UNL     1       2.162   6.210   9.003  1.00  0.00     0.225 C 
HETATM   14  C3  UNL     1       3.446   6.063   8.179  1.00  0.00     0.038 C 
HETATM   15  C16 UNL     1       1.118   5.345   8.409  1.00  0.00     0.061 C 
ENDBRANCH   1   7
BRANCH   5  16
HETATM   16  C9  UNL     1      -2.950   1.636  10.943  1.00  0.00     0.137 C 
HETATM   17  C10 UNL     1      -2.526   0.768  12.114  1.00  0.00     0.145 C 
HETATM   18  N4  UNL     1      -3.395  -0.361  12.171  1.00  0.00    -0.408 N 
HETATM   19  C13 UNL     1      -4.731   0.043  12.433  1.00  0.00     0.119 C 
HETATM   20  C14 UNL     1      -5.249   0.802  11.226  1.00  0.00     0.058 C 
HETATM   21  C15 UNL     1      -4.401   2.050  11.082  1.00  0.00     0.196 C 
HETATM   22  F2  UNL     1      -4.593   2.915  12.119  1.00  0.00    -0.247 F 
BRANCH  18  23
HETATM   23  C11 UNL     1      -3.184  -1.368  11.204  1.00  0.00     0.148 C 
BRANCH  23  24
HETATM   24  C12 UNL     1      -3.466  -2.721  11.820  1.00  0.00     0.241 C 
HETATM   25  F1  UNL     1      -2.610  -3.624  11.211  1.00  0.00    -0.254 F 
ENDBRANCH  23  24
ENDBRANCH  18  23
ENDBRANCH   5  16
TORSDOF 4
ENDMDL
MODEL 4
REMARK VINA RESULT: -6.398090169      3.101      8.369
REMARK  4 active torsions:
REMARK  status: ('A' for Active; 'I' for Inactive)
REMARK    1  A    between atoms: C7_8  and  N2_9 
REMARK       I    between atoms: N2_9  and  C8_11 
REMARK       I    between atoms: C8_11  and  N3_13 
REMARK    2  A    between atoms: N3_13  and  C9_15 
REMARK    3  A    between atoms: N4_17  and  C11_18 
REMARK    4  A    between atoms: C11_18  and  C12_19 
ROOT
HETATM    1  N2  UNL     1      -4.432   2.502  12.921  1.00  0.00    -0.338 N 
ATOM      2  H2  UNL     1      -5.225   2.515  12.279  1.00  0.00     0.164 HD
HETATM    3  C8  UNL     1      -4.197   3.645  13.715  1.00  0.00     0.316 C 
HETATM    4  O1  UNL     1      -3.228   3.650  14.514  1.00  0.00    -0.247 OA
HETATM    5  N3  UNL     1      -5.047   4.776  13.611  1.00  0.00    -0.334 N 
ATOM      6  H3  UNL     1      -5.833   4.767  12.960  1.00  0.00     0.164 HD
ENDROOT
BRANCH   1   7
HETATM    7  C7  UNL     1      -3.608   1.310  12.970  1.00  0.00     0.090 C 
HETATM    8  C6  UNL     1      -2.659   1.349  11.833  1.00  0.00     0.061 C 
HETATM    9  C5  UNL     1      -2.818   0.219  10.845  1.00  0.00     0.225 C 
HETATM   10  N1  UNL     1      -4.235   0.060  10.627  1.00  0.00     0.093 N 
HETATM   11  C4  UNL     1      -2.325  -1.043  11.519  1.00  0.00     0.038 C 
HETATM   12  C1  UNL     1      -4.568  -0.657   9.437  1.00  0.00     0.310 C 
HETATM   13  C2  UNL     1      -4.634  -0.673  11.808  1.00  0.00     0.225 C 
HETATM   14  C3  UNL     1      -3.593  -1.799  11.823  1.00  0.00     0.038 C 
HETATM   15  C16 UNL     1      -4.490   0.119  13.051  1.00  0.00     0.061 C 
ENDBRANCH   1   7
BRANCH   5  16
HETATM   16  C9  UNL     1      -4.798   5.935  14.426  1.00  0.00     0.137 C 
HETATM   17  C10 UNL     1      -3.899   6.938  13.726  1.00  0.00     0.145 C 
HETATM   18  N4  UNL     1      -3.712   8.052  14.597  1.00  0.00    -0.408 N 
HETATM   19  C13 UNL     1      -4.943   8.716  14.840  1.00  0.00     0.119 C 
HETATM   20  C14 UNL     1      -5.830   7.799  15.659  1.00  0.00     0.058 C 
HETATM   21  C15 UNL     1      -6.116   6.576  14.811  1.00  0.00     0.196 C 
HETATM   22  F2  UNL     1      -6.879   6.881  13.722  1.00  0.00    -0.247 F 
BRANCH  18  23
HETATM   23  C11 UNL     1      -2.835   7.859  15.687  1.00  0.00     0.148 C 
BRANCH  23  24
HETATM   24  C12 UNL     1      -1.428   8.228  15.271  1.00  0.00     0.241 C 
HETATM   25  F1  UNL     1      -1.026   9.267  16.095  1.00  0.00    -0.254 F 
ENDBRANCH  23  24
ENDBRANCH  18  23
ENDBRANCH   5  16
TORSDOF 4
ENDMDL
MODEL 5
REMARK VINA RESULT: -6.361479637      5.163      7.909
REMARK  4 active torsions:
REMARK  status: ('A' for Active; 'I' for Inactive)
REMARK    1  A    between atoms: C7_8  and  N2_9 
REMARK       I    between atoms: N2_9  and  C8_11 
REMARK       I    between atoms: C8_11  and  N3_13 
REMARK    2  A    between atoms: N3_13  and  C9_15 
REMARK    3  A    between atoms: N4_17  and  C11_18 
REMARK    4  A    between atoms: C11_18  and  C12_19 
ROOT
HETATM    1  N2  UNL     1      -1.692   2.189  11.176  1.00  0.00    -0.338 N 
ATOM      2  H2  UNL     1      -1.816   2.551  12.122  1.00  0.00     0.164 HD
HETATM    3  C8  UNL     1      -0.563   2.609  10.443  1.00  0.00     0.316 C 
HETATM    4  O1  UNL     1      -0.390   2.174   9.277  1.00  0.00    -0.247 OA
HETATM    5  N3  UNL     1       0.367   3.513  11.017  1.00  0.00    -0.334 N 
ATOM      6  H3  UNL     1       0.222   3.864  11.963  1.00  0.00     0.164 HD
ENDROOT
BRANCH   1   7
HETATM    7  C7  UNL     1      -2.686   1.268  10.659  1.00  0.00     0.090 C 
HETATM    8  C6  UNL     1      -4.030   1.774  11.025  1.00  0.00     0.061 C 
HETATM    9  C5  UNL     1      -4.821   0.854  11.924  1.00  0.00     0.225 C 
HETATM   10  N1  UNL     1      -3.907   0.375  12.930  1.00  0.00     0.093 N 
HETATM   11  C4  UNL     1      -5.238  -0.339  11.093  1.00  0.00     0.038 C 
HETATM   12  C1  UNL     1      -4.541  -0.160  14.092  1.00  0.00     0.310 C 
HETATM   13  C2  UNL     1      -3.188  -0.651  12.208  1.00  0.00     0.225 C 
HETATM   14  C3  UNL     1      -4.345  -1.445  11.591  1.00  0.00     0.038 C 
HETATM   15  C16 UNL     1      -2.354  -0.105  11.114  1.00  0.00     0.061 C 
ENDBRANCH   1   7
BRANCH   5  16
HETATM   16  C9  UNL     1       1.516   3.935  10.258  1.00  0.00     0.137 C 
HETATM   17  C10 UNL     1       1.199   5.111   9.354  1.00  0.00     0.145 C 
HETATM   18  N4  UNL     1       2.387   5.466   8.650  1.00  0.00    -0.408 N 
HETATM   19  C13 UNL     1       3.393   5.910   9.549  1.00  0.00     0.119 C 
HETATM   20  C14 UNL     1       3.842   4.729  10.388  1.00  0.00     0.058 C 
HETATM   21  C15 UNL     1       2.648   4.278  11.205  1.00  0.00     0.196 C 
HETATM   22  F2  UNL     1       2.283   5.214  12.127  1.00  0.00    -0.247 F 
BRANCH  18  23
HETATM   23  C11 UNL     1       2.772   4.613   7.592  1.00  0.00     0.148 C 
BRANCH  23  24
HETATM   24  C12 UNL     1       1.613   4.452   6.632  1.00  0.00     0.241 C 
HETATM   25  F1  UNL     1       1.241   3.118   6.674  1.00  0.00    -0.254 F 
ENDBRANCH  23  24
ENDBRANCH  18  23
ENDBRANCH   5  16
TORSDOF 4
ENDMDL
