MODEL 1
REMARK VINA RESULT: -8.709864959      0.000      0.000
REMARK  5 active torsions:
REMARK  status: ('A' for Active; 'I' for Inactive)
REMARK       I    between atoms: C1_2  and  N1_3 
REMARK    1  A    between atoms: C1_2  and  C16_22 
REMARK    2  A    between atoms: N1_3  and  C2_5 
REMARK    3  A    between atoms: C5_8  and  C6_9 
REMARK    4  A    between atoms: C6_9  and  N2_10 
REMARK    5  A    between atoms: C11_15  and  O2_16 
ROOT
HETATM    1  C2  UNL     1      -6.352   3.098  14.915  1.00  0.00     0.085 C 
HETATM    2  C3  UNL     1      -6.054   4.574  15.062  1.00  0.00     0.026 C 
HETATM    3  C4  UNL     1      -5.396   4.905  13.743  1.00  0.00     0.012 C 
HETATM    4  C5  UNL     1      -4.455   3.706  13.551  1.00  0.00     0.026 C 
HETATM    5  C15 UNL     1      -5.064   2.565  14.258  1.00  0.00     0.035 C 
ENDROOT
BRANCH   4   6
HETATM    6  C6  UNL     1      -4.054   3.553  12.124  1.00  0.00     0.063 C 
BRANCH   6   7
HETATM    7  N2  UNL     1      -3.177   2.502  11.886  1.00  0.00    -0.388 N 
HETATM    8  C7  UNL     1      -2.246   2.475  10.868  1.00  0.00     0.123 C 
HETATM    9  C8  UNL     1      -1.919   0.985  10.660  1.00  0.00     0.026 C 
HETATM   10  C9  UNL     1      -2.484   0.346  11.914  1.00  0.00     0.012 C 
HETATM   11  C10 UNL     1      -2.743  -1.110  11.770  1.00  0.00     0.038 C 
HETATM   12  C14 UNL     1      -3.725   1.182  12.086  1.00  0.00     0.087 C 
HETATM   13  C11 UNL     1      -4.205  -1.463  11.838  1.00  0.00     0.118 C 
HETATM   14  C12 UNL     1      -4.934  -0.630  10.826  1.00  0.00     0.034 C 
HETATM   15  C13 UNL     1      -4.838   0.815  11.180  1.00  0.00     0.028 C 
BRANCH  13  16
HETATM   16  O2  UNL     1      -4.646  -1.283  13.134  1.00  0.00    -0.396 OA
ATOM     17  H2  UNL     1      -4.908  -0.377  13.245  1.00  0.00     0.210 HD
ENDBRANCH  13  16
ENDBRANCH   6   7
ENDBRANCH   4   6
BRANCH   1  18
HETATM   18  N1  UNL     1      -6.620   2.460  16.164  1.00  0.00    -0.349 N 
HETATM   19  C1  UNL     1      -6.324   1.125  16.498  1.00  0.00     0.325 C 
HETATM   20  O1  UNL     1      -5.770   0.391  15.647  1.00  0.00    -0.263 OA
ATOM     21  H1  UNL     1      -7.070   3.026  16.884  1.00  0.00     0.163 HD
BRANCH  19  22
HETATM   22  C16 UNL     1      -6.648   0.558  17.831  1.00  0.00     0.472 C 
HETATM   23  F1  UNL     1      -6.520   1.539  18.823  1.00  0.00    -0.162 F 
HETATM   24  F2  UNL     1      -5.771  -0.456  18.188  1.00  0.00    -0.162 F 
HETATM   25  F3  UNL     1      -7.922   0.018  17.841  1.00  0.00    -0.162 F 
ENDBRANCH  19  22
ENDBRANCH   1  18
TORSDOF 5
ENDMDL
MODEL 2
REMARK VINA RESULT: -8.575292963      2.549      3.995
REMARK  5 active torsions:
REMARK  status: ('A' for Active; 'I' for Inactive)
REMARK       I    between atoms: C1_2  and  N1_3 
REMARK    1  A    between atoms: C1_2  and  C16_22 
REMARK    2  A    between atoms: N1_3  and  C2_5 
REMARK    3  A    between atoms: C5_8  and  C6_9 
REMARK    4  A    between atoms: C6_9  and  N2_10 
REMARK    5  A    between atoms: C11_15  and  O2_16 
ROOT
HETATM    1  C2  UNL     1      -4.446   1.281  14.274  1.00  0.00     0.085 C 
HETATM    2  C3  UNL     1      -4.364   0.116  13.314  1.00  0.00     0.026 C 
HETATM    3  C4  UNL     1      -3.737   0.746  12.092  1.00  0.00     0.012 C 
HETATM    4  C5  UNL     1      -4.503   2.073  11.995  1.00  0.00     0.026 C 
HETATM    5  C15 UNL     1      -4.923   2.428  13.363  1.00  0.00     0.035 C 
ENDROOT
BRANCH   4   6
HETATM    6  C6  UNL     1      -3.758   3.072  11.177  1.00  0.00     0.063 C 
BRANCH   6   7
HETATM    7  N2  UNL     1      -2.378   3.024  11.336  1.00  0.00    -0.388 N 
HETATM    8  C7  UNL     1      -1.688   3.637  12.362  1.00  0.00     0.123 C 
HETATM    9  C8  UNL     1      -0.244   3.781  11.846  1.00  0.00     0.026 C 
HETATM   10  C9  UNL     1      -0.226   2.848  10.651  1.00  0.00     0.012 C 
HETATM   11  C10 UNL     1       0.864   3.144   9.687  1.00  0.00     0.038 C 
HETATM   12  C14 UNL     1      -1.612   3.099  10.116  1.00  0.00     0.087 C 
HETATM   13  C11 UNL     1       0.363   3.626   8.352  1.00  0.00     0.118 C 
HETATM   14  C12 UNL     1      -0.549   4.794   8.590  1.00  0.00     0.034 C 
HETATM   15  C13 UNL     1      -1.752   4.362   9.355  1.00  0.00     0.028 C 
BRANCH  13  16
HETATM   16  O2  UNL     1      -0.239   2.571   7.695  1.00  0.00    -0.396 OA
ATOM     17  H2  UNL     1       0.088   2.539   6.804  1.00  0.00     0.210 HD
ENDBRANCH  13  16
ENDBRANCH   6   7
ENDBRANCH   4   6
BRANCH   1  18
HETATM   18  N1  UNL     1      -5.349   1.046  15.356  1.00  0.00    -0.349 N 
HETATM   19  C1  UNL     1      -5.042   0.414  16.575  1.00  0.00     0.325 C 
HETATM   20  O1  UNL     1      -3.875   0.004  16.774  1.00  0.00    -0.263 OA
ATOM     21  H1  UNL     1      -6.309   1.367  15.233  1.00  0.00     0.163 HD
BRANCH  19  22
HETATM   22  C16 UNL     1      -6.060   0.218  17.637  1.00  0.00     0.472 C 
HETATM   23  F1  UNL     1      -7.347   0.418  17.124  1.00  0.00    -0.162 F 
HETATM   24  F2  UNL     1      -5.917   1.138  18.666  1.00  0.00    -0.162 F 
HETATM   25  F3  UNL     1      -5.950  -1.042  18.199  1.00  0.00    -0.162 F 
ENDBRANCH  19  22
ENDBRANCH   1  18
TORSDOF 5
ENDMDL
MODEL 3
REMARK VINA RESULT: -8.395604372      0.938      1.245
REMARK  5 active torsions:
REMARK  status: ('A' for Active; 'I' for Inactive)
REMARK       I    between atoms: C1_2  and  N1_3 
REMARK    1  A    between atoms: C1_2  and  C16_22 
REMARK    2  A    between atoms: N1_3  and  C2_5 
REMARK    3  A    between atoms: C5_8  and  C6_9 
REMARK    4  A    between atoms: C6_9  and  N2_10 
REMARK    5  A    between atoms: C11_15  and  O2_16 
ROOT
HETATM    1  C2  UNL     1      -5.688   2.807  14.860  1.00  0.00     0.085 C 
HETATM    2  C3  UNL     1      -6.248   4.205  14.719  1.00  0.00     0.026 C 
HETATM    3  C4  UNL     1      -5.369   4.799  13.642  1.00  0.00     0.012 C 
HETATM    4  C5  UNL     1      -3.976   4.315  14.070  1.00  0.00     0.026 C 
HETATM    5  C15 UNL     1      -4.167   3.052  14.806  1.00  0.00     0.035 C 
ENDROOT
BRANCH   4   6
HETATM    6  C6  UNL     1      -3.013   4.359  12.933  1.00  0.00     0.063 C 
BRANCH   6   7
HETATM    7  N2  UNL     1      -2.417   3.138  12.641  1.00  0.00    -0.388 N 
HETATM    8  C7  UNL     1      -1.265   2.989  11.896  1.00  0.00     0.123 C 
HETATM    9  C8  UNL     1      -1.298   1.534  11.391  1.00  0.00     0.026 C 
HETATM   10  C9  UNL     1      -2.362   0.905  12.269  1.00  0.00     0.012 C 
HETATM   11  C10 UNL     1      -2.941  -0.337  11.696  1.00  0.00     0.038 C 
HETATM   12  C14 UNL     1      -3.329   2.056  12.358  1.00  0.00     0.087 C 
HETATM   13  C11 UNL     1      -4.395  -0.200  11.328  1.00  0.00     0.118 C 
HETATM   14  C12 UNL     1      -4.537   0.990  10.426  1.00  0.00     0.034 C 
HETATM   15  C13 UNL     1      -4.173   2.238  11.155  1.00  0.00     0.028 C 
BRANCH  13  16
HETATM   16  O2  UNL     1      -5.141  -0.117  12.487  1.00  0.00    -0.396 OA
ATOM     17  H2  UNL     1      -5.732  -0.859  12.524  1.00  0.00     0.210 HD
ENDBRANCH  13  16
ENDBRANCH   6   7
ENDBRANCH   4   6
BRANCH   1  18
HETATM   18  N1  UNL     1      -6.085   2.171  16.075  1.00  0.00    -0.349 N 
HETATM   19  C1  UNL     1      -5.939   0.807  16.388  1.00  0.00     0.325 C 
HETATM   20  O1  UNL     1      -5.413   0.041  15.548  1.00  0.00    -0.263 OA
ATOM     21  H1  UNL     1      -6.516   2.763  16.786  1.00  0.00     0.163 HD
BRANCH  19  22
HETATM   22  C16 UNL     1      -6.389   0.246  17.687  1.00  0.00     0.472 C 
HETATM   23  F1  UNL     1      -7.787   0.184  17.735  1.00  0.00    -0.162 F 
HETATM   24  F2  UNL     1      -6.010   1.046  18.755  1.00  0.00    -0.162 F 
HETATM   25  F3  UNL     1      -5.838  -1.006  17.900  1.00  0.00    -0.162 F 
ENDBRANCH  19  22
ENDBRANCH   1  18
TORSDOF 5
ENDMDL
MODEL 4
REMARK VINA RESULT: -8.224318447      2.785      4.469
REMARK  5 active torsions:
REMARK  status: ('A' for Active; 'I' for Inactive)
REMARK       I    between atoms: C1_2  and  N1_3 
REMARK    1  A    between atoms: C1_2  and  C16_22 
REMARK    2  A    between atoms: N1_3  and  C2_5 
REMARK    3  A    between atoms: C5_8  and  C6_9 
REMARK    4  A    between atoms: C6_9  and  N2_10 
REMARK    5  A    between atoms: C11_15  and  O2_16 
ROOT
HETATM    1  C2  UNL     1      -4.194   0.717  14.226  1.00  0.00     0.085 C 
HETATM    2  C3  UNL     1      -4.518  -0.510  13.404  1.00  0.00     0.026 C 
HETATM    3  C4  UNL     1      -3.494  -0.435  12.295  1.00  0.00     0.012 C 
HETATM    4  C5  UNL     1      -3.533   1.056  11.930  1.00  0.00     0.026 C 
HETATM    5  C15 UNL     1      -3.942   1.785  13.144  1.00  0.00     0.035 C 
ENDROOT
BRANCH   4   6
HETATM    6  C6  UNL     1      -2.296   1.471  11.209  1.00  0.00     0.063 C 
BRANCH   6   7
HETATM    7  N2  UNL     1      -1.961   2.809  11.375  1.00  0.00    -0.388 N 
HETATM    8  C7  UNL     1      -2.652   3.864  10.813  1.00  0.00     0.123 C 
HETATM    9  C8  UNL     1      -1.655   5.037  10.800  1.00  0.00     0.026 C 
HETATM   10  C9  UNL     1      -0.570   4.558  11.745  1.00  0.00     0.012 C 
HETATM   11  C10 UNL     1       0.728   5.256  11.556  1.00  0.00     0.038 C 
HETATM   12  C14 UNL     1      -0.547   3.097  11.381  1.00  0.00     0.087 C 
HETATM   13  C11 UNL     1       1.820   4.353  11.048  1.00  0.00     0.118 C 
HETATM   14  C12 UNL     1       1.324   3.677   9.803  1.00  0.00     0.034 C 
HETATM   15  C13 UNL     1       0.167   2.794  10.119  1.00  0.00     0.028 C 
BRANCH  13  16
HETATM   16  O2  UNL     1       2.178   3.478  12.054  1.00  0.00    -0.396 OA
ATOM     17  H2  UNL     1       3.114   3.322  12.006  1.00  0.00     0.210 HD
ENDBRANCH  13  16
ENDBRANCH   6   7
ENDBRANCH   4   6
BRANCH   1  18
HETATM   18  N1  UNL     1      -5.255   1.089  15.108  1.00  0.00    -0.349 N 
HETATM   19  C1  UNL     1      -5.411   0.678  16.444  1.00  0.00     0.325 C 
HETATM   20  O1  UNL     1      -4.558  -0.088  16.950  1.00  0.00    -0.263 OA
ATOM     21  H1  UNL     1      -5.969   1.714  14.732  1.00  0.00     0.163 HD
BRANCH  19  22
HETATM   22  C16 UNL     1      -6.556   1.125  17.276  1.00  0.00     0.472 C 
HETATM   23  F1  UNL     1      -6.204   1.130  18.631  1.00  0.00    -0.162 F 
HETATM   24  F2  UNL     1      -7.639   0.263  17.171  1.00  0.00    -0.162 F 
HETATM   25  F3  UNL     1      -6.992   2.377  16.881  1.00  0.00    -0.162 F 
ENDBRANCH  19  22
ENDBRANCH   1  18
TORSDOF 5
ENDMDL
MODEL 5
REMARK VINA RESULT: -8.138537281      2.446      4.107
REMARK  5 active torsions:
REMARK  status: ('A' for Active; 'I' for Inactive)
REMARK       I    between atoms: C1_2  and  N1_3 
REMARK    1  A    between atoms: C1_2  and  C16_22 
REMARK    2  A    between atoms: N1_3  and  C2_5 
REMARK    3  A    between atoms: C5_8  and  C6_9 
REMARK    4  A    between atoms: C6_9  and  N2_10 
REMARK    5  A    between atoms: C11_15  and  O2_16 
ROOT
HETATM    1  C2  UNL     1      -4.492   0.996  14.135  1.00  0.00     0.085 C 
HETATM    2  C3  UNL     1      -4.302  -0.270  13.330  1.00  0.00     0.026 C 
HETATM    3  C4  UNL     1      -3.722   0.254  12.036  1.00  0.00     0.012 C 
HETATM    4  C5  UNL     1      -4.599   1.486  11.774  1.00  0.00     0.026 C 
HETATM    5  C15 UNL     1      -5.060   1.973  13.087  1.00  0.00     0.035 C 
ENDROOT
BRANCH   4   6
HETATM    6  C6  UNL     1      -3.936   2.435  10.834  1.00  0.00     0.063 C 
BRANCH   6   7
HETATM    7  N2  UNL     1      -3.386   3.554  11.447  1.00  0.00    -0.388 N 
HETATM    8  C7  UNL     1      -3.894   4.833  11.338  1.00  0.00     0.123 C 
HETATM    9  C8  UNL     1      -2.718   5.764  11.688  1.00  0.00     0.026 C 
HETATM   10  C9  UNL     1      -1.728   4.816  12.336  1.00  0.00     0.012 C 
HETATM   11  C10 UNL     1      -0.333   5.326  12.334  1.00  0.00     0.038 C 
HETATM   12  C14 UNL     1      -1.945   3.599  11.474  1.00  0.00     0.087 C 
HETATM   13  C11 UNL     1       0.597   4.511  11.475  1.00  0.00     0.118 C 
HETATM   14  C12 UNL     1      -0.000   4.416  10.102  1.00  0.00     0.034 C 
HETATM   15  C13 UNL     1      -1.287   3.667  10.148  1.00  0.00     0.028 C 
BRANCH  13  16
HETATM   16  O2  UNL     1       0.804   3.288  12.081  1.00  0.00    -0.396 OA
ATOM     17  H2  UNL     1       1.155   3.433  12.952  1.00  0.00     0.210 HD
ENDBRANCH  13  16
ENDBRANCH   6   7
ENDBRANCH   4   6
BRANCH   1  18
HETATM   18  N1  UNL     1      -5.380   0.821  15.240  1.00  0.00    -0.349 N 
HETATM   19  C1  UNL     1      -5.033   0.362  16.524  1.00  0.00     0.325 C 
HETATM   20  O1  UNL     1      -3.839   0.068  16.765  1.00  0.00    -0.263 OA
ATOM     21  H1  UNL     1      -6.362   1.051  15.084  1.00  0.00     0.163 HD
BRANCH  19  22
HETATM   22  C16 UNL     1      -6.039   0.215  17.605  1.00  0.00     0.472 C 
HETATM   23  F1  UNL     1      -5.786   1.130  18.636  1.00  0.00    -0.162 F 
HETATM   24  F2  UNL     1      -5.986  -1.040  18.194  1.00  0.00    -0.162 F 
HETATM   25  F3  UNL     1      -7.321   0.380  17.111  1.00  0.00    -0.162 F 
ENDBRANCH  19  22
ENDBRANCH   1  18
TORSDOF 5
ENDMDL
