MODEL 1
REMARK VINA RESULT: -7.341121256      0.000      0.000
REMARK  6 active torsions:
REMARK  status: ('A' for Active; 'I' for Inactive)
REMARK    1  A    between atoms: C4_6  and  N2_7 
REMARK    2  A    between atoms: N2_7  and  C5_9 
REMARK    3  A    between atoms: C11_18  and  N5_19 
REMARK    4  A    between atoms: N5_19  and  C12_21 
REMARK    5  A    between atoms: C12_21  and  C14_23 
REMARK    6  A    between atoms: C14_23  and  C15_24 
ROOT
HETATM    1  C1  UNL     1      -4.514  -0.378  15.893  1.00  0.00     0.054 C 
HETATM    2  C2  UNL     1      -5.140   0.931  15.573  1.00  0.00    -0.002 A 
HETATM    3  C3  UNL     1      -6.133   1.506  16.332  1.00  0.00     0.116 A 
HETATM    4  N1  UNL     1      -6.670   2.714  15.987  1.00  0.00    -0.201 N 
ATOM      5  H1  UNL     1      -7.405   3.111  16.572  1.00  0.00     0.183 HD
HETATM    6  C4  UNL     1      -6.265   3.396  14.908  1.00  0.00     0.679 A 
HETATM    7  N4  UNL     1      -5.276   2.811  14.164  1.00  0.00    -0.176 N 
ATOM      8  H4  UNL     1      -4.942   3.303  13.334  1.00  0.00     0.186 HD
HETATM    9  C11 UNL     1      -4.722   1.632  14.463  1.00  0.00     0.124 A 
ENDROOT
BRANCH   6  10
HETATM   10  N2  UNL     1      -6.746   4.514  14.569  1.00  0.00    -0.221 N 
ATOM     11  H2  UNL     1      -7.764   4.511  14.507  1.00  0.00     0.178 HD
BRANCH  10  12
HETATM   12  C5  UNL     1      -6.179   5.760  14.261  1.00  0.00     0.102 C 
HETATM   13  C6  UNL     1      -6.779   6.463  13.078  1.00  0.00     0.056 C 
HETATM   14  C7  UNL     1      -6.898   7.953  13.311  1.00  0.00     0.274 C 
HETATM   15  N3  UNL     1      -5.638   8.425  13.791  1.00  0.00     0.084 N 
HETATM   16  C8  UNL     1      -4.583   8.419  12.827  1.00  0.00     0.309 C 
HETATM   17  C9  UNL     1      -5.271   7.910  15.072  1.00  0.00     0.274 C 
HETATM   18  C10 UNL     1      -5.981   6.650  15.468  1.00  0.00     0.056 C 
ENDBRANCH  10  12
ENDBRANCH   6  10
BRANCH   9  19
HETATM   19  N5  UNL     1      -3.793   1.125  13.727  1.00  0.00    -0.371 N 
ATOM     20  H5  UNL     1      -2.843   1.100  14.096  1.00  0.00     0.161 HD
BRANCH  19  21
HETATM   21  C12 UNL     1      -4.029   0.591  12.407  1.00  0.00     0.084 C 
HETATM   22  C13 UNL     1      -5.272   1.103  11.759  1.00  0.00     0.032 C 
BRANCH  21  23
HETATM   23  C14 UNL     1      -4.078  -0.922  12.415  1.00  0.00     0.103 C 
BRANCH  23  24
HETATM   24  C15 UNL     1      -3.108  -1.519  11.422  1.00  0.00     0.241 C 
HETATM   25  C16 UNL     1      -2.961  -3.002  11.574  1.00  0.00     0.090 C 
HETATM   26  F1  UNL     1      -1.874  -0.949  11.676  1.00  0.00    -0.207 F 
HETATM   27  F2  UNL     1      -3.440  -1.239  10.124  1.00  0.00    -0.207 F 
ENDBRANCH  23  24
ENDBRANCH  21  23
ENDBRANCH  19  21
ENDBRANCH   9  19
TORSDOF 6
ENDMDL
MODEL 2
REMARK VINA RESULT: -7.133833308      4.004      5.349
REMARK  6 active torsions:
REMARK  status: ('A' for Active; 'I' for Inactive)
REMARK    1  A    between atoms: C4_6  and  N2_7 
REMARK    2  A    between atoms: N2_7  and  C5_9 
REMARK    3  A    between atoms: C11_18  and  N5_19 
REMARK    4  A    between atoms: N5_19  and  C12_21 
REMARK    5  A    between atoms: C12_21  and  C14_23 
REMARK    6  A    between atoms: C14_23  and  C15_24 
ROOT
HETATM    1  C1  UNL     1      -5.482   2.995  14.985  1.00  0.00     0.054 C 
HETATM    2  C2  UNL     1      -4.165   3.317  14.377  1.00  0.00    -0.002 A 
HETATM    3  C3  UNL     1      -3.537   4.534  14.521  1.00  0.00     0.116 A 
HETATM    4  N1  UNL     1      -2.325   4.772  13.937  1.00  0.00    -0.201 N 
ATOM      5  H1  UNL     1      -1.889   5.684  14.064  1.00  0.00     0.183 HD
HETATM    6  C4  UNL     1      -1.689   3.849  13.205  1.00  0.00     0.679 A 
HETATM    7  N4  UNL     1      -2.326   2.644  13.072  1.00  0.00    -0.176 N 
ATOM      8  H4  UNL     1      -1.870   1.916  12.520  1.00  0.00     0.186 HD
HETATM    9  C11 UNL     1      -3.511   2.367  13.624  1.00  0.00     0.124 A 
ENDROOT
BRANCH   6  10
HETATM   10  N2  UNL     1      -0.568   4.045  12.656  1.00  0.00    -0.221 N 
ATOM     11  H2  UNL     1       0.140   4.391  13.304  1.00  0.00     0.178 HD
BRANCH  10  12
HETATM   12  C5  UNL     1      -0.089   3.889  11.347  1.00  0.00     0.102 C 
HETATM   13  C6  UNL     1      -0.667   4.835  10.335  1.00  0.00     0.056 C 
HETATM   14  C7  UNL     1       0.378   5.311   9.349  1.00  0.00     0.274 C 
HETATM   15  N3  UNL     1       1.075   4.163   8.860  1.00  0.00     0.084 N 
HETATM   16  C8  UNL     1       0.311   3.313   8.003  1.00  0.00     0.309 C 
HETATM   17  C9  UNL     1       1.835   3.473   9.854  1.00  0.00     0.274 C 
HETATM   18  C10 UNL     1       1.415   3.748  11.267  1.00  0.00     0.056 C 
ENDBRANCH  10  12
ENDBRANCH   6  10
BRANCH   9  19
HETATM   19  N5  UNL     1      -4.068   1.214  13.466  1.00  0.00    -0.371 N 
ATOM     20  H5  UNL     1      -4.445   0.743  14.288  1.00  0.00     0.161 HD
BRANCH  19  21
HETATM   21  C12 UNL     1      -4.186   0.558  12.186  1.00  0.00     0.084 C 
HETATM   22  C13 UNL     1      -5.411   0.935  11.423  1.00  0.00     0.032 C 
BRANCH  21  23
HETATM   23  C14 UNL     1      -4.150  -0.949  12.324  1.00  0.00     0.103 C 
BRANCH  23  24
HETATM   24  C15 UNL     1      -3.125  -1.570  11.403  1.00  0.00     0.241 C 
HETATM   25  C16 UNL     1      -2.986  -3.048  11.602  1.00  0.00     0.090 C 
HETATM   26  F1  UNL     1      -1.907  -0.991  11.710  1.00  0.00    -0.207 F 
HETATM   27  F2  UNL     1      -3.384  -1.325  10.082  1.00  0.00    -0.207 F 
ENDBRANCH  23  24
ENDBRANCH  21  23
ENDBRANCH  19  21
ENDBRANCH   9  19
TORSDOF 6
ENDMDL
MODEL 3
REMARK VINA RESULT: -7.073957737      3.835      5.140
REMARK  6 active torsions:
REMARK  status: ('A' for Active; 'I' for Inactive)
REMARK    1  A    between atoms: C4_6  and  N2_7 
REMARK    2  A    between atoms: N2_7  and  C5_9 
REMARK    3  A    between atoms: C11_18  and  N5_19 
REMARK    4  A    between atoms: N5_19  and  C12_21 
REMARK    5  A    between atoms: C12_21  and  C14_23 
REMARK    6  A    between atoms: C14_23  and  C15_24 
ROOT
HETATM    1  C1  UNL     1      -6.015   2.807  14.905  1.00  0.00     0.054 C 
HETATM    2  C2  UNL     1      -4.657   3.234  14.481  1.00  0.00    -0.002 A 
HETATM    3  C3  UNL     1      -4.150   4.494  14.702  1.00  0.00     0.116 A 
HETATM    4  N1  UNL     1      -2.891   4.827  14.288  1.00  0.00    -0.201 N 
ATOM      5  H1  UNL     1      -2.548   5.770  14.468  1.00  0.00     0.183 HD
HETATM    6  C4  UNL     1      -2.092   3.960  13.655  1.00  0.00     0.679 A 
HETATM    7  N4  UNL     1      -2.610   2.710  13.443  1.00  0.00    -0.176 N 
ATOM      8  H4  UNL     1      -2.028   2.022  12.963  1.00  0.00     0.186 HD
HETATM    9  C11 UNL     1      -3.835   2.340  13.830  1.00  0.00     0.124 A 
ENDROOT
BRANCH   6  10
HETATM   10  N2  UNL     1      -0.925   4.245  13.264  1.00  0.00    -0.221 N 
ATOM     11  H2  UNL     1      -0.292   4.480  14.028  1.00  0.00     0.178 HD
BRANCH  10  12
HETATM   12  C5  UNL     1      -0.313   4.306  12.003  1.00  0.00     0.102 C 
HETATM   13  C6  UNL     1       0.998   5.035  11.960  1.00  0.00     0.056 C 
HETATM   14  C7  UNL     1       1.992   4.351  11.048  1.00  0.00     0.274 C 
HETATM   15  N3  UNL     1       1.340   4.090   9.804  1.00  0.00     0.084 N 
HETATM   16  C8  UNL     1       1.054   5.247   9.017  1.00  0.00     0.309 C 
HETATM   17  C9  UNL     1       0.264   3.155   9.894  1.00  0.00     0.274 C 
HETATM   18  C10 UNL     1      -0.302   2.981  11.272  1.00  0.00     0.056 C 
ENDBRANCH  10  12
ENDBRANCH   6  10
BRANCH   9  19
HETATM   19  N5  UNL     1      -4.274   1.149  13.604  1.00  0.00    -0.371 N 
ATOM     20  H5  UNL     1      -4.669   0.623  14.384  1.00  0.00     0.161 HD
BRANCH  19  21
HETATM   21  C12 UNL     1      -4.237   0.521  12.305  1.00  0.00     0.084 C 
HETATM   22  C13 UNL     1      -5.402   0.860  11.435  1.00  0.00     0.032 C 
BRANCH  21  23
HETATM   23  C14 UNL     1      -4.139  -0.986  12.412  1.00  0.00     0.103 C 
BRANCH  23  24
HETATM   24  C15 UNL     1      -3.122  -1.550  11.448  1.00  0.00     0.241 C 
HETATM   25  C16 UNL     1      -2.934  -3.028  11.602  1.00  0.00     0.090 C 
HETATM   26  F1  UNL     1      -1.914  -0.942  11.737  1.00  0.00    -0.207 F 
HETATM   27  F2  UNL     1      -3.425  -1.277  10.141  1.00  0.00    -0.207 F 
ENDBRANCH  23  24
ENDBRANCH  21  23
ENDBRANCH  19  21
ENDBRANCH   9  19
TORSDOF 6
ENDMDL
MODEL 4
REMARK VINA RESULT: -7.047747890      3.028      4.614
REMARK  6 active torsions:
REMARK  status: ('A' for Active; 'I' for Inactive)
REMARK    1  A    between atoms: C4_6  and  N2_7 
REMARK    2  A    between atoms: N2_7  and  C5_9 
REMARK    3  A    between atoms: C11_18  and  N5_19 
REMARK    4  A    between atoms: N5_19  and  C12_21 
REMARK    5  A    between atoms: C12_21  and  C14_23 
REMARK    6  A    between atoms: C14_23  and  C15_24 
ROOT
HETATM    1  C1  UNL     1      -4.281  -1.301  12.324  1.00  0.00     0.054 C 
HETATM    2  C2  UNL     1      -4.368   0.180  12.239  1.00  0.00    -0.002 A 
HETATM    3  C3  UNL     1      -4.302   0.880  11.056  1.00  0.00     0.116 A 
HETATM    4  N1  UNL     1      -4.388   2.243  11.041  1.00  0.00    -0.201 N 
ATOM      5  H1  UNL     1      -4.335   2.730  10.147  1.00  0.00     0.183 HD
HETATM    6  C4  UNL     1      -4.540   2.964  12.159  1.00  0.00     0.679 A 
HETATM    7  N4  UNL     1      -4.605   2.253  13.328  1.00  0.00    -0.176 N 
ATOM      8  H4  UNL     1      -4.720   2.769  14.200  1.00  0.00     0.186 HD
HETATM    9  C11 UNL     1      -4.525   0.920  13.390  1.00  0.00     0.124 A 
ENDROOT
BRANCH   6  10
HETATM   10  N2  UNL     1      -4.623   4.224  12.170  1.00  0.00    -0.221 N 
ATOM     11  H2  UNL     1      -4.563   4.638  11.240  1.00  0.00     0.178 HD
BRANCH  10  12
HETATM   12  C5  UNL     1      -4.780   5.176  13.189  1.00  0.00     0.102 C 
HETATM   13  C6  UNL     1      -6.131   5.201  13.841  1.00  0.00     0.056 C 
HETATM   14  C7  UNL     1      -6.031   5.425  15.335  1.00  0.00     0.274 C 
HETATM   15  N3  UNL     1      -5.169   6.543  15.555  1.00  0.00     0.084 N 
HETATM   16  C8  UNL     1      -5.707   7.806  15.163  1.00  0.00     0.309 C 
HETATM   17  C9  UNL     1      -3.815   6.325  15.152  1.00  0.00     0.274 C 
HETATM   18  C10 UNL     1      -3.625   5.211  14.167  1.00  0.00     0.056 C 
ENDBRANCH  10  12
ENDBRANCH   6  10
BRANCH   9  19
HETATM   19  N5  UNL     1      -4.590   0.299  14.519  1.00  0.00    -0.371 N 
ATOM     20  H5  UNL     1      -4.498  -0.716  14.519  1.00  0.00     0.161 HD
BRANCH  19  21
HETATM   21  C12 UNL     1      -4.788   0.968  15.783  1.00  0.00     0.084 C 
HETATM   22  C13 UNL     1      -3.523   1.421  16.432  1.00  0.00     0.032 C 
BRANCH  21  23
HETATM   23  C14 UNL     1      -5.549   0.102  16.763  1.00  0.00     0.103 C 
BRANCH  23  24
HETATM   24  C15 UNL     1      -6.698   0.851  17.397  1.00  0.00     0.241 C 
HETATM   25  C16 UNL     1      -7.026   2.124  16.681  1.00  0.00     0.090 C 
HETATM   26  F1  UNL     1      -6.300   1.183  18.680  1.00  0.00    -0.207 F 
HETATM   27  F2  UNL     1      -7.833   0.093  17.495  1.00  0.00    -0.207 F 
ENDBRANCH  23  24
ENDBRANCH  21  23
ENDBRANCH  19  21
ENDBRANCH   9  19
TORSDOF 6
ENDMDL
MODEL 5
REMARK VINA RESULT: -7.041905238      2.971      4.662
REMARK  6 active torsions:
REMARK  status: ('A' for Active; 'I' for Inactive)
REMARK    1  A    between atoms: C4_6  and  N2_7 
REMARK    2  A    between atoms: N2_7  and  C5_9 
REMARK    3  A    between atoms: C11_18  and  N5_19 
REMARK    4  A    between atoms: N5_19  and  C12_21 
REMARK    5  A    between atoms: C12_21  and  C14_23 
REMARK    6  A    between atoms: C14_23  and  C15_24 
ROOT
HETATM    1  C1  UNL     1      -4.256  -1.383  12.374  1.00  0.00     0.054 C 
HETATM    2  C2  UNL     1      -4.304   0.099  12.270  1.00  0.00    -0.002 A 
HETATM    3  C3  UNL     1      -4.195   0.783  11.081  1.00  0.00     0.116 A 
HETATM    4  N1  UNL     1      -4.246   2.148  11.049  1.00  0.00    -0.201 N 
ATOM      5  H1  UNL     1      -4.161   2.622  10.151  1.00  0.00     0.183 HD
HETATM    6  C4  UNL     1      -4.404   2.885  12.156  1.00  0.00     0.679 A 
HETATM    7  N4  UNL     1      -4.512   2.190  13.331  1.00  0.00    -0.176 N 
ATOM      8  H4  UNL     1      -4.633   2.719  14.194  1.00  0.00     0.186 HD
HETATM    9  C11 UNL     1      -4.467   0.856  13.409  1.00  0.00     0.124 A 
ENDROOT
BRANCH   6  10
HETATM   10  N2  UNL     1      -4.455   4.147  12.151  1.00  0.00    -0.221 N 
ATOM     11  H2  UNL     1      -3.932   4.567  11.382  1.00  0.00     0.178 HD
BRANCH  10  12
HETATM   12  C5  UNL     1      -5.076   5.095  12.977  1.00  0.00     0.102 C 
HETATM   13  C6  UNL     1      -4.230   5.621  14.100  1.00  0.00     0.056 C 
HETATM   14  C7  UNL     1      -4.443   7.104  14.318  1.00  0.00     0.274 C 
HETATM   15  N3  UNL     1      -5.850   7.341  14.383  1.00  0.00     0.084 N 
HETATM   16  C8  UNL     1      -6.495   6.836  15.553  1.00  0.00     0.309 C 
HETATM   17  C9  UNL     1      -6.545   7.074  13.163  1.00  0.00     0.274 C 
HETATM   18  C10 UNL     1      -5.818   6.170  12.213  1.00  0.00     0.056 C 
ENDBRANCH  10  12
ENDBRANCH   6  10
BRANCH   9  19
HETATM   19  N5  UNL     1      -4.572   0.251  14.543  1.00  0.00    -0.371 N 
ATOM     20  H5  UNL     1      -4.493  -0.766  14.558  1.00  0.00     0.161 HD
BRANCH  19  21
HETATM   21  C12 UNL     1      -4.796   0.938  15.793  1.00  0.00     0.084 C 
HETATM   22  C13 UNL     1      -3.544   1.385  16.471  1.00  0.00     0.032 C 
BRANCH  21  23
HETATM   23  C14 UNL     1      -5.594   0.092  16.763  1.00  0.00     0.103 C 
BRANCH  23  24
HETATM   24  C15 UNL     1      -6.721   0.877  17.393  1.00  0.00     0.241 C 
HETATM   25  C16 UNL     1      -7.009   2.158  16.673  1.00  0.00     0.090 C 
HETATM   26  F1  UNL     1      -6.317   1.199  18.676  1.00  0.00    -0.207 F 
HETATM   27  F2  UNL     1      -7.879   0.153  17.488  1.00  0.00    -0.207 F 
ENDBRANCH  23  24
ENDBRANCH  21  23
ENDBRANCH  19  21
ENDBRANCH   9  19
TORSDOF 6
ENDMDL
