MODEL 1
REMARK VINA RESULT: -7.349945376      0.000      0.000
REMARK  6 active torsions:
REMARK  status: ('A' for Active; 'I' for Inactive)
REMARK    1  A    between atoms: C2_2  and  C3_3 
REMARK    2  A    between atoms: C3_3  and  O1_4 
REMARK    3  A    between atoms: C5_7  and  C6_8 
REMARK       I    between atoms: C6_8  and  N1_10 
REMARK    4  A    between atoms: N1_10  and  C7_12 
REMARK       I    between atoms: N2_15  and  C10_16 
REMARK    5  A    between atoms: C10_16  and  C11_18 
REMARK    6  A    between atoms: C11_18  and  C12_19 
ROOT
HETATM    1  C1  UNL     1      -1.932   2.777  12.076  1.00  0.00     0.019 C 
HETATM    2  C2  UNL     1      -3.403   2.952  11.900  1.00  0.00    -0.004 C 
HETATM    3  C4  UNL     1      -4.126   3.418  13.133  1.00  0.00     0.048 C 
HETATM    4  C5  UNL     1      -4.334   2.172  13.922  1.00  0.00     0.180 C 
HETATM    5  N2  UNL     1      -4.368   1.109  12.977  1.00  0.00    -0.338 N 
HETATM    6  C10 UNL     1      -4.562  -0.259  13.240  1.00  0.00     0.223 C 
HETATM    7  O3  UNL     1      -4.716  -0.639  14.420  1.00  0.00    -0.273 OA
HETATM    8  C13 UNL     1      -4.144   1.648  11.650  1.00  0.00     0.138 C 
ENDROOT
BRANCH   4   9
HETATM    9  C6  UNL     1      -5.577   2.254  14.754  1.00  0.00     0.241 C 
HETATM   10  O2  UNL     1      -6.610   2.850  14.387  1.00  0.00    -0.271 OA
HETATM   11  N1  UNL     1      -5.525   1.604  16.016  1.00  0.00    -0.355 N 
ATOM     12  H1  UNL     1      -4.683   1.115  16.320  1.00  0.00     0.162 HD
BRANCH  11  13
HETATM   13  C7  UNL     1      -6.701   1.654  16.858  1.00  0.00     0.084 A 
HETATM   14  C8  UNL     1      -6.467   1.075  18.248  1.00  0.00     0.027 A 
HETATM   15  C9  UNL     1      -7.392   0.407  17.262  1.00  0.00     0.027 A 
ENDBRANCH  11  13
ENDBRANCH   4   9
BRANCH   2  16
HETATM   16  C3  UNL     1      -3.644   3.946  10.789  1.00  0.00     0.175 C 
BRANCH  16  17
HETATM   17  O1  UNL     1      -4.294   3.306   9.760  1.00  0.00    -0.400 OA
ATOM     18  H1  UNL     1      -3.698   3.231   9.025  1.00  0.00     0.209 HD
ENDBRANCH  16  17
ENDBRANCH   2  16
BRANCH   6  19
HETATM   19  C11 UNL     1      -4.593  -1.281  12.167  1.00  0.00     0.139 C 
BRANCH  19  20
HETATM   20  C12 UNL     1      -3.212  -1.566  11.640  1.00  0.00     0.187 C 
HETATM   21 CL1  UNL     1      -3.000  -0.965   9.983  1.00  0.00    -0.108 Cl
HETATM   22 CL2  UNL     1      -3.040  -3.348  11.574  1.00  0.00    -0.108 Cl
ENDBRANCH  19  20
ENDBRANCH   6  19
TORSDOF 6
ENDMDL
MODEL 2
REMARK VINA RESULT: -7.099807695      0.831      1.170
REMARK  6 active torsions:
REMARK  status: ('A' for Active; 'I' for Inactive)
REMARK    1  A    between atoms: C2_2  and  C3_3 
REMARK    2  A    between atoms: C3_3  and  O1_4 
REMARK    3  A    between atoms: C5_7  and  C6_8 
REMARK       I    between atoms: C6_8  and  N1_10 
REMARK    4  A    between atoms: N1_10  and  C7_12 
REMARK       I    between atoms: N2_15  and  C10_16 
REMARK    5  A    between atoms: C10_16  and  C11_18 
REMARK    6  A    between atoms: C11_18  and  C12_19 
ROOT
HETATM    1  C1  UNL     1      -2.300   3.432  11.589  1.00  0.00     0.019 C 
HETATM    2  C2  UNL     1      -3.785   3.565  11.604  1.00  0.00    -0.004 C 
HETATM    3  C4  UNL     1      -4.371   3.833  12.963  1.00  0.00     0.048 C 
HETATM    4  C5  UNL     1      -4.451   2.485  13.593  1.00  0.00     0.180 C 
HETATM    5  N2  UNL     1      -4.566   1.556  12.521  1.00  0.00    -0.338 N 
HETATM    6  C10 UNL     1      -4.690   0.158  12.616  1.00  0.00     0.223 C 
HETATM    7  O3  UNL     1      -4.694  -0.382  13.743  1.00  0.00    -0.273 OA
HETATM    8  C13 UNL     1      -4.514   2.274  11.264  1.00  0.00     0.138 C 
ENDROOT
BRANCH   4   9
HETATM    9  C6  UNL     1      -5.590   2.402  14.562  1.00  0.00     0.241 C 
HETATM   10  O2  UNL     1      -6.715   2.897  14.343  1.00  0.00    -0.271 OA
HETATM   11  N1  UNL     1      -5.324   1.715  15.777  1.00  0.00    -0.355 N 
ATOM     12  H1  UNL     1      -4.407   1.309  15.960  1.00  0.00     0.162 HD
BRANCH  11  13
HETATM   13  C7  UNL     1      -6.393   1.608  16.747  1.00  0.00     0.084 A 
HETATM   14  C8  UNL     1      -5.962   0.920  18.037  1.00  0.00     0.027 A 
HETATM   15  C9  UNL     1      -6.960   0.285  17.101  1.00  0.00     0.027 A 
ENDBRANCH  11  13
ENDBRANCH   4   9
BRANCH   2  16
HETATM   16  C3  UNL     1      -4.182   4.686  10.674  1.00  0.00     0.175 C 
BRANCH  16  17
HETATM   17  O1  UNL     1      -5.371   4.353  10.067  1.00  0.00    -0.400 OA
ATOM     18  H1  UNL     1      -5.669   5.096   9.556  1.00  0.00     0.209 HD
ENDBRANCH  16  17
ENDBRANCH   2  16
BRANCH   6  19
HETATM   19  C11 UNL     1      -4.818  -0.714  11.424  1.00  0.00     0.139 C 
BRANCH  19  20
HETATM   20  C12 UNL     1      -3.508  -1.377  11.086  1.00  0.00     0.187 C 
HETATM   21 CL1  UNL     1      -3.307  -2.916  11.948  1.00  0.00    -0.108 Cl
HETATM   22 CL2  UNL     1      -2.210  -0.284  11.661  1.00  0.00    -0.108 Cl
ENDBRANCH  19  20
ENDBRANCH   6  19
TORSDOF 6
ENDMDL
MODEL 3
REMARK VINA RESULT: -6.830805631      1.808      2.394
REMARK  6 active torsions:
REMARK  status: ('A' for Active; 'I' for Inactive)
REMARK    1  A    between atoms: C2_2  and  C3_3 
REMARK    2  A    between atoms: C3_3  and  O1_4 
REMARK    3  A    between atoms: C5_7  and  C6_8 
REMARK       I    between atoms: C6_8  and  N1_10 
REMARK    4  A    between atoms: N1_10  and  C7_12 
REMARK       I    between atoms: N2_15  and  C10_16 
REMARK    5  A    between atoms: C10_16  and  C11_18 
REMARK    6  A    between atoms: C11_18  and  C12_19 
ROOT
HETATM    1  C1  UNL     1      -3.075   4.459  12.818  1.00  0.00     0.019 C 
HETATM    2  C2  UNL     1      -4.347   4.091  13.503  1.00  0.00    -0.004 C 
HETATM    3  C4  UNL     1      -4.172   3.584  14.909  1.00  0.00     0.048 C 
HETATM    4  C5  UNL     1      -3.812   2.150  14.733  1.00  0.00     0.180 C 
HETATM    5  N2  UNL     1      -4.387   1.749  13.495  1.00  0.00    -0.338 N 
HETATM    6  C10 UNL     1      -4.335   0.473  12.906  1.00  0.00     0.223 C 
HETATM    7  O3  UNL     1      -3.718  -0.446  13.487  1.00  0.00    -0.273 OA
HETATM    8  C13 UNL     1      -5.043   2.888  12.886  1.00  0.00     0.138 C 
ENDROOT
BRANCH   4   9
HETATM    9  C6  UNL     1      -4.281   1.323  15.890  1.00  0.00     0.241 C 
HETATM   10  O2  UNL     1      -3.506   0.778  16.703  1.00  0.00    -0.271 OA
HETATM   11  N1  UNL     1      -5.688   1.183  16.025  1.00  0.00    -0.355 N 
ATOM     12  H1  UNL     1      -6.325   1.627  15.363  1.00  0.00     0.162 HD
BRANCH  11  13
HETATM   13  C7  UNL     1      -6.193   0.394  17.128  1.00  0.00     0.084 A 
HETATM   14  C8  UNL     1      -7.675   0.622  17.398  1.00  0.00     0.027 A 
HETATM   15  C9  UNL     1      -6.619   1.046  18.388  1.00  0.00     0.027 A 
ENDBRANCH  11  13
ENDBRANCH   4   9
BRANCH   2  16
HETATM   16  C3  UNL     1      -5.251   5.300  13.532  1.00  0.00     0.175 C 
BRANCH  16  17
HETATM   17  O1  UNL     1      -6.526   4.887  13.842  1.00  0.00    -0.400 OA
ATOM     18  H1  UNL     1      -6.755   5.229  14.698  1.00  0.00     0.209 HD
ENDBRANCH  16  17
ENDBRANCH   2  16
BRANCH   6  19
HETATM   19  C11 UNL     1      -4.988   0.165  11.611  1.00  0.00     0.139 C 
BRANCH  19  20
HETATM   20  C12 UNL     1      -3.971  -0.138  10.542  1.00  0.00     0.187 C 
HETATM   21 CL1  UNL     1      -3.251  -1.747  10.753  1.00  0.00    -0.108 Cl
HETATM   22 CL2  UNL     1      -2.647   1.054  10.733  1.00  0.00    -0.108 Cl
ENDBRANCH  19  20
ENDBRANCH   6  19
TORSDOF 6
ENDMDL
MODEL 4
REMARK VINA RESULT: -6.750574423      1.357      1.589
REMARK  6 active torsions:
REMARK  status: ('A' for Active; 'I' for Inactive)
REMARK    1  A    between atoms: C2_2  and  C3_3 
REMARK    2  A    between atoms: C3_3  and  O1_4 
REMARK    3  A    between atoms: C5_7  and  C6_8 
REMARK       I    between atoms: C6_8  and  N1_10 
REMARK    4  A    between atoms: N1_10  and  C7_12 
REMARK       I    between atoms: N2_15  and  C10_16 
REMARK    5  A    between atoms: C10_16  and  C11_18 
REMARK    6  A    between atoms: C11_18  and  C12_19 
ROOT
HETATM    1  C1  UNL     1      -1.852   3.642  12.646  1.00  0.00     0.019 C 
HETATM    2  C2  UNL     1      -3.309   3.935  12.516  1.00  0.00    -0.004 C 
HETATM    3  C4  UNL     1      -4.051   3.985  13.823  1.00  0.00     0.048 C 
HETATM    4  C5  UNL     1      -4.332   2.555  14.133  1.00  0.00     0.180 C 
HETATM    5  N2  UNL     1      -4.377   1.883  12.881  1.00  0.00    -0.338 N 
HETATM    6  C10 UNL     1      -4.632   0.518  12.656  1.00  0.00     0.223 C 
HETATM    7  O3  UNL     1      -4.837  -0.236  13.632  1.00  0.00    -0.273 OA
HETATM    8  C13 UNL     1      -4.091   2.831  11.823  1.00  0.00     0.138 C 
ENDROOT
BRANCH   4   9
HETATM    9  C6  UNL     1      -5.596   2.406  14.923  1.00  0.00     0.241 C 
HETATM   10  O2  UNL     1      -6.654   3.007  14.644  1.00  0.00    -0.271 OA
HETATM   11  N1  UNL     1      -5.534   1.525  16.036  1.00  0.00    -0.355 N 
ATOM     12  H1  UNL     1      -4.672   1.032  16.267  1.00  0.00     0.162 HD
BRANCH  11  13
HETATM   13  C7  UNL     1      -6.730   1.347  16.831  1.00  0.00     0.084 A 
HETATM   14  C8  UNL     1      -6.443   1.226  18.323  1.00  0.00     0.027 A 
HETATM   15  C9  UNL     1      -6.987   0.064  17.528  1.00  0.00     0.027 A 
ENDBRANCH  11  13
ENDBRANCH   4   9
BRANCH   2  16
HETATM   16  C3  UNL     1      -3.477   5.259  11.810  1.00  0.00     0.175 C 
BRANCH  16  17
HETATM   17  O1  UNL     1      -3.490   6.261  12.753  1.00  0.00    -0.400 OA
ATOM     18  H1  UNL     1      -4.389   6.424  13.011  1.00  0.00     0.209 HD
ENDBRANCH  16  17
ENDBRANCH   2  16
BRANCH   6  19
HETATM   19  C11 UNL     1      -4.669  -0.073  11.297  1.00  0.00     0.139 C 
BRANCH  19  20
HETATM   20  C12 UNL     1      -3.453  -0.924  11.035  1.00  0.00     0.187 C 
HETATM   21 CL1  UNL     1      -3.508  -2.449  11.943  1.00  0.00    -0.108 Cl
HETATM   22 CL2  UNL     1      -2.039  -0.007  11.643  1.00  0.00    -0.108 Cl
ENDBRANCH  19  20
ENDBRANCH   6  19
TORSDOF 6
ENDMDL
MODEL 5
REMARK VINA RESULT: -6.713872687      3.365      4.791
REMARK  6 active torsions:
REMARK  status: ('A' for Active; 'I' for Inactive)
REMARK    1  A    between atoms: C2_2  and  C3_3 
REMARK    2  A    between atoms: C3_3  and  O1_4 
REMARK    3  A    between atoms: C5_7  and  C6_8 
REMARK       I    between atoms: C6_8  and  N1_10 
REMARK    4  A    between atoms: N1_10  and  C7_12 
REMARK       I    between atoms: N2_15  and  C10_16 
REMARK    5  A    between atoms: C10_16  and  C11_18 
REMARK    6  A    between atoms: C11_18  and  C12_19 
ROOT
HETATM    1  C1  UNL     1      -2.413  -0.424  11.542  1.00  0.00     0.019 C 
HETATM    2  C2  UNL     1      -3.714   0.289  11.393  1.00  0.00    -0.004 C 
HETATM    3  C4  UNL     1      -3.592   1.778  11.226  1.00  0.00     0.048 C 
HETATM    4  C5  UNL     1      -3.435   2.285  12.618  1.00  0.00     0.180 C 
HETATM    5  N2  UNL     1      -4.077   1.333  13.458  1.00  0.00    -0.338 N 
HETATM    6  C10 UNL     1      -4.209   1.384  14.857  1.00  0.00     0.223 C 
HETATM    7  O3  UNL     1      -3.718   2.346  15.484  1.00  0.00    -0.273 OA
HETATM    8  C13 UNL     1      -4.578   0.244  12.643  1.00  0.00     0.138 C 
ENDROOT
BRANCH   4   9
HETATM    9  C6  UNL     1      -3.999   3.665  12.763  1.00  0.00     0.241 C 
HETATM   10  O2  UNL     1      -5.077   4.024  12.247  1.00  0.00    -0.271 OA
HETATM   11  N1  UNL     1      -3.228   4.574  13.537  1.00  0.00    -0.355 N 
ATOM     12  H1  UNL     1      -2.347   4.285  13.961  1.00  0.00     0.162 HD
BRANCH  11  13
HETATM   13  C7  UNL     1      -3.730   5.921  13.707  1.00  0.00     0.084 A 
HETATM   14  C8  UNL     1      -2.892   6.754  14.669  1.00  0.00     0.027 A 
HETATM   15  C9  UNL     1      -4.307   6.352  15.002  1.00  0.00     0.027 A 
ENDBRANCH  11  13
ENDBRANCH   4   9
BRANCH   2  16
HETATM   16  C3  UNL     1      -4.443  -0.276  10.197  1.00  0.00     0.175 C 
BRANCH  16  17
HETATM   17  O1  UNL     1      -3.515  -0.769   9.309  1.00  0.00    -0.400 OA
ATOM     18  H1  UNL     1      -3.973  -1.121   8.556  1.00  0.00     0.209 HD
ENDBRANCH  16  17
ENDBRANCH   2  16
BRANCH   6  19
HETATM   19  C11 UNL     1      -4.916   0.335  15.630  1.00  0.00     0.139 C 
BRANCH  19  20
HETATM   20  C12 UNL     1      -5.477   0.884  16.916  1.00  0.00     0.187 C 
HETATM   21 CL1  UNL     1      -6.106  -0.403  17.964  1.00  0.00    -0.108 Cl
HETATM   22 CL2  UNL     1      -6.869   1.921  16.472  1.00  0.00    -0.108 Cl
ENDBRANCH  19  20
ENDBRANCH   6  19
TORSDOF 6
ENDMDL
