MODEL 1
REMARK VINA RESULT: -7.241978505      0.000      0.000
REMARK  6 active torsions:
REMARK  status: ('A' for Active; 'I' for Inactive)
REMARK    1  A    between atoms: C2_2  and  O1_4 
REMARK    2  A    between atoms: C2_2  and  C4_6 
REMARK    3  A    between atoms: C4_6  and  O2_7 
REMARK    4  A    between atoms: C4_6  and  C5_9 
REMARK    5  A    between atoms: C4_6  and  C11_16 
REMARK    6  A    between atoms: C5_9  and  N1_10 
ROOT
HETATM    1  C4  UNL     1      -4.377   2.370  14.279  1.00  0.00     0.124 C 
ENDROOT
BRANCH   1   2
HETATM    2  C2  UNL     1      -4.029   1.772  12.986  1.00  0.00     0.084 C 
HETATM    3  C1  UNL     1      -4.526   2.503  11.765  1.00  0.00     0.049 C 
HETATM    4  C3  UNL     1      -4.280   0.315  12.791  1.00  0.00     0.049 C 
BRANCH   2   5
HETATM    5  O1  UNL     1      -2.603   1.888  12.928  1.00  0.00    -0.387 OA
ATOM      6  H1  UNL     1      -2.400   2.659  13.444  1.00  0.00     0.210 HD
ENDBRANCH   2   5
ENDBRANCH   1   2
BRANCH   1   7
HETATM    7  O2  UNL     1      -3.122   2.592  14.935  1.00  0.00    -0.384 OA
ATOM      8  H2  UNL     1      -3.274   2.359  15.843  1.00  0.00     0.210 HD
ENDBRANCH   1   7
BRANCH   1   9
HETATM    9  C5  UNL     1      -4.831   3.809  13.988  1.00  0.00     0.314 C 
BRANCH   9  10
HETATM   10  N1  UNL     1      -3.923   4.786  14.487  1.00  0.00     0.093 N 
HETATM   11  C6  UNL     1      -4.653   5.824  15.195  1.00  0.00     0.283 C 
HETATM   12  C7  UNL     1      -3.874   6.829  14.449  1.00  0.00     0.013 A 
HETATM   13  C8  UNL     1      -3.076   7.892  14.990  1.00  0.00     0.014 A 
HETATM   14  C9  UNL     1      -4.324   8.171  14.109  1.00  0.00     0.014 A 
HETATM   15  C10 UNL     1      -3.470   5.779  13.506  1.00  0.00     0.283 C 
ENDBRANCH   9  10
ENDBRANCH   1   9
BRANCH   1  16
HETATM   16  C11 UNL     1      -5.249   1.713  15.247  1.00  0.00     0.097 C 
HETATM   17  C12 UNL     1      -6.320   2.646  15.781  1.00  0.00     0.053 C 
HETATM   18  C13 UNL     1      -7.325   1.950  16.673  1.00  0.00     0.175 C 
HETATM   19  F1  UNL     1      -7.538   2.658  17.842  1.00  0.00    -0.249 F 
HETATM   20  C14 UNL     1      -6.839   0.616  16.989  1.00  0.00     0.032 A 
HETATM   21  C15 UNL     1      -6.302  -0.005  18.141  1.00  0.00     0.020 A 
HETATM   22  C16 UNL     1      -5.407   0.922  17.560  1.00  0.00     0.063 A 
HETATM   23  C17 UNL     1      -4.626   0.918  16.330  1.00  0.00     0.138 C 
HETATM   24  O3  UNL     1      -3.611   0.310  16.297  1.00  0.00    -0.297 OA
ENDBRANCH   1  16
TORSDOF 6
ENDMDL
MODEL 2
REMARK VINA RESULT: -7.015110281      2.455      5.526
REMARK  6 active torsions:
REMARK  status: ('A' for Active; 'I' for Inactive)
REMARK    1  A    between atoms: C2_2  and  O1_4 
REMARK    2  A    between atoms: C2_2  and  C4_6 
REMARK    3  A    between atoms: C4_6  and  O2_7 
REMARK    4  A    between atoms: C4_6  and  C5_9 
REMARK    5  A    between atoms: C4_6  and  C11_16 
REMARK    6  A    between atoms: C5_9  and  N1_10 
ROOT
HETATM    1  C4  UNL     1      -4.330   2.815  13.330  1.00  0.00     0.124 C 
ENDROOT
BRANCH   1   2
HETATM    2  C2  UNL     1      -4.320   4.267  13.126  1.00  0.00     0.084 C 
HETATM    3  C1  UNL     1      -3.824   4.741  11.784  1.00  0.00     0.049 C 
HETATM    4  C3  UNL     1      -3.706   5.126  14.179  1.00  0.00     0.049 C 
BRANCH   2   5
HETATM    5  O1  UNL     1      -5.707   4.626  13.152  1.00  0.00    -0.387 OA
ATOM      6  H1  UNL     1      -5.994   4.424  14.035  1.00  0.00     0.210 HD
ENDBRANCH   2   5
ENDBRANCH   1   2
BRANCH   1   7
HETATM    7  O2  UNL     1      -3.354   2.578  14.354  1.00  0.00    -0.384 OA
ATOM      8  H2  UNL     1      -3.549   1.708  14.682  1.00  0.00     0.210 HD
ENDBRANCH   1   7
BRANCH   1   9
HETATM    9  C5  UNL     1      -5.636   2.484  14.069  1.00  0.00     0.314 C 
BRANCH   9  10
HETATM   10  N1  UNL     1      -5.451   2.317  15.470  1.00  0.00     0.093 N 
HETATM   11  C6  UNL     1      -5.521   0.906  15.813  1.00  0.00     0.283 C 
HETATM   12  C7  UNL     1      -6.435   1.258  16.916  1.00  0.00     0.013 A 
HETATM   13  C8  UNL     1      -6.282   0.947  18.308  1.00  0.00     0.014 A 
HETATM   14  C9  UNL     1      -7.467   0.394  17.472  1.00  0.00     0.014 A 
HETATM   15  C10 UNL     1      -6.638   2.572  16.295  1.00  0.00     0.283 C 
ENDBRANCH   9  10
ENDBRANCH   1   9
BRANCH   1  16
HETATM   16  C11 UNL     1      -4.058   1.862  12.259  1.00  0.00     0.097 C 
HETATM   17  C12 UNL     1      -5.079   0.740  12.215  1.00  0.00     0.053 C 
HETATM   18  C13 UNL     1      -4.905  -0.177  11.024  1.00  0.00     0.175 C 
HETATM   19  F1  UNL     1      -4.941  -1.507  11.403  1.00  0.00    -0.249 F 
HETATM   20  C14 UNL     1      -3.635   0.116  10.379  1.00  0.00     0.032 A 
HETATM   21  C15 UNL     1      -2.384  -0.540  10.292  1.00  0.00     0.020 A 
HETATM   22  C16 UNL     1      -2.629  -0.007  11.579  1.00  0.00     0.063 A 
HETATM   23  C17 UNL     1      -2.677   1.352  12.103  1.00  0.00     0.138 C 
HETATM   24  O3  UNL     1      -1.661   1.909  12.348  1.00  0.00    -0.297 OA
ENDBRANCH   1  16
TORSDOF 6
ENDMDL
MODEL 3
REMARK VINA RESULT: -6.951004510      1.271      1.519
REMARK  6 active torsions:
REMARK  status: ('A' for Active; 'I' for Inactive)
REMARK    1  A    between atoms: C2_2  and  O1_4 
REMARK    2  A    between atoms: C2_2  and  C4_6 
REMARK    3  A    between atoms: C4_6  and  O2_7 
REMARK    4  A    between atoms: C4_6  and  C5_9 
REMARK    5  A    between atoms: C4_6  and  C11_16 
REMARK    6  A    between atoms: C5_9  and  N1_10 
ROOT
HETATM    1  C4  UNL     1      -4.604   1.708  13.914  1.00  0.00     0.124 C 
ENDROOT
BRANCH   1   2
HETATM    2  C2  UNL     1      -4.382   0.827  12.764  1.00  0.00     0.084 C 
HETATM    3  C1  UNL     1      -2.966   0.757  12.250  1.00  0.00     0.049 C 
HETATM    4  C3  UNL     1      -5.297   0.948  11.592  1.00  0.00     0.049 C 
BRANCH   2   5
HETATM    5  O1  UNL     1      -4.650  -0.482  13.278  1.00  0.00    -0.387 OA
ATOM      6  H1  UNL     1      -4.326  -1.077  12.611  1.00  0.00     0.210 HD
ENDBRANCH   2   5
ENDBRANCH   1   2
BRANCH   1   7
HETATM    7  O2  UNL     1      -3.292   2.030  14.394  1.00  0.00    -0.384 OA
ATOM      8  H2  UNL     1      -3.428   2.716  15.038  1.00  0.00     0.210 HD
ENDBRANCH   1   7
BRANCH   1   9
HETATM    9  C5  UNL     1      -5.065   3.061  13.349  1.00  0.00     0.314 C 
BRANCH   9  10
HETATM   10  N1  UNL     1      -4.011   4.014  13.269  1.00  0.00     0.093 N 
HETATM   11  C6  UNL     1      -4.499   5.325  13.663  1.00  0.00     0.283 C 
HETATM   12  C7  UNL     1      -3.847   5.887  12.466  1.00  0.00     0.013 A 
HETATM   13  C8  UNL     1      -2.885   6.950  12.413  1.00  0.00     0.014 A 
HETATM   14  C9  UNL     1      -4.280   7.073  11.741  1.00  0.00     0.014 A 
HETATM   15  C10 UNL     1      -3.730   4.528  11.923  1.00  0.00     0.283 C 
ENDBRANCH   9  10
ENDBRANCH   1   9
BRANCH   1  16
HETATM   16  C11 UNL     1      -5.394   1.311  15.075  1.00  0.00     0.097 C 
HETATM   17  C12 UNL     1      -6.333   2.410  15.535  1.00  0.00     0.053 C 
HETATM   18  C13 UNL     1      -7.266   1.972  16.644  1.00  0.00     0.175 C 
HETATM   19  F1  UNL     1      -7.292   2.894  17.674  1.00  0.00    -0.249 F 
HETATM   20  C14 UNL     1      -6.829   0.681  17.151  1.00  0.00     0.032 A 
HETATM   21  C15 UNL     1      -6.199   0.234  18.336  1.00  0.00     0.020 A 
HETATM   22  C16 UNL     1      -5.323   0.964  17.499  1.00  0.00     0.063 A 
HETATM   23  C17 UNL     1      -4.697   0.674  16.216  1.00  0.00     0.138 C 
HETATM   24  O3  UNL     1      -3.732  -0.013  16.191  1.00  0.00    -0.297 OA
ENDBRANCH   1  16
TORSDOF 6
ENDMDL
MODEL 4
REMARK VINA RESULT: -6.779297923      3.080      4.163
REMARK  6 active torsions:
REMARK  status: ('A' for Active; 'I' for Inactive)
REMARK    1  A    between atoms: C2_2  and  O1_4 
REMARK    2  A    between atoms: C2_2  and  C4_6 
REMARK    3  A    between atoms: C4_6  and  O2_7 
REMARK    4  A    between atoms: C4_6  and  C5_9 
REMARK    5  A    between atoms: C4_6  and  C11_16 
REMARK    6  A    between atoms: C5_9  and  N1_10 
ROOT
HETATM    1  C4  UNL     1      -3.646   1.191  11.851  1.00  0.00     0.124 C 
ENDROOT
BRANCH   1   2
HETATM    2  C2  UNL     1      -4.075   0.310  10.761  1.00  0.00     0.084 C 
HETATM    3  C1  UNL     1      -5.250  -0.587  11.061  1.00  0.00     0.049 C 
HETATM    4  C3  UNL     1      -3.040  -0.500  10.056  1.00  0.00     0.049 C 
BRANCH   2   5
HETATM    5  O1  UNL     1      -4.551   1.213   9.757  1.00  0.00    -0.387 OA
ATOM      6  H1  UNL     1      -4.615   0.688   8.968  1.00  0.00     0.210 HD
ENDBRANCH   2   5
ENDBRANCH   1   2
BRANCH   1   7
HETATM    7  O2  UNL     1      -2.570   0.492  12.491  1.00  0.00    -0.384 OA
ATOM      8  H2  UNL     1      -2.989  -0.192  12.999  1.00  0.00     0.210 HD
ENDBRANCH   1   7
BRANCH   1   9
HETATM    9  C5  UNL     1      -2.903   2.367  11.198  1.00  0.00     0.314 C 
BRANCH   9  10
HETATM   10  N1  UNL     1      -1.497   2.319  11.412  1.00  0.00     0.093 N 
HETATM   11  C6  UNL     1      -1.018   3.622  11.843  1.00  0.00     0.283 C 
HETATM   12  C7  UNL     1       0.067   3.510  10.850  1.00  0.00     0.013 A 
HETATM   13  C8  UNL     1       1.479   3.607  11.084  1.00  0.00     0.014 A 
HETATM   14  C9  UNL     1       0.726   4.625  10.184  1.00  0.00     0.014 A 
HETATM   15  C10 UNL     1      -0.674   2.422  10.201  1.00  0.00     0.283 C 
ENDBRANCH   9  10
ENDBRANCH   1   9
BRANCH   1  16
HETATM   16  C11 UNL     1      -4.546   1.640  12.908  1.00  0.00     0.097 C 
HETATM   17  C12 UNL     1      -4.429   3.131  13.168  1.00  0.00     0.053 C 
HETATM   18  C13 UNL     1      -5.454   3.646  14.155  1.00  0.00     0.175 C 
HETATM   19  F1  UNL     1      -4.869   4.447  15.118  1.00  0.00    -0.249 F 
HETATM   20  C14 UNL     1      -6.114   2.516  14.790  1.00  0.00     0.032 A 
HETATM   21  C15 UNL     1      -6.071   1.928  16.076  1.00  0.00     0.020 A 
HETATM   22  C16 UNL     1      -4.891   1.693  15.333  1.00  0.00     0.063 A 
HETATM   23  C17 UNL     1      -4.592   0.867  14.171  1.00  0.00     0.138 C 
HETATM   24  O3  UNL     1      -4.419  -0.295  14.321  1.00  0.00    -0.297 OA
ENDBRANCH   1  16
TORSDOF 6
ENDMDL
MODEL 5
REMARK VINA RESULT: -6.580547698      2.904      5.822
REMARK  6 active torsions:
REMARK  status: ('A' for Active; 'I' for Inactive)
REMARK    1  A    between atoms: C2_2  and  O1_4 
REMARK    2  A    between atoms: C2_2  and  C4_6 
REMARK    3  A    between atoms: C4_6  and  O2_7 
REMARK    4  A    between atoms: C4_6  and  C5_9 
REMARK    5  A    between atoms: C4_6  and  C11_16 
REMARK    6  A    between atoms: C5_9  and  N1_10 
ROOT
HETATM    1  C4  UNL     1      -4.286   2.683  13.313  1.00  0.00     0.124 C 
ENDROOT
BRANCH   1   2
HETATM    2  C2  UNL     1      -4.355   4.043  12.770  1.00  0.00     0.084 C 
HETATM    3  C1  UNL     1      -4.144   4.172  11.282  1.00  0.00     0.049 C 
HETATM    4  C3  UNL     1      -3.571   5.116  13.446  1.00  0.00     0.049 C 
BRANCH   2   5
HETATM    5  O1  UNL     1      -5.719   4.427  12.981  1.00  0.00    -0.387 OA
ATOM      6  H1  UNL     1      -5.699   4.982  13.752  1.00  0.00     0.210 HD
ENDBRANCH   2   5
ENDBRANCH   1   2
BRANCH   1   7
HETATM    7  O2  UNL     1      -3.356   2.765  14.401  1.00  0.00    -0.384 OA
ATOM      8  H2  UNL     1      -3.399   1.916  14.824  1.00  0.00     0.210 HD
ENDBRANCH   1   7
BRANCH   1   9
HETATM    9  C5  UNL     1      -5.608   2.439  14.056  1.00  0.00     0.314 C 
BRANCH   9  10
HETATM   10  N1  UNL     1      -5.431   2.281  15.460  1.00  0.00     0.093 N 
HETATM   11  C6  UNL     1      -5.509   0.872  15.811  1.00  0.00     0.283 C 
HETATM   12  C7  UNL     1      -6.426   1.235  16.908  1.00  0.00     0.013 A 
HETATM   13  C8  UNL     1      -6.282   0.934  18.303  1.00  0.00     0.014 A 
HETATM   14  C9  UNL     1      -7.465   0.380  17.464  1.00  0.00     0.014 A 
HETATM   15  C10 UNL     1      -6.622   2.546  16.276  1.00  0.00     0.283 C 
ENDBRANCH   9  10
ENDBRANCH   1   9
BRANCH   1  16
HETATM   16  C11 UNL     1      -3.897   1.528  12.510  1.00  0.00     0.097 C 
HETATM   17  C12 UNL     1      -2.454   1.611  12.046  1.00  0.00     0.053 C 
HETATM   18  C13 UNL     1      -1.983   0.359  11.337  1.00  0.00     0.175 C 
HETATM   19  F1  UNL     1      -1.333   0.662  10.156  1.00  0.00    -0.249 F 
HETATM   20  C14 UNL     1      -3.131  -0.492  11.062  1.00  0.00     0.032 A 
HETATM   21  C15 UNL     1      -3.857  -0.844   9.900  1.00  0.00     0.020 A 
HETATM   22  C16 UNL     1      -4.086   0.494  10.298  1.00  0.00     0.063 A 
HETATM   23  C17 UNL     1      -4.798   1.093  11.418  1.00  0.00     0.138 C 
HETATM   24  O3  UNL     1      -5.978   1.178  11.370  1.00  0.00    -0.297 OA
ENDBRANCH   1  16
TORSDOF 6
ENDMDL
