MODEL 1
REMARK VINA RESULT: -7.287109236      0.000      0.000
REMARK  4 active torsions:
REMARK  status: ('A' for Active; 'I' for Inactive)
REMARK       I    between atoms: C1_2  and  N1_3 
REMARK    1  A    between atoms: C1_2  and  C8_16 
REMARK    2  A    between atoms: N1_3  and  C2_5 
REMARK    3  A    between atoms: C2_5  and  C3_6 
REMARK    4  A    between atoms: C3_6  and  N2_7 
ROOT
HETATM    1  O1  UNL     1      -5.954   2.407  13.485  1.00  0.00    -0.273 OA
HETATM    2  C1  UNL     1      -5.056   3.284  13.640  1.00  0.00     0.226 C 
HETATM    3  N1  UNL     1      -3.683   2.966  13.591  1.00  0.00    -0.356 N 
ATOM      4  H1  UNL     1      -2.991   3.703  13.727  1.00  0.00     0.162 HD
ENDROOT
BRANCH   3   5
HETATM    5  C2  UNL     1      -3.243   1.620  13.355  1.00  0.00     0.167 C 
BRANCH   5   6
HETATM    6  C3  UNL     1      -2.479   1.422  12.070  1.00  0.00     0.088 C 
BRANCH   6   7
HETATM    7  N2  UNL     1      -3.068   0.375  11.340  1.00  0.00    -0.307 N 
HETATM    8  C4  UNL     1      -4.365   0.569  10.837  1.00  0.00     0.088 C 
HETATM    9  C5  UNL     1      -5.244  -0.584  11.250  1.00  0.00     0.159 C 
HETATM   10  N3  UNL     1      -4.687  -1.444  12.238  1.00  0.00    -0.410 N 
HETATM   11  C6  UNL     1      -3.348  -1.877  12.039  1.00  0.00     0.219 C 
ATOM     12  H3  UNL     1      -5.225  -1.736  13.054  1.00  0.00     0.153 HD
HETATM   13  C7  UNL     1      -2.479  -0.884  11.264  1.00  0.00     0.342 C 
HETATM   14  F1  UNL     1      -1.192  -0.854  11.716  1.00  0.00    -0.180 F 
HETATM   15  F2  UNL     1      -2.426  -1.369   9.948  1.00  0.00    -0.180 F 
ENDBRANCH   6   7
ENDBRANCH   5   6
ENDBRANCH   3   5
BRANCH   2  16
HETATM   16  C8  UNL     1      -5.518   4.680  13.878  1.00  0.00     0.042 C 
HETATM   17  C9  UNL     1      -6.967   4.788  13.447  1.00  0.00     0.024 C 
HETATM   18  C10 UNL     1      -7.465   6.162  13.734  1.00  0.00    -0.013 C 
HETATM   19  C11 UNL     1      -6.661   7.164  12.921  1.00  0.00     0.009 C 
HETATM   20  C15 UNL     1      -7.304   6.493  15.182  1.00  0.00     0.009 C 
HETATM   21  C12 UNL     1      -5.207   7.035  13.299  1.00  0.00    -0.013 C 
HETATM   22  C13 UNL     1      -5.010   7.375  14.757  1.00  0.00     0.009 C 
HETATM   23  C17 UNL     1      -4.738   5.648  12.994  1.00  0.00     0.024 C 
HETATM   24  C14 UNL     1      -5.840   6.427  15.573  1.00  0.00    -0.013 C 
HETATM   25  C16 UNL     1      -5.366   5.005  15.323  1.00  0.00     0.024 C 
ENDBRANCH   2  16
TORSDOF 4
ENDMDL
MODEL 2
REMARK VINA RESULT: -7.276215303      0.060      1.546
REMARK  4 active torsions:
REMARK  status: ('A' for Active; 'I' for Inactive)
REMARK       I    between atoms: C1_2  and  N1_3 
REMARK    1  A    between atoms: C1_2  and  C8_16 
REMARK    2  A    between atoms: N1_3  and  C2_5 
REMARK    3  A    between atoms: C2_5  and  C3_6 
REMARK    4  A    between atoms: C3_6  and  N2_7 
ROOT
HETATM    1  O1  UNL     1      -5.920   2.377  13.507  1.00  0.00    -0.273 OA
HETATM    2  C1  UNL     1      -5.036   3.267  13.670  1.00  0.00     0.226 C 
HETATM    3  N1  UNL     1      -3.657   2.971  13.619  1.00  0.00    -0.356 N 
ATOM      4  H1  UNL     1      -2.978   3.718  13.760  1.00  0.00     0.162 HD
ENDROOT
BRANCH   3   5
HETATM    5  C2  UNL     1      -3.196   1.634  13.371  1.00  0.00     0.167 C 
BRANCH   5   6
HETATM    6  C3  UNL     1      -2.465   1.451  12.064  1.00  0.00     0.088 C 
BRANCH   6   7
HETATM    7  N2  UNL     1      -3.062   0.401  11.346  1.00  0.00    -0.307 N 
HETATM    8  C4  UNL     1      -4.351   0.604  10.827  1.00  0.00     0.088 C 
HETATM    9  C5  UNL     1      -5.250  -0.530  11.250  1.00  0.00     0.159 C 
HETATM   10  N3  UNL     1      -4.713  -1.382  12.256  1.00  0.00    -0.410 N 
HETATM   11  C6  UNL     1      -3.379  -1.836  12.076  1.00  0.00     0.219 C 
ATOM     12  H3  UNL     1      -5.263  -1.653  13.072  1.00  0.00     0.153 HD
HETATM   13  C7  UNL     1      -2.489  -0.868  11.295  1.00  0.00     0.342 C 
HETATM   14  F1  UNL     1      -1.206  -0.847  11.758  1.00  0.00    -0.180 F 
HETATM   15  F2  UNL     1      -2.431  -1.373   9.987  1.00  0.00    -0.180 F 
ENDBRANCH   6   7
ENDBRANCH   5   6
ENDBRANCH   3   5
BRANCH   2  16
HETATM   16  C8  UNL     1      -5.519   4.654  13.920  1.00  0.00     0.042 C 
HETATM   17  C9  UNL     1      -4.662   5.614  13.120  1.00  0.00     0.024 C 
HETATM   18  C10 UNL     1      -5.171   7.002  13.309  1.00  0.00    -0.013 C 
HETATM   19  C11 UNL     1      -5.051   7.381  14.776  1.00  0.00     0.009 C 
HETATM   20  C15 UNL     1      -6.607   7.098  12.913  1.00  0.00     0.009 C 
HETATM   21  C12 UNL     1      -5.855   6.403  15.594  1.00  0.00    -0.013 C 
HETATM   22  C13 UNL     1      -7.317   6.486  15.224  1.00  0.00     0.009 C 
HETATM   23  C17 UNL     1      -5.318   5.023  15.386  1.00  0.00     0.024 C 
HETATM   24  C14 UNL     1      -7.448   6.165  13.763  1.00  0.00    -0.013 C 
HETATM   25  C16 UNL     1      -6.949   4.752  13.515  1.00  0.00     0.024 C 
ENDBRANCH   2  16
TORSDOF 4
ENDMDL
MODEL 3
REMARK VINA RESULT: -7.267272713      0.075      1.525
REMARK  4 active torsions:
REMARK  status: ('A' for Active; 'I' for Inactive)
REMARK       I    between atoms: C1_2  and  N1_3 
REMARK    1  A    between atoms: C1_2  and  C8_16 
REMARK    2  A    between atoms: N1_3  and  C2_5 
REMARK    3  A    between atoms: C2_5  and  C3_6 
REMARK    4  A    between atoms: C3_6  and  N2_7 
ROOT
HETATM    1  O1  UNL     1      -5.874   2.360  13.495  1.00  0.00    -0.273 OA
HETATM    2  C1  UNL     1      -5.003   3.269  13.620  1.00  0.00     0.226 C 
HETATM    3  N1  UNL     1      -3.621   2.996  13.544  1.00  0.00    -0.356 N 
ATOM      4  H1  UNL     1      -2.952   3.758  13.655  1.00  0.00     0.162 HD
ENDROOT
BRANCH   3   5
HETATM    5  C2  UNL     1      -3.141   1.664  13.314  1.00  0.00     0.167 C 
BRANCH   5   6
HETATM    6  C3  UNL     1      -2.448   1.462  11.990  1.00  0.00     0.088 C 
BRANCH   6   7
HETATM    7  N2  UNL     1      -3.064   0.403  11.302  1.00  0.00    -0.307 N 
HETATM    8  C4  UNL     1      -4.367   0.601  10.816  1.00  0.00     0.088 C 
HETATM    9  C5  UNL     1      -5.255  -0.526  11.279  1.00  0.00     0.159 C 
HETATM   10  N3  UNL     1      -4.692  -1.364  12.283  1.00  0.00    -0.410 N 
HETATM   11  C6  UNL     1      -3.364  -1.823  12.073  1.00  0.00     0.219 C 
ATOM     12  H3  UNL     1      -5.219  -1.624  13.117  1.00  0.00     0.153 HD
HETATM   13  C7  UNL     1      -2.494  -0.867  11.254  1.00  0.00     0.342 C 
HETATM   14  F1  UNL     1      -1.199  -0.842  11.682  1.00  0.00    -0.180 F 
HETATM   15  F2  UNL     1      -2.472  -1.391   9.952  1.00  0.00    -0.180 F 
ENDBRANCH   6   7
ENDBRANCH   5   6
ENDBRANCH   3   5
BRANCH   2  16
HETATM   16  C8  UNL     1      -5.507   4.652  13.851  1.00  0.00     0.042 C 
HETATM   17  C9  UNL     1      -5.442   4.946  15.337  1.00  0.00     0.024 C 
HETATM   18  C10 UNL     1      -5.884   6.347  15.581  1.00  0.00    -0.013 C 
HETATM   19  C11 UNL     1      -7.330   6.497  15.139  1.00  0.00     0.009 C 
HETATM   20  C15 UNL     1      -5.050   7.309  14.801  1.00  0.00     0.009 C 
HETATM   21  C12 UNL     1      -7.424   6.158  13.674  1.00  0.00    -0.013 C 
HETATM   22  C13 UNL     1      -6.600   7.123  12.856  1.00  0.00     0.009 C 
HETATM   23  C17 UNL     1      -6.978   4.746  13.463  1.00  0.00     0.024 C 
HETATM   24  C14 UNL     1      -5.174   7.025  13.317  1.00  0.00    -0.013 C 
HETATM   25  C16 UNL     1      -4.669   5.611  13.081  1.00  0.00     0.024 C 
ENDBRANCH   2  16
TORSDOF 4
ENDMDL
MODEL 4
REMARK VINA RESULT: -7.028977134      1.444      2.332
REMARK  4 active torsions:
REMARK  status: ('A' for Active; 'I' for Inactive)
REMARK       I    between atoms: C1_2  and  N1_3 
REMARK    1  A    between atoms: C1_2  and  C8_16 
REMARK    2  A    between atoms: N1_3  and  C2_5 
REMARK    3  A    between atoms: C2_5  and  C3_6 
REMARK    4  A    between atoms: C3_6  and  N2_7 
ROOT
HETATM    1  O1  UNL     1      -4.916   2.363  14.425  1.00  0.00    -0.273 OA
HETATM    2  C1  UNL     1      -4.415   3.350  13.813  1.00  0.00     0.226 C 
HETATM    3  N1  UNL     1      -3.311   3.212  12.945  1.00  0.00    -0.356 N 
ATOM      4  H1  UNL     1      -2.936   4.035  12.475  1.00  0.00     0.162 HD
ENDROOT
BRANCH   3   5
HETATM    5  C2  UNL     1      -2.708   1.930  12.714  1.00  0.00     0.167 C 
BRANCH   5   6
HETATM    6  C3  UNL     1      -3.178   1.227  11.465  1.00  0.00     0.088 C 
BRANCH   6   7
HETATM    7  N2  UNL     1      -3.293  -0.148  11.725  1.00  0.00    -0.307 N 
HETATM    8  C4  UNL     1      -2.169  -0.960  11.499  1.00  0.00     0.088 C 
HETATM    9  C5  UNL     1      -2.555  -2.127  10.626  1.00  0.00     0.159 C 
HETATM   10  N3  UNL     1      -3.838  -2.026  10.018  1.00  0.00    -0.410 N 
HETATM   11  C6  UNL     1      -4.922  -1.640  10.852  1.00  0.00     0.219 C 
ATOM     12  H3  UNL     1      -3.974  -2.221   9.026  1.00  0.00     0.153 HD
HETATM   13  C7  UNL     1      -4.520  -0.736  12.020  1.00  0.00     0.342 C 
HETATM   14  F1  UNL     1      -5.464   0.209  12.298  1.00  0.00    -0.180 F 
HETATM   15  F2  UNL     1      -4.453  -1.573  13.145  1.00  0.00    -0.180 F 
ENDBRANCH   6   7
ENDBRANCH   5   6
ENDBRANCH   3   5
BRANCH   2  16
HETATM   16  C8  UNL     1      -5.049   4.677  14.051  1.00  0.00     0.042 C 
HETATM   17  C9  UNL     1      -4.366   5.703  13.168  1.00  0.00     0.024 C 
HETATM   18  C10 UNL     1      -5.028   7.025  13.347  1.00  0.00    -0.013 C 
HETATM   19  C11 UNL     1      -4.867   7.472  14.791  1.00  0.00     0.009 C 
HETATM   20  C15 UNL     1      -6.488   6.933  13.043  1.00  0.00     0.009 C 
HETATM   21  C12 UNL     1      -5.495   6.436  15.689  1.00  0.00    -0.013 C 
HETATM   22  C13 UNL     1      -6.976   6.328  15.413  1.00  0.00     0.009 C 
HETATM   23  C17 UNL     1      -4.807   5.124  15.489  1.00  0.00     0.024 C 
HETATM   24  C14 UNL     1      -7.154   5.939  13.973  1.00  0.00    -0.013 C 
HETATM   25  C16 UNL     1      -6.502   4.587  13.737  1.00  0.00     0.024 C 
ENDBRANCH   2  16
TORSDOF 4
ENDMDL
MODEL 5
REMARK VINA RESULT: -7.021702960      1.237      1.687
REMARK  4 active torsions:
REMARK  status: ('A' for Active; 'I' for Inactive)
REMARK       I    between atoms: C1_2  and  N1_3 
REMARK    1  A    between atoms: C1_2  and  C8_16 
REMARK    2  A    between atoms: N1_3  and  C2_5 
REMARK    3  A    between atoms: C2_5  and  C3_6 
REMARK    4  A    between atoms: C3_6  and  N2_7 
ROOT
HETATM    1  O1  UNL     1      -3.563   1.632  14.469  1.00  0.00    -0.273 OA
HETATM    2  C1  UNL     1      -3.397   2.615  13.692  1.00  0.00     0.226 C 
HETATM    3  N1  UNL     1      -2.529   2.554  12.581  1.00  0.00    -0.356 N 
ATOM      4  H1  UNL     1      -2.422   3.372  11.983  1.00  0.00     0.162 HD
ENDROOT
BRANCH   3   5
HETATM    5  C2  UNL     1      -1.795   1.358  12.281  1.00  0.00     0.167 C 
BRANCH   5   6
HETATM    6  C3  UNL     1      -1.961   0.853  10.870  1.00  0.00     0.088 C 
BRANCH   6   7
HETATM    7  N2  UNL     1      -3.047  -0.037  10.823  1.00  0.00    -0.307 N 
HETATM    8  C4  UNL     1      -4.338   0.503  10.692  1.00  0.00     0.088 C 
HETATM    9  C5  UNL     1      -5.232  -0.062  11.767  1.00  0.00     0.159 C 
HETATM   10  N3  UNL     1      -4.558  -0.771  12.801  1.00  0.00    -0.410 N 
HETATM   11  C6  UNL     1      -3.585  -1.726  12.402  1.00  0.00     0.219 C 
ATOM     12  H3  UNL     1      -4.765  -0.601  13.785  1.00  0.00     0.153 HD
HETATM   13  C7  UNL     1      -2.890  -1.396  11.079  1.00  0.00     0.342 C 
HETATM   14  F1  UNL     1      -1.572  -1.748  11.080  1.00  0.00    -0.180 F 
HETATM   15  F2  UNL     1      -3.514  -2.197  10.110  1.00  0.00    -0.180 F 
ENDBRANCH   6   7
ENDBRANCH   5   6
ENDBRANCH   3   5
BRANCH   2  16
HETATM   16  C8  UNL     1      -4.167   3.852  14.003  1.00  0.00     0.042 C 
HETATM   17  C9  UNL     1      -5.278   3.497  14.972  1.00  0.00     0.024 C 
HETATM   18  C10 UNL     1      -6.021   4.733  15.343  1.00  0.00    -0.013 C 
HETATM   19  C11 UNL     1      -6.661   5.324  14.097  1.00  0.00     0.009 C 
HETATM   20  C15 UNL     1      -5.097   5.752  15.927  1.00  0.00     0.009 C 
HETATM   21  C12 UNL     1      -5.575   5.635  13.100  1.00  0.00    -0.013 C 
HETATM   22  C13 UNL     1      -4.630   6.673  13.657  1.00  0.00     0.009 C 
HETATM   23  C17 UNL     1      -4.851   4.375  12.745  1.00  0.00     0.024 C 
HETATM   24  C14 UNL     1      -4.028   6.126  14.919  1.00  0.00    -0.013 C 
HETATM   25  C16 UNL     1      -3.248   4.863  14.594  1.00  0.00     0.024 C 
ENDBRANCH   2  16
TORSDOF 4
ENDMDL
