MODEL 1
REMARK VINA RESULT: -7.832046331      0.000      0.000
REMARK  6 active torsions:
REMARK  status: ('A' for Active; 'I' for Inactive)
REMARK    1  A    between atoms: C1_2  and  C2_3 
REMARK       I    between atoms: C1_2  and  N3_19 
REMARK    2  A    between atoms: C2_3  and  C3_4 
REMARK    3  A    between atoms: C2_3  and  N1_10 
REMARK    4  A    between atoms: C3_4  and  C4_5 
REMARK    5  A    between atoms: C4_5  and  C5_6 
REMARK    6  A    between atoms: C14_22  and  O2_23 
ROOT
HETATM    1  C2  UNL     1      -4.747   0.593  14.269  1.00  0.00     0.317 C 
ENDROOT
BRANCH   1   2
HETATM    2  C1  UNL     1      -4.092   1.808  14.687  1.00  0.00     0.253 C 
HETATM    3  O1  UNL     1      -3.038   1.720  15.413  1.00  0.00    -0.271 OA
HETATM    4  N3  UNL     1      -4.510   3.103  14.365  1.00  0.00    -0.350 N 
HETATM    5  C12 UNL     1      -5.665   3.333  13.548  1.00  0.00     0.128 C 
HETATM    6  C16 UNL     1      -3.801   4.298  14.830  1.00  0.00     0.128 C 
HETATM    7  C13 UNL     1      -6.599   4.403  14.080  1.00  0.00     0.051 C 
HETATM    8  C14 UNL     1      -5.782   5.628  14.371  1.00  0.00     0.121 C 
HETATM    9  C15 UNL     1      -4.789   5.248  15.449  1.00  0.00     0.051 C 
BRANCH   8  10
HETATM   10  O2  UNL     1      -6.609   6.669  14.712  1.00  0.00    -0.395 OA
ATOM     11  H2  UNL     1      -6.222   7.169  15.421  1.00  0.00     0.210 HD
ENDBRANCH   8  10
ENDBRANCH   1   2
BRANCH   1  12
HETATM   12  C3  UNL     1      -5.047  -0.194  15.566  1.00  0.00     0.055 C 
BRANCH  12  13
HETATM   13  C4  UNL     1      -6.206   0.377  16.315  1.00  0.00     0.120 C 
BRANCH  13  14
HETATM   14  C5  UNL     1      -6.510  -0.535  17.497  1.00  0.00     0.388 C 
HETATM   15  F1  UNL     1      -6.424   0.148  18.691  1.00  0.00    -0.171 F 
HETATM   16  F2  UNL     1      -5.706  -1.649  17.502  1.00  0.00    -0.171 F 
HETATM   17  F3  UNL     1      -7.836  -0.955  17.389  1.00  0.00    -0.171 F 
ENDBRANCH  13  14
ENDBRANCH  12  13
ENDBRANCH   1  12
BRANCH   1  18
HETATM   18  N1  UNL     1      -4.018  -0.293  13.451  1.00  0.00     0.125 N 
HETATM   19  C6  UNL     1      -4.446  -1.663  13.430  1.00  0.00     0.281 C 
HETATM   20  C7  UNL     1      -3.550  -2.238  12.325  1.00  0.00     0.022 C 
HETATM   21  C8  UNL     1      -4.476  -2.556  11.168  1.00  0.00     0.050 C 
HETATM   22  C11 UNL     1      -2.726  -1.052  11.803  1.00  0.00     0.064 C 
HETATM   23  C9  UNL     1      -5.129  -1.351  10.629  1.00  0.00     0.058 C 
HETATM   24  N2  UNL     1      -4.811  -0.107  11.163  1.00  0.00    -0.373 N 
HETATM   25  C10 UNL     1      -3.762   0.057  12.091  1.00  0.00     0.322 C 
ATOM     26  H2  UNL     1      -5.350   0.709  10.875  1.00  0.00     0.160 HD
ENDBRANCH   1  18
TORSDOF 6
ENDMDL
MODEL 2
REMARK VINA RESULT: -7.259899746      0.963      1.316
REMARK  6 active torsions:
REMARK  status: ('A' for Active; 'I' for Inactive)
REMARK    1  A    between atoms: C1_2  and  C2_3 
REMARK       I    between atoms: C1_2  and  N3_19 
REMARK    2  A    between atoms: C2_3  and  C3_4 
REMARK    3  A    between atoms: C2_3  and  N1_10 
REMARK    4  A    between atoms: C3_4  and  C4_5 
REMARK    5  A    between atoms: C4_5  and  C5_6 
REMARK    6  A    between atoms: C14_22  and  O2_23 
ROOT
HETATM    1  C2  UNL     1      -4.521   0.993  13.699  1.00  0.00     0.317 C 
ENDROOT
BRANCH   1   2
HETATM    2  C1  UNL     1      -3.751   2.097  14.218  1.00  0.00     0.253 C 
HETATM    3  O1  UNL     1      -2.850   1.858  15.099  1.00  0.00    -0.271 OA
HETATM    4  N3  UNL     1      -3.902   3.435  13.840  1.00  0.00    -0.350 N 
HETATM    5  C12 UNL     1      -4.865   3.828  12.854  1.00  0.00     0.128 C 
HETATM    6  C16 UNL     1      -3.090   4.511  14.414  1.00  0.00     0.128 C 
HETATM    7  C13 UNL     1      -5.686   5.044  13.238  1.00  0.00     0.051 C 
HETATM    8  C14 UNL     1      -4.737   6.130  13.658  1.00  0.00     0.121 C 
HETATM    9  C15 UNL     1      -3.997   5.620  14.875  1.00  0.00     0.051 C 
BRANCH   8  10
HETATM   10  O2  UNL     1      -5.430   7.296  13.870  1.00  0.00    -0.395 OA
ATOM     11  H2  UNL     1      -4.822   8.004  14.046  1.00  0.00     0.210 HD
ENDBRANCH   8  10
ENDBRANCH   1   2
BRANCH   1  12
HETATM   12  C3  UNL     1      -5.212   0.346  14.922  1.00  0.00     0.055 C 
BRANCH  12  13
HETATM   13  C4  UNL     1      -6.362   1.161  15.415  1.00  0.00     0.120 C 
BRANCH  13  14
HETATM   14  C5  UNL     1      -6.801   0.605  16.764  1.00  0.00     0.388 C 
HETATM   15  F1  UNL     1      -7.721  -0.410  16.610  1.00  0.00    -0.171 F 
HETATM   16  F2  UNL     1      -7.284   1.592  17.589  1.00  0.00    -0.171 F 
HETATM   17  F3  UNL     1      -5.690   0.028  17.377  1.00  0.00    -0.171 F 
ENDBRANCH  13  14
ENDBRANCH  12  13
ENDBRANCH   1  12
BRANCH   1  18
HETATM   18  N1  UNL     1      -3.817  -0.052  13.068  1.00  0.00     0.125 N 
HETATM   19  C6  UNL     1      -4.347  -1.378  13.218  1.00  0.00     0.281 C 
HETATM   20  C7  UNL     1      -3.438  -2.171  12.269  1.00  0.00     0.022 C 
HETATM   21  C8  UNL     1      -4.322  -2.596  11.113  1.00  0.00     0.050 C 
HETATM   22  C11 UNL     1      -2.500  -1.134  11.634  1.00  0.00     0.064 C 
HETATM   23  C9  UNL     1      -4.852  -1.445  10.364  1.00  0.00     0.058 C 
HETATM   24  N2  UNL     1      -4.470  -0.158  10.730  1.00  0.00    -0.373 N 
HETATM   25  C10 UNL     1      -3.463   0.073  11.690  1.00  0.00     0.322 C 
ATOM     26  H2  UNL     1      -4.930   0.640  10.292  1.00  0.00     0.160 HD
ENDBRANCH   1  18
TORSDOF 6
ENDMDL
MODEL 3
REMARK VINA RESULT: -7.184795674      1.477      2.079
REMARK  6 active torsions:
REMARK  status: ('A' for Active; 'I' for Inactive)
REMARK    1  A    between atoms: C1_2  and  C2_3 
REMARK       I    between atoms: C1_2  and  N3_19 
REMARK    2  A    between atoms: C2_3  and  C3_4 
REMARK    3  A    between atoms: C2_3  and  N1_10 
REMARK    4  A    between atoms: C3_4  and  C4_5 
REMARK    5  A    between atoms: C4_5  and  C5_6 
REMARK    6  A    between atoms: C14_22  and  O2_23 
ROOT
HETATM    1  C2  UNL     1      -5.560   0.643  14.093  1.00  0.00     0.317 C 
ENDROOT
BRANCH   1   2
HETATM    2  C1  UNL     1      -5.634   2.080  14.184  1.00  0.00     0.253 C 
HETATM    3  O1  UNL     1      -6.759   2.654  13.960  1.00  0.00    -0.271 OA
HETATM    4  N3  UNL     1      -4.566   2.925  14.502  1.00  0.00    -0.350 N 
HETATM    5  C12 UNL     1      -3.262   2.405  14.787  1.00  0.00     0.128 C 
HETATM    6  C16 UNL     1      -4.708   4.383  14.569  1.00  0.00     0.128 C 
HETATM    7  C13 UNL     1      -2.133   3.140  14.090  1.00  0.00     0.051 C 
HETATM    8  C14 UNL     1      -2.297   4.607  14.363  1.00  0.00     0.121 C 
HETATM    9  C15 UNL     1      -3.618   5.022  13.752  1.00  0.00     0.051 C 
BRANCH   8  10
HETATM   10  O2  UNL     1      -1.213   5.295  13.876  1.00  0.00    -0.395 OA
ATOM     11  H2  UNL     1      -0.769   5.741  14.587  1.00  0.00     0.210 HD
ENDBRANCH   8  10
ENDBRANCH   1   2
BRANCH   1  12
HETATM   12  C3  UNL     1      -5.317   0.139  15.535  1.00  0.00     0.055 C 
BRANCH  12  13
HETATM   13  C4  UNL     1      -6.435   0.505  16.454  1.00  0.00     0.120 C 
BRANCH  13  14
HETATM   14  C5  UNL     1      -6.479  -0.514  17.586  1.00  0.00     0.388 C 
HETATM   15  F1  UNL     1      -6.265   0.087  18.808  1.00  0.00    -0.171 F 
HETATM   16  F2  UNL     1      -5.596  -1.545  17.379  1.00  0.00    -0.171 F 
HETATM   17  F3  UNL     1      -7.767  -1.046  17.640  1.00  0.00    -0.171 F 
ENDBRANCH  13  14
ENDBRANCH  12  13
ENDBRANCH   1  12
BRANCH   1  18
HETATM   18  N1  UNL     1      -4.517   0.092  13.321  1.00  0.00     0.125 N 
HETATM   19  C6  UNL     1      -4.334  -1.330  13.393  1.00  0.00     0.281 C 
HETATM   20  C7  UNL     1      -3.266  -1.547  12.313  1.00  0.00     0.022 C 
HETATM   21  C8  UNL     1      -3.961  -2.297  11.193  1.00  0.00     0.050 C 
HETATM   22  C11 UNL     1      -3.007  -0.162  11.704  1.00  0.00     0.064 C 
HETATM   23  C9  UNL     1      -5.051  -1.511  10.590  1.00  0.00     0.058 C 
HETATM   24  N2  UNL     1      -5.288  -0.217  11.039  1.00  0.00    -0.373 N 
HETATM   25  C10 UNL     1      -4.415   0.429  11.938  1.00  0.00     0.322 C 
ATOM     26  H2  UNL     1      -6.116   0.279  10.708  1.00  0.00     0.160 HD
ENDBRANCH   1  18
TORSDOF 6
ENDMDL
MODEL 4
REMARK VINA RESULT: -7.092596369      1.964      5.475
REMARK  6 active torsions:
REMARK  status: ('A' for Active; 'I' for Inactive)
REMARK    1  A    between atoms: C1_2  and  C2_3 
REMARK       I    between atoms: C1_2  and  N3_19 
REMARK    2  A    between atoms: C2_3  and  C3_4 
REMARK    3  A    between atoms: C2_3  and  N1_10 
REMARK    4  A    between atoms: C3_4  and  C4_5 
REMARK    5  A    between atoms: C4_5  and  C5_6 
REMARK    6  A    between atoms: C14_22  and  O2_23 
ROOT
HETATM    1  C2  UNL     1      -4.600   1.281  14.676  1.00  0.00     0.317 C 
ENDROOT
BRANCH   1   2
HETATM    2  C1  UNL     1      -5.260   0.825  13.478  1.00  0.00     0.253 C 
HETATM    3  O1  UNL     1      -6.531   0.965  13.384  1.00  0.00    -0.271 OA
HETATM    4  N3  UNL     1      -4.624   0.229  12.384  1.00  0.00    -0.350 N 
HETATM    5  C12 UNL     1      -3.205   0.031  12.362  1.00  0.00     0.128 C 
HETATM    6  C16 UNL     1      -5.357  -0.222  11.197  1.00  0.00     0.128 C 
HETATM    7  C13 UNL     1      -2.777  -1.347  11.893  1.00  0.00     0.051 C 
HETATM    8  C14 UNL     1      -3.471  -1.629  10.592  1.00  0.00     0.121 C 
HETATM    9  C15 UNL     1      -4.957  -1.637  10.879  1.00  0.00     0.051 C 
BRANCH   8  10
HETATM   10  O2  UNL     1      -2.997  -2.802  10.057  1.00  0.00    -0.395 OA
ATOM     11  H2  UNL     1      -2.110  -2.677   9.744  1.00  0.00     0.210 HD
ENDBRANCH   8  10
ENDBRANCH   1   2
BRANCH   1  12
HETATM   12  C3  UNL     1      -5.559   0.945  15.842  1.00  0.00     0.055 C 
BRANCH  12  13
HETATM   13  C4  UNL     1      -5.111  -0.254  16.611  1.00  0.00     0.120 C 
BRANCH  13  14
HETATM   14  C5  UNL     1      -6.209  -0.631  17.596  1.00  0.00     0.388 C 
HETATM   15  F1  UNL     1      -7.452  -0.586  17.001  1.00  0.00    -0.171 F 
HETATM   16  F2  UNL     1      -6.171   0.150  18.726  1.00  0.00    -0.171 F 
HETATM   17  F3  UNL     1      -6.013  -1.958  17.976  1.00  0.00    -0.171 F 
ENDBRANCH  13  14
ENDBRANCH  12  13
ENDBRANCH   1  12
BRANCH   1  18
HETATM   18  N1  UNL     1      -4.339   2.662  14.790  1.00  0.00     0.125 N 
HETATM   19  C6  UNL     1      -3.483   3.247  13.796  1.00  0.00     0.281 C 
HETATM   20  C7  UNL     1      -3.593   4.737  14.150  1.00  0.00     0.022 C 
HETATM   21  C8  UNL     1      -4.356   5.376  13.006  1.00  0.00     0.050 C 
HETATM   22  C11 UNL     1      -4.584   4.812  15.321  1.00  0.00     0.064 C 
HETATM   23  C9  UNL     1      -5.724   4.845  12.884  1.00  0.00     0.058 C 
HETATM   24  N2  UNL     1      -6.177   3.908  13.806  1.00  0.00    -0.373 N 
HETATM   25  C10 UNL     1      -5.428   3.571  14.952  1.00  0.00     0.322 C 
ATOM     26  H2  UNL     1      -7.076   3.452  13.650  1.00  0.00     0.160 HD
ENDBRANCH   1  18
TORSDOF 6
ENDMDL
MODEL 5
REMARK VINA RESULT: -7.055300780      3.874      6.159
REMARK  6 active torsions:
REMARK  status: ('A' for Active; 'I' for Inactive)
REMARK    1  A    between atoms: C1_2  and  C2_3 
REMARK       I    between atoms: C1_2  and  N3_19 
REMARK    2  A    between atoms: C2_3  and  C3_4 
REMARK    3  A    between atoms: C2_3  and  N1_10 
REMARK    4  A    between atoms: C3_4  and  C4_5 
REMARK    5  A    between atoms: C4_5  and  C5_6 
REMARK    6  A    between atoms: C14_22  and  O2_23 
ROOT
HETATM    1  C2  UNL     1      -3.734   0.568  12.554  1.00  0.00     0.317 C 
ENDROOT
BRANCH   1   2
HETATM    2  C1  UNL     1      -3.417   1.199  11.297  1.00  0.00     0.253 C 
HETATM    3  O1  UNL     1      -4.318   1.239  10.384  1.00  0.00    -0.271 OA
HETATM    4  N3  UNL     1      -2.189   1.786  10.975  1.00  0.00    -0.350 N 
HETATM    5  C12 UNL     1      -1.109   1.819  11.915  1.00  0.00     0.128 C 
HETATM    6  C16 UNL     1      -1.930   2.404   9.671  1.00  0.00     0.128 C 
HETATM    7  C13 UNL     1       0.235   1.423  11.331  1.00  0.00     0.051 C 
HETATM    8  C14 UNL     1       0.458   2.237  10.089  1.00  0.00     0.121 C 
HETATM    9  C15 UNL     1      -0.641   1.864   9.117  1.00  0.00     0.051 C 
BRANCH   8  10
HETATM   10  O2  UNL     1       1.727   2.019   9.612  1.00  0.00    -0.395 OA
ATOM     11  H2  UNL     1       2.344   2.572  10.076  1.00  0.00     0.210 HD
ENDBRANCH   8  10
ENDBRANCH   1   2
BRANCH   1  12
HETATM   12  C3  UNL     1      -4.610  -0.658  12.205  1.00  0.00     0.055 C 
BRANCH  12  13
HETATM   13  C4  UNL     1      -3.934  -1.946  12.541  1.00  0.00     0.120 C 
BRANCH  13  14
HETATM   14  C5  UNL     1      -3.054  -2.348  11.364  1.00  0.00     0.388 C 
HETATM   15  F1  UNL     1      -1.786  -1.823  11.486  1.00  0.00    -0.171 F 
HETATM   16  F2  UNL     1      -3.622  -2.003  10.162  1.00  0.00    -0.171 F 
HETATM   17  F3  UNL     1      -2.901  -3.734  11.393  1.00  0.00    -0.171 F 
ENDBRANCH  13  14
ENDBRANCH  12  13
ENDBRANCH   1  12
BRANCH   1  18
HETATM   18  N1  UNL     1      -4.484   1.313  13.487  1.00  0.00     0.125 N 
HETATM   19  C6  UNL     1      -5.860   0.943  13.661  1.00  0.00     0.281 C 
HETATM   20  C7  UNL     1      -6.260   1.833  14.845  1.00  0.00     0.022 C 
HETATM   21  C8  UNL     1      -6.483   0.891  16.012  1.00  0.00     0.050 C 
HETATM   22  C11 UNL     1      -4.984   2.592  15.241  1.00  0.00     0.064 C 
HETATM   23  C9  UNL     1      -5.254   0.174  16.390  1.00  0.00     0.058 C 
HETATM   24  N2  UNL     1      -4.067   0.452  15.720  1.00  0.00    -0.373 N 
HETATM   25  C10 UNL     1      -3.965   1.517  14.801  1.00  0.00     0.322 C 
ATOM     26  H2  UNL     1      -3.249  -0.130  15.897  1.00  0.00     0.160 HD
ENDBRANCH   1  18
TORSDOF 6
ENDMDL
