MODEL 1
REMARK VINA RESULT: -6.865739337      0.000      0.000
REMARK  6 active torsions:
REMARK  status: ('A' for Active; 'I' for Inactive)
REMARK    1  A    between atoms: C3_3  and  C4_4 
REMARK    2  A    between atoms: C3_3  and  N1_9 
REMARK    3  A    between atoms: C4_4  and  C5_5 
REMARK       I    between atoms: N1_9  and  C6_11 
REMARK       I    between atoms: C6_11  and  N2_13 
REMARK    4  A    between atoms: C11_19  and  C12_20 
REMARK    5  A    between atoms: C12_20  and  N3_21 
REMARK    6  A    between atoms: N3_21  and  C13_24 
ROOT
HETATM    1  C1  UNL     1      -3.530   6.488  16.109  1.00  0.00     0.014 C 
HETATM    2  C2  UNL     1      -4.311   5.840  15.460  1.00  0.00    -0.092 C 
HETATM    3  C3  UNL     1      -5.264   5.054  14.639  1.00  0.00     0.173 C 
ENDROOT
BRANCH   3   4
HETATM    4  C4  UNL     1      -5.832   5.908  13.539  1.00  0.00     0.155 C 
BRANCH   4   5
HETATM    5  C5  UNL     1      -7.292   6.149  13.779  1.00  0.00     0.390 C 
HETATM    6  F1  UNL     1      -7.656   7.343  13.197  1.00  0.00    -0.171 F 
HETATM    7  F2  UNL     1      -8.001   5.099  13.207  1.00  0.00    -0.171 F 
HETATM    8  F3  UNL     1      -7.581   6.234  15.134  1.00  0.00    -0.171 F 
ENDBRANCH   4   5
ENDBRANCH   3   4
BRANCH   3   9
HETATM    9  N1  UNL     1      -4.578   3.876  14.102  1.00  0.00    -0.328 N 
HETATM   10  C6  UNL     1      -5.189   2.610  14.184  1.00  0.00     0.319 C 
HETATM   11  O1  UNL     1      -6.317   2.495  14.716  1.00  0.00    -0.247 OA
HETATM   12  N2  UNL     1      -4.487   1.476  13.649  1.00  0.00    -0.333 N 
HETATM   13  C7  UNL     1      -4.951   0.098  13.659  1.00  0.00     0.135 C 
HETATM   14  C16 UNL     1      -3.197   1.473  13.002  1.00  0.00     0.141 C 
HETATM   15  C8  UNL     1      -4.109  -0.642  12.670  1.00  0.00     0.041 C 
HETATM   16  C9  UNL     1      -4.972  -1.173  11.543  1.00  0.00     0.174 C 
HETATM   17  C11 UNL     1      -3.348   0.446  11.931  1.00  0.00     0.028 C 
HETATM   18  O2  UNL     1      -5.390  -0.005  10.925  1.00  0.00    -0.390 OA
HETATM   19  C10 UNL     1      -4.308   0.874  10.880  1.00  0.00     0.181 C 
ATOM     20  H1  UNL     1      -3.659   3.973  13.670  1.00  0.00     0.165 HD
BRANCH  17  21
HETATM   21  C12 UNL     1      -2.069  -0.116  11.409  1.00  0.00     0.246 C 
BRANCH  21  22
HETATM   22  N3  UNL     1      -1.790   0.264  10.046  1.00  0.00    -0.070 N 
ATOM     23  H32 UNL     1      -1.564  -0.547   9.470  1.00  0.00     0.277 HD
ATOM     24  H31 UNL     1      -2.635   0.569   9.562  1.00  0.00     0.277 HD
BRANCH  22  25
HETATM   25  C13 UNL     1      -0.754   1.264   9.981  1.00  0.00     0.186 A 
HETATM   26  C14 UNL     1      -0.628   1.995   8.638  1.00  0.00     0.035 A 
HETATM   27  C15 UNL     1      -1.098   2.703   9.833  1.00  0.00     0.035 A 
ENDBRANCH  22  25
ENDBRANCH  21  22
ENDBRANCH  17  21
ENDBRANCH   3   9
TORSDOF 6
ENDMDL
MODEL 2
REMARK VINA RESULT: -6.519238855      0.866      1.059
REMARK  6 active torsions:
REMARK  status: ('A' for Active; 'I' for Inactive)
REMARK    1  A    between atoms: C3_3  and  C4_4 
REMARK    2  A    between atoms: C3_3  and  N1_9 
REMARK    3  A    between atoms: C4_4  and  C5_5 
REMARK       I    between atoms: N1_9  and  C6_11 
REMARK       I    between atoms: C6_11  and  N2_13 
REMARK    4  A    between atoms: C11_19  and  C12_20 
REMARK    5  A    between atoms: C12_20  and  N3_21 
REMARK    6  A    between atoms: N3_21  and  C13_24 
ROOT
HETATM    1  C1  UNL     1      -2.358   6.487  15.441  1.00  0.00     0.014 C 
HETATM    2  C2  UNL     1      -3.262   5.713  15.254  1.00  0.00    -0.092 C 
HETATM    3  C3  UNL     1      -4.379   4.770  15.000  1.00  0.00     0.173 C 
ENDROOT
BRANCH   3   4
HETATM    4  C4  UNL     1      -5.476   5.456  14.236  1.00  0.00     0.155 C 
BRANCH   4   5
HETATM    5  C5  UNL     1      -6.544   5.924  15.180  1.00  0.00     0.390 C 
HETATM    6  F1  UNL     1      -7.659   6.289  14.459  1.00  0.00    -0.171 F 
HETATM    7  F2  UNL     1      -6.848   4.873  16.038  1.00  0.00    -0.171 F 
HETATM    8  F3  UNL     1      -6.132   7.029  15.911  1.00  0.00    -0.171 F 
ENDBRANCH   4   5
ENDBRANCH   3   4
BRANCH   3   9
HETATM    9  N1  UNL     1      -3.868   3.606  14.273  1.00  0.00    -0.328 N 
HETATM   10  C6  UNL     1      -4.552   2.377  14.345  1.00  0.00     0.319 C 
HETATM   11  O1  UNL     1      -5.596   2.284  15.031  1.00  0.00    -0.247 OA
HETATM   12  N2  UNL     1      -4.022   1.255  13.620  1.00  0.00    -0.333 N 
HETATM   13  C7  UNL     1      -4.581  -0.087  13.591  1.00  0.00     0.135 C 
HETATM   14  C16 UNL     1      -2.845   1.231  12.787  1.00  0.00     0.141 C 
HETATM   15  C8  UNL     1      -3.950  -0.785  12.430  1.00  0.00     0.041 C 
HETATM   16  C9  UNL     1      -5.005  -1.158  11.408  1.00  0.00     0.174 C 
HETATM   17  C11 UNL     1      -3.226   0.316  11.672  1.00  0.00     0.028 C 
HETATM   18  O2  UNL     1      -5.422   0.084  10.956  1.00  0.00    -0.390 OA
HETATM   19  C10 UNL     1      -4.295   0.895  10.817  1.00  0.00     0.181 C 
ATOM     20  H1  UNL     1      -3.017   3.685  13.715  1.00  0.00     0.165 HD
BRANCH  17  21
HETATM   21  C12 UNL     1      -2.083  -0.275  10.919  1.00  0.00     0.246 C 
BRANCH  21  22
HETATM   22  N3  UNL     1      -1.678   0.514   9.781  1.00  0.00    -0.070 N 
ATOM     23  H32 UNL     1      -1.566  -0.062   8.947  1.00  0.00     0.277 HD
ATOM     24  H31 UNL     1      -2.435   1.116   9.455  1.00  0.00     0.277 HD
BRANCH  22  25
HETATM   25  C13 UNL     1      -0.485   1.272  10.065  1.00  0.00     0.186 A 
HETATM   26  C14 UNL     1       0.022   2.156   8.917  1.00  0.00     0.035 A 
HETATM   27  C15 UNL     1      -0.529   2.757  10.136  1.00  0.00     0.035 A 
ENDBRANCH  22  25
ENDBRANCH  21  22
ENDBRANCH  17  21
ENDBRANCH   3   9
TORSDOF 6
ENDMDL
MODEL 3
REMARK VINA RESULT: -6.434944910      3.710      6.058
REMARK  6 active torsions:
REMARK  status: ('A' for Active; 'I' for Inactive)
REMARK    1  A    between atoms: C3_3  and  C4_4 
REMARK    2  A    between atoms: C3_3  and  N1_9 
REMARK    3  A    between atoms: C4_4  and  C5_5 
REMARK       I    between atoms: N1_9  and  C6_11 
REMARK       I    between atoms: C6_11  and  N2_13 
REMARK    4  A    between atoms: C11_19  and  C12_20 
REMARK    5  A    between atoms: C12_20  and  N3_21 
REMARK    6  A    between atoms: N3_21  and  C13_24 
ROOT
HETATM    1  C1  UNL     1      -4.138  -3.535  11.968  1.00  0.00     0.014 C 
HETATM    2  C2  UNL     1      -4.202  -2.379  12.302  1.00  0.00    -0.092 C 
HETATM    3  C3  UNL     1      -4.268  -0.961  12.735  1.00  0.00     0.173 C 
ENDROOT
BRANCH   3   4
HETATM    4  C4  UNL     1      -4.418  -0.879  14.228  1.00  0.00     0.155 C 
BRANCH   4   5
HETATM    5  C5  UNL     1      -5.016   0.442  14.612  1.00  0.00     0.390 C 
HETATM    6  F1  UNL     1      -5.692   0.965  13.533  1.00  0.00    -0.171 F 
HETATM    7  F2  UNL     1      -5.892   0.225  15.670  1.00  0.00    -0.171 F 
HETATM    8  F3  UNL     1      -4.040   1.356  14.984  1.00  0.00    -0.171 F 
ENDBRANCH   4   5
ENDBRANCH   3   4
BRANCH   3   9
HETATM    9  N1  UNL     1      -3.063  -0.264  12.279  1.00  0.00    -0.328 N 
HETATM   10  C6  UNL     1      -3.153   0.695  11.252  1.00  0.00     0.319 C 
HETATM   11  O1  UNL     1      -4.263   0.949  10.732  1.00  0.00    -0.247 OA
HETATM   12  N2  UNL     1      -1.951   1.359  10.828  1.00  0.00    -0.333 N 
HETATM   13  C7  UNL     1      -1.849   2.359   9.778  1.00  0.00     0.135 C 
HETATM   14  C16 UNL     1      -0.619   1.171  11.351  1.00  0.00     0.141 C 
HETATM   15  C8  UNL     1      -0.528   3.034   9.960  1.00  0.00     0.041 C 
HETATM   16  C9  UNL     1      -0.730   4.503  10.272  1.00  0.00     0.174 C 
HETATM   17  C11 UNL     1      -0.033   2.542  11.310  1.00  0.00     0.028 C 
HETATM   18  O2  UNL     1      -1.334   4.453  11.518  1.00  0.00    -0.390 OA
HETATM   19  C10 UNL     1      -0.700   3.462  12.268  1.00  0.00     0.181 C 
ATOM     20  H1  UNL     1      -2.160  -0.473  12.705  1.00  0.00     0.165 HD
BRANCH  17  21
HETATM   21  C12 UNL     1       1.457   2.594  11.336  1.00  0.00     0.246 C 
BRANCH  21  22
HETATM   22  N3  UNL     1       1.982   3.461  12.363  1.00  0.00    -0.070 N 
ATOM     23  H32 UNL     1       1.410   4.299  12.473  1.00  0.00     0.277 HD
ATOM     24  H31 UNL     1       1.853   3.060  13.292  1.00  0.00     0.277 HD
BRANCH  22  25
HETATM   25  C13 UNL     1       3.363   3.791  12.116  1.00  0.00     0.186 A 
HETATM   26  C14 UNL     1       4.117   4.399  13.307  1.00  0.00     0.035 A 
HETATM   27  C15 UNL     1       4.454   3.060  12.814  1.00  0.00     0.035 A 
ENDBRANCH  22  25
ENDBRANCH  21  22
ENDBRANCH  17  21
ENDBRANCH   3   9
TORSDOF 6
ENDMDL
MODEL 4
REMARK VINA RESULT: -6.331962721      4.056      6.743
REMARK  6 active torsions:
REMARK  status: ('A' for Active; 'I' for Inactive)
REMARK    1  A    between atoms: C3_3  and  C4_4 
REMARK    2  A    between atoms: C3_3  and  N1_9 
REMARK    3  A    between atoms: C4_4  and  C5_5 
REMARK       I    between atoms: N1_9  and  C6_11 
REMARK       I    between atoms: C6_11  and  N2_13 
REMARK    4  A    between atoms: C11_19  and  C12_20 
REMARK    5  A    between atoms: C12_20  and  N3_21 
REMARK    6  A    between atoms: N3_21  and  C13_24 
ROOT
HETATM    1  C1  UNL     1      -4.213  -1.564  13.646  1.00  0.00     0.014 C 
HETATM    2  C2  UNL     1      -4.710  -0.819  14.452  1.00  0.00    -0.092 C 
HETATM    3  C3  UNL     1      -5.300   0.098  15.459  1.00  0.00     0.173 C 
ENDROOT
BRANCH   3   4
HETATM    4  C4  UNL     1      -4.875  -0.306  16.843  1.00  0.00     0.155 C 
BRANCH   4   5
HETATM    5  C5  UNL     1      -6.077  -0.660  17.666  1.00  0.00     0.390 C 
HETATM    6  F1  UNL     1      -7.216  -0.447  16.922  1.00  0.00    -0.171 F 
HETATM    7  F2  UNL     1      -5.976  -2.001  18.019  1.00  0.00    -0.171 F 
HETATM    8  F3  UNL     1      -6.165   0.126  18.807  1.00  0.00    -0.171 F 
ENDBRANCH   4   5
ENDBRANCH   3   4
BRANCH   3   9
HETATM    9  N1  UNL     1      -4.893   1.472  15.153  1.00  0.00    -0.328 N 
HETATM   10  C6  UNL     1      -5.664   2.252  14.271  1.00  0.00     0.319 C 
HETATM   11  O1  UNL     1      -6.695   1.769  13.750  1.00  0.00    -0.247 OA
HETATM   12  N2  UNL     1      -5.235   3.596  13.992  1.00  0.00    -0.333 N 
HETATM   13  C7  UNL     1      -5.892   4.536  13.099  1.00  0.00     0.135 C 
HETATM   14  C16 UNL     1      -4.083   4.274  14.533  1.00  0.00     0.141 C 
HETATM   15  C8  UNL     1      -5.342   5.887  13.426  1.00  0.00     0.041 C 
HETATM   16  C9  UNL     1      -6.446   6.792  13.936  1.00  0.00     0.174 C 
HETATM   17  C11 UNL     1      -4.557   5.677  14.710  1.00  0.00     0.028 C 
HETATM   18  O2  UNL     1      -6.780   6.189  15.138  1.00  0.00    -0.390 OA
HETATM   19  C10 UNL     1      -5.601   5.784  15.763  1.00  0.00     0.181 C 
ATOM     20  H1  UNL     1      -4.052   1.863  15.580  1.00  0.00     0.165 HD
BRANCH  17  21
HETATM   21  C12 UNL     1      -3.478   6.703  14.801  1.00  0.00     0.246 C 
BRANCH  21  22
HETATM   22  N3  UNL     1      -2.155   6.136  14.894  1.00  0.00    -0.070 N 
ATOM     23  H32 UNL     1      -2.187   5.158  15.182  1.00  0.00     0.277 HD
ATOM     24  H31 UNL     1      -1.734   6.015  13.973  1.00  0.00     0.277 HD
BRANCH  22  25
HETATM   25  C13 UNL     1      -1.310   6.916  15.763  1.00  0.00     0.186 A 
HETATM   26  C14 UNL     1      -0.175   7.678  15.065  1.00  0.00     0.035 A 
HETATM   27  C15 UNL     1      -1.296   8.401  15.675  1.00  0.00     0.035 A 
ENDBRANCH  22  25
ENDBRANCH  21  22
ENDBRANCH  17  21
ENDBRANCH   3   9
TORSDOF 6
ENDMDL
MODEL 5
REMARK VINA RESULT: -6.316817328      4.002      6.932
REMARK  6 active torsions:
REMARK  status: ('A' for Active; 'I' for Inactive)
REMARK    1  A    between atoms: C3_3  and  C4_4 
REMARK    2  A    between atoms: C3_3  and  N1_9 
REMARK    3  A    between atoms: C4_4  and  C5_5 
REMARK       I    between atoms: N1_9  and  C6_11 
REMARK       I    between atoms: C6_11  and  N2_13 
REMARK    4  A    between atoms: C11_19  and  C12_20 
REMARK    5  A    between atoms: C12_20  and  N3_21 
REMARK    6  A    between atoms: N3_21  and  C13_24 
ROOT
HETATM    1  C1  UNL     1      -4.279  -1.830  13.708  1.00  0.00     0.014 C 
HETATM    2  C2  UNL     1      -4.716  -0.991  14.454  1.00  0.00    -0.092 C 
HETATM    3  C3  UNL     1      -5.232   0.041  15.387  1.00  0.00     0.173 C 
ENDROOT
BRANCH   3   4
HETATM    4  C4  UNL     1      -4.839  -0.291  16.800  1.00  0.00     0.155 C 
BRANCH   4   5
HETATM    5  C5  UNL     1      -6.056  -0.650  17.600  1.00  0.00     0.390 C 
HETATM    6  F1  UNL     1      -6.091   0.118  18.741  1.00  0.00    -0.171 F 
HETATM    7  F2  UNL     1      -7.175  -0.399  16.815  1.00  0.00    -0.171 F 
HETATM    8  F3  UNL     1      -6.038  -1.983  17.986  1.00  0.00    -0.171 F 
ENDBRANCH   4   5
ENDBRANCH   3   4
BRANCH   3   9
HETATM    9  N1  UNL     1      -4.720   1.353  14.984  1.00  0.00    -0.328 N 
HETATM   10  C6  UNL     1      -5.544   2.235  14.259  1.00  0.00     0.319 C 
HETATM   11  O1  UNL     1      -6.712   1.895  13.962  1.00  0.00    -0.247 OA
HETATM   12  N2  UNL     1      -5.009   3.513  13.878  1.00  0.00    -0.333 N 
HETATM   13  C7  UNL     1      -5.703   4.540  13.117  1.00  0.00     0.135 C 
HETATM   14  C16 UNL     1      -3.694   4.031  14.166  1.00  0.00     0.141 C 
HETATM   15  C8  UNL     1      -4.928   5.804  13.304  1.00  0.00     0.041 C 
HETATM   16  C9  UNL     1      -5.781   6.841  14.008  1.00  0.00     0.174 C 
HETATM   17  C11 UNL     1      -3.937   5.482  14.410  1.00  0.00     0.028 C 
HETATM   18  O2  UNL     1      -5.944   6.276  15.264  1.00  0.00    -0.390 OA
HETATM   19  C10 UNL     1      -4.727   5.715  15.648  1.00  0.00     0.181 C 
ATOM     20  H1  UNL     1      -3.768   1.627  15.227  1.00  0.00     0.165 HD
BRANCH  17  21
HETATM   21  C12 UNL     1      -2.738   6.358  14.267  1.00  0.00     0.246 C 
BRANCH  21  22
HETATM   22  N3  UNL     1      -2.827   7.579  15.030  1.00  0.00    -0.070 N 
ATOM     23  H32 UNL     1      -3.675   7.605  15.597  1.00  0.00     0.277 HD
ATOM     24  H31 UNL     1      -2.136   7.602  15.779  1.00  0.00     0.277 HD
BRANCH  22  25
HETATM   25  C13 UNL     1      -2.723   8.738  14.179  1.00  0.00     0.186 A 
HETATM   26  C14 UNL     1      -3.632   9.915  14.557  1.00  0.00     0.035 A 
HETATM   27  C15 UNL     1      -2.177  10.017  14.703  1.00  0.00     0.035 A 
ENDBRANCH  22  25
ENDBRANCH  21  22
ENDBRANCH  17  21
ENDBRANCH   3   9
TORSDOF 6
ENDMDL
