MODEL 1
REMARK VINA RESULT: -6.387230538      0.000      0.000
REMARK  5 active torsions:
REMARK  status: ('A' for Active; 'I' for Inactive)
REMARK    1  A    between atoms: C2_2  and  N1_3 
REMARK    2  A    between atoms: N1_3  and  C3_6 
REMARK    3  A    between atoms: C3_6  and  C4_7 
REMARK    4  A    between atoms: C3_6  and  C12_20 
REMARK       I    between atoms: C4_7  and  N2_9 
REMARK       I    between atoms: N2_9  and  C5_11 
REMARK    5  A    between atoms: C5_11  and  C6_13 
ROOT
HETATM    1  C4  UNL     1      -3.735   0.783  12.660  1.00  0.00     0.259 C 
HETATM    2  O1  UNL     1      -2.699   1.447  12.932  1.00  0.00    -0.271 OA
HETATM    3  N2  UNL     1      -4.588   0.494  13.756  1.00  0.00    -0.294 N 
ATOM      4  H2  UNL     1      -5.448  -0.030  13.591  1.00  0.00     0.171 HD
HETATM    5  C5  UNL     1      -4.277   0.916  15.077  1.00  0.00     0.258 C 
HETATM    6  O2  UNL     1      -3.242   1.555  15.283  1.00  0.00    -0.271 OA
ENDROOT
BRANCH   1   7
HETATM    7  C3  UNL     1      -3.971   0.376  11.271  1.00  0.00     0.331 C 
BRANCH   7   8
HETATM    8  N1  UNL     1      -3.193   1.242  10.375  1.00  0.00    -0.058 N 
ATOM      9  H12 UNL     1      -2.900   0.723   9.547  1.00  0.00     0.278 HD
ATOM     10  H11 UNL     1      -2.282   1.449  10.785  1.00  0.00     0.278 HD
BRANCH   8  11
HETATM   11  C2  UNL     1      -3.846   2.443   9.997  1.00  0.00     0.229 C 
HETATM   12  C1  UNL     1      -2.767   3.539  10.000  1.00  0.00     0.034 C 
ENDBRANCH   8  11
ENDBRANCH   7   8
BRANCH   7  13
HETATM   13  C12 UNL     1      -3.436  -1.060  11.099  1.00  0.00     0.225 C 
HETATM   14 CL1  UNL     1      -4.308  -1.833   9.769  1.00  0.00    -0.081 Cl
HETATM   15 CL2  UNL     1      -1.697  -1.036  10.909  1.00  0.00    -0.081 Cl
HETATM   16 CL3  UNL     1      -3.801  -1.998  12.580  1.00  0.00    -0.081 Cl
ENDBRANCH   7  13
ENDBRANCH   1   7
BRANCH   5  17
HETATM   17  C6  UNL     1      -5.197   0.583  16.177  1.00  0.00     0.314 C 
HETATM   18  C7  UNL     1      -6.591   1.185  15.903  1.00  0.00     0.046 C 
HETATM   19  C8  UNL     1      -7.390   1.027  17.149  1.00  0.00     0.004 C 
HETATM   20  C9  UNL     1      -7.423  -0.407  17.640  1.00  0.00     0.030 C 
HETATM   21  C10 UNL     1      -6.027  -0.990  17.713  1.00  0.00     0.273 C 
HETATM   22  N3  UNL     1      -5.413  -0.801  16.414  1.00  0.00     0.098 N 
HETATM   23  C11 UNL     1      -4.271  -1.663  16.230  1.00  0.00     0.310 C 
ENDBRANCH   5  17
TORSDOF 5
ENDMDL
MODEL 2
REMARK VINA RESULT: -6.129250897      4.718      5.174
REMARK  5 active torsions:
REMARK  status: ('A' for Active; 'I' for Inactive)
REMARK    1  A    between atoms: C2_2  and  N1_3 
REMARK    2  A    between atoms: N1_3  and  C3_6 
REMARK    3  A    between atoms: C3_6  and  C4_7 
REMARK    4  A    between atoms: C3_6  and  C12_20 
REMARK       I    between atoms: C4_7  and  N2_9 
REMARK       I    between atoms: N2_9  and  C5_11 
REMARK    5  A    between atoms: C5_11  and  C6_13 
ROOT
HETATM    1  C4  UNL     1      -5.571   4.242  13.747  1.00  0.00     0.259 C 
HETATM    2  O1  UNL     1      -6.563   4.028  13.000  1.00  0.00    -0.271 OA
HETATM    3  N2  UNL     1      -5.312   3.251  14.729  1.00  0.00    -0.294 N 
ATOM      4  H2  UNL     1      -4.513   3.367  15.352  1.00  0.00     0.171 HD
HETATM    5  C5  UNL     1      -6.136   2.101  14.866  1.00  0.00     0.258 C 
HETATM    6  O2  UNL     1      -7.100   1.951  14.112  1.00  0.00    -0.271 OA
ENDROOT
BRANCH   1   7
HETATM    7  C3  UNL     1      -4.784   5.462  13.545  1.00  0.00     0.331 C 
BRANCH   7   8
HETATM    8  N1  UNL     1      -4.608   5.691  12.105  1.00  0.00    -0.058 N 
ATOM      9  H12 UNL     1      -4.756   6.676  11.882  1.00  0.00     0.278 HD
ATOM     10  H11 UNL     1      -5.378   5.275  11.583  1.00  0.00     0.278 HD
BRANCH   8  11
HETATM   11  C2  UNL     1      -3.366   5.250  11.582  1.00  0.00     0.229 C 
HETATM   12  C1  UNL     1      -2.298   5.646  12.615  1.00  0.00     0.034 C 
ENDBRANCH   8  11
ENDBRANCH   7   8
BRANCH   7  13
HETATM   13  C12 UNL     1      -5.596   6.650  14.102  1.00  0.00     0.225 C 
HETATM   14 CL1  UNL     1      -6.561   7.340  12.790  1.00  0.00    -0.081 Cl
HETATM   15 CL2  UNL     1      -6.522   6.144  15.496  1.00  0.00    -0.081 Cl
HETATM   16 CL3  UNL     1      -4.461   7.925  14.645  1.00  0.00    -0.081 Cl
ENDBRANCH   7  13
ENDBRANCH   1   7
BRANCH   5  17
HETATM   17  C6  UNL     1      -5.822   1.108  15.907  1.00  0.00     0.314 C 
HETATM   18  C7  UNL     1      -7.076   0.814  16.755  1.00  0.00     0.046 C 
HETATM   19  C8  UNL     1      -6.635   0.005  17.924  1.00  0.00     0.004 C 
HETATM   20  C9  UNL     1      -5.863  -1.233  17.517  1.00  0.00     0.030 C 
HETATM   21  C10 UNL     1      -4.757  -0.888  16.541  1.00  0.00     0.273 C 
HETATM   22  N3  UNL     1      -5.360  -0.155  15.446  1.00  0.00     0.098 N 
HETATM   23  C11 UNL     1      -4.511  -0.135  14.281  1.00  0.00     0.310 C 
ENDBRANCH   5  17
TORSDOF 5
ENDMDL
MODEL 3
REMARK VINA RESULT: -6.025831957      2.333      2.959
REMARK  5 active torsions:
REMARK  status: ('A' for Active; 'I' for Inactive)
REMARK    1  A    between atoms: C2_2  and  N1_3 
REMARK    2  A    between atoms: N1_3  and  C3_6 
REMARK    3  A    between atoms: C3_6  and  C4_7 
REMARK    4  A    between atoms: C3_6  and  C12_20 
REMARK       I    between atoms: C4_7  and  N2_9 
REMARK       I    between atoms: N2_9  and  C5_11 
REMARK    5  A    between atoms: C5_11  and  C6_13 
ROOT
HETATM    1  C4  UNL     1      -3.553   1.079  12.311  1.00  0.00     0.259 C 
HETATM    2  O1  UNL     1      -4.513   1.420  11.568  1.00  0.00    -0.271 OA
HETATM    3  N2  UNL     1      -3.879   0.838  13.669  1.00  0.00    -0.294 N 
ATOM      4  H2  UNL     1      -3.143   0.547  14.313  1.00  0.00     0.171 HD
HETATM    5  C5  UNL     1      -5.205   0.990  14.158  1.00  0.00     0.258 C 
HETATM    6  O2  UNL     1      -6.102   1.336  13.385  1.00  0.00    -0.271 OA
ENDROOT
BRANCH   1   7
HETATM    7  C3  UNL     1      -2.213   0.961  11.726  1.00  0.00     0.331 C 
BRANCH   7   8
HETATM    8  N1  UNL     1      -2.278   0.099  10.538  1.00  0.00    -0.058 N 
ATOM      9  H12 UNL     1      -1.618   0.421   9.830  1.00  0.00     0.278 HD
ATOM     10  H11 UNL     1      -3.156   0.247  10.041  1.00  0.00     0.278 HD
BRANCH   8  11
HETATM   11  C2  UNL     1      -2.087  -1.282  10.798  1.00  0.00     0.229 C 
HETATM   12  C1  UNL     1      -3.366  -1.992  10.321  1.00  0.00     0.034 C 
ENDBRANCH   8  11
ENDBRANCH   7   8
BRANCH   7  13
HETATM   13  C12 UNL     1      -1.776   2.363  11.251  1.00  0.00     0.225 C 
HETATM   14 CL1  UNL     1      -2.308   2.585   9.579  1.00  0.00    -0.081 Cl
HETATM   15 CL2  UNL     1      -2.351   3.582  12.364  1.00  0.00    -0.081 Cl
HETATM   16 CL3  UNL     1       0.013   2.441  11.247  1.00  0.00    -0.081 Cl
ENDBRANCH   7  13
ENDBRANCH   1   7
BRANCH   5  17
HETATM   17  C6  UNL     1      -5.485   0.730  15.580  1.00  0.00     0.314 C 
HETATM   18  C7  UNL     1      -6.880   1.272  15.954  1.00  0.00     0.046 C 
HETATM   19  C8  UNL     1      -6.994   1.202  17.437  1.00  0.00     0.004 C 
HETATM   20  C9  UNL     1      -6.707  -0.185  17.977  1.00  0.00     0.030 C 
HETATM   21  C10 UNL     1      -5.405  -0.726  17.423  1.00  0.00     0.273 C 
HETATM   22  N3  UNL     1      -5.480  -0.635  15.979  1.00  0.00     0.098 N 
HETATM   23  C11 UNL     1      -4.504  -1.481  15.337  1.00  0.00     0.310 C 
ENDBRANCH   5  17
TORSDOF 5
ENDMDL
MODEL 4
REMARK VINA RESULT: -6.020913161      0.755      1.570
REMARK  5 active torsions:
REMARK  status: ('A' for Active; 'I' for Inactive)
REMARK    1  A    between atoms: C2_2  and  N1_3 
REMARK    2  A    between atoms: N1_3  and  C3_6 
REMARK    3  A    between atoms: C3_6  and  C4_7 
REMARK    4  A    between atoms: C3_6  and  C12_20 
REMARK       I    between atoms: C4_7  and  N2_9 
REMARK       I    between atoms: N2_9  and  C5_11 
REMARK    5  A    between atoms: C5_11  and  C6_13 
ROOT
HETATM    1  C4  UNL     1      -3.815   0.526  12.495  1.00  0.00     0.259 C 
HETATM    2  O1  UNL     1      -2.797   1.156  12.890  1.00  0.00    -0.271 OA
HETATM    3  N2  UNL     1      -4.756   0.183  13.498  1.00  0.00    -0.294 N 
ATOM      4  H2  UNL     1      -5.605  -0.317  13.233  1.00  0.00     0.171 HD
HETATM    5  C5  UNL     1      -4.548   0.517  14.865  1.00  0.00     0.258 C 
HETATM    6  O2  UNL     1      -3.526   1.126  15.192  1.00  0.00    -0.271 OA
ENDROOT
BRANCH   1   7
HETATM    7  C3  UNL     1      -3.941   0.210  11.069  1.00  0.00     0.331 C 
BRANCH   7   8
HETATM    8  N1  UNL     1      -3.201   1.207  10.285  1.00  0.00    -0.058 N 
ATOM      9  H12 UNL     1      -2.856   0.792   9.419  1.00  0.00     0.278 HD
ATOM     10  H11 UNL     1      -2.315   1.428  10.739  1.00  0.00     0.278 HD
BRANCH   8  11
HETATM   11  C2  UNL     1      -3.920   2.397  10.007  1.00  0.00     0.229 C 
HETATM   12  C1  UNL     1      -2.887   3.536  10.003  1.00  0.00     0.034 C 
ENDBRANCH   8  11
ENDBRANCH   7   8
BRANCH   7  13
HETATM   13  C12 UNL     1      -3.270  -1.157  10.822  1.00  0.00     0.225 C 
HETATM   14 CL1  UNL     1      -4.191  -2.024   9.586  1.00  0.00    -0.081 Cl
HETATM   15 CL2  UNL     1      -1.577  -0.937  10.446  1.00  0.00    -0.081 Cl
HETATM   16 CL3  UNL     1      -3.364  -2.128  12.324  1.00  0.00    -0.081 Cl
ENDBRANCH   7  13
ENDBRANCH   1   7
BRANCH   5  17
HETATM   17  C6  UNL     1      -5.557   0.130  15.864  1.00  0.00     0.314 C 
HETATM   18  C7  UNL     1      -4.881  -0.588  17.050  1.00  0.00     0.046 C 
HETATM   19  C8  UNL     1      -5.967  -1.164  17.891  1.00  0.00     0.004 C 
HETATM   20  C9  UNL     1      -6.995  -0.128  18.302  1.00  0.00     0.030 C 
HETATM   21  C10 UNL     1      -7.481   0.661  17.105  1.00  0.00     0.273 C 
HETATM   22  N3  UNL     1      -6.312   1.192  16.433  1.00  0.00     0.098 N 
HETATM   23  C11 UNL     1      -6.649   2.278  15.547  1.00  0.00     0.310 C 
ENDBRANCH   5  17
TORSDOF 5
ENDMDL
MODEL 5
REMARK VINA RESULT: -5.998642400      2.161      3.180
REMARK  5 active torsions:
REMARK  status: ('A' for Active; 'I' for Inactive)
REMARK    1  A    between atoms: C2_2  and  N1_3 
REMARK    2  A    between atoms: N1_3  and  C3_6 
REMARK    3  A    between atoms: C3_6  and  C4_7 
REMARK    4  A    between atoms: C3_6  and  C12_20 
REMARK       I    between atoms: C4_7  and  N2_9 
REMARK       I    between atoms: N2_9  and  C5_11 
REMARK    5  A    between atoms: C5_11  and  C6_13 
ROOT
HETATM    1  C4  UNL     1      -2.983   1.406  12.775  1.00  0.00     0.259 C 
HETATM    2  O1  UNL     1      -2.066   1.952  13.447  1.00  0.00    -0.271 OA
HETATM    3  N2  UNL     1      -4.047   0.843  13.525  1.00  0.00    -0.294 N 
ATOM      4  H2  UNL     1      -4.821   0.399  13.032  1.00  0.00     0.171 HD
HETATM    5  C5  UNL     1      -4.061   0.881  14.946  1.00  0.00     0.258 C 
HETATM    6  O2  UNL     1      -3.130   1.421  15.549  1.00  0.00    -0.271 OA
ENDROOT
BRANCH   1   7
HETATM    7  C3  UNL     1      -2.880   1.400  11.313  1.00  0.00     0.331 C 
BRANCH   7   8
HETATM    8  N1  UNL     1      -3.935   0.542  10.757  1.00  0.00    -0.058 N 
ATOM      9  H12 UNL     1      -4.233   0.893   9.846  1.00  0.00     0.278 HD
ATOM     10  H11 UNL     1      -4.801   0.660  11.283  1.00  0.00     0.278 HD
BRANCH   8  11
HETATM   11  C2  UNL     1      -3.597  -0.832  10.668  1.00  0.00     0.229 C 
HETATM   12  C1  UNL     1      -4.881  -1.614  10.989  1.00  0.00     0.034 C 
ENDBRANCH   8  11
ENDBRANCH   7   8
BRANCH   7  13
HETATM   13  C12 UNL     1      -3.143   2.834  10.810  1.00  0.00     0.225 C 
HETATM   14 CL1  UNL     1      -4.435   3.547  11.784  1.00  0.00    -0.081 Cl
HETATM   15 CL2  UNL     1      -1.654   3.750  10.798  1.00  0.00    -0.081 Cl
HETATM   16 CL3  UNL     1      -3.739   2.758   9.123  1.00  0.00    -0.081 Cl
ENDBRANCH   7  13
ENDBRANCH   1   7
BRANCH   5  17
HETATM   17  C6  UNL     1      -5.189   0.276  15.673  1.00  0.00     0.314 C 
HETATM   18  C7  UNL     1      -4.674  -0.492  16.908  1.00  0.00     0.046 C 
HETATM   19  C8  UNL     1      -5.820  -1.274  17.448  1.00  0.00     0.004 C 
HETATM   20  C9  UNL     1      -7.036  -0.411  17.721  1.00  0.00     0.030 C 
HETATM   21  C10 UNL     1      -7.374   0.448  16.521  1.00  0.00     0.273 C 
HETATM   22  N3  UNL     1      -6.175   1.177  16.160  1.00  0.00     0.098 N 
HETATM   23  C11 UNL     1      -6.469   2.312  15.320  1.00  0.00     0.310 C 
ENDBRANCH   5  17
TORSDOF 5
ENDMDL
