MODEL 1
REMARK VINA RESULT: -7.148340085      0.000      0.000
REMARK  5 active torsions:
REMARK  status: ('A' for Active; 'I' for Inactive)
REMARK    1  A    between atoms: N1_5  and  C5_6 
REMARK    2  A    between atoms: C14_18  and  C15_19 
REMARK    3  A    between atoms: C15_19  and  N3_20 
REMARK    4  A    between atoms: N3_20  and  C16_22 
REMARK    5  A    between atoms: C16_22  and  C17_23 
ROOT
HETATM    1  C1  UNL     1      -1.993   2.748  14.383  1.00  0.00     0.017 C 
HETATM    2  C2  UNL     1      -1.964   3.367  13.004  1.00  0.00    -0.022 C 
HETATM    3  C3  UNL     1      -0.758   4.282  12.850  1.00  0.00     0.017 C 
HETATM    4  C4  UNL     1      -1.827   2.243  12.003  1.00  0.00     0.132 C 
HETATM    5  N1  UNL     1      -3.125   2.059  11.469  1.00  0.00    -0.385 N 
HETATM    6  C13 UNL     1      -4.041   3.008  11.903  1.00  0.00     0.066 C 
HETATM    7  C14 UNL     1      -3.212   4.072  12.609  1.00  0.00     0.050 C 
ENDROOT
BRANCH   5   8
HETATM    8  C5  UNL     1      -3.508   0.706  11.313  1.00  0.00     0.111 C 
HETATM    9  C6  UNL     1      -4.825   0.346  12.034  1.00  0.00     0.107 C 
HETATM   10  C7  UNL     1      -4.521  -0.522  13.263  1.00  0.00     0.028 C 
HETATM   11  N2  UNL     1      -5.448  -0.587  11.110  1.00  0.00    -0.354 N 
HETATM   12  C8  UNL     1      -3.949  -1.882  12.836  1.00  0.00     0.022 C 
HETATM   13  C9  UNL     1      -3.334  -1.675  11.525  1.00  0.00     0.047 A 
HETATM   14  C10 UNL     1      -2.026  -1.480  11.039  1.00  0.00     0.027 A 
HETATM   15  C11 UNL     1      -2.552  -0.324  11.721  1.00  0.00     0.029 A 
HETATM   16  C12 UNL     1      -4.486  -1.475  10.563  1.00  0.00     0.227 C 
HETATM   17  O1  UNL     1      -4.537  -2.032   9.453  1.00  0.00    -0.273 OA
ATOM     18  H2  UNL     1      -6.443  -0.601  10.885  1.00  0.00     0.163 HD
ENDBRANCH   5   8
BRANCH   7  19
HETATM   19  C15 UNL     1      -3.979   4.589  13.824  1.00  0.00     0.124 C 
BRANCH  19  20
HETATM   20  N3  UNL     1      -5.373   4.266  13.724  1.00  0.00    -0.413 N 
ATOM     21  H3  UNL     1      -5.860   4.316  12.830  1.00  0.00     0.153 HD
BRANCH  20  22
HETATM   22  C16 UNL     1      -6.049   3.878  14.903  1.00  0.00     0.231 C 
BRANCH  22  23
HETATM   23  C17 UNL     1      -6.158   2.410  15.163  1.00  0.00     0.402 C 
HETATM   24  F1  UNL     1      -6.890   1.828  14.133  1.00  0.00    -0.169 F 
HETATM   25  F2  UNL     1      -6.946   2.166  16.307  1.00  0.00    -0.169 F 
HETATM   26  F3  UNL     1      -4.970   1.774  15.411  1.00  0.00    -0.169 F 
ENDBRANCH  22  23
ENDBRANCH  20  22
ENDBRANCH  19  20
ENDBRANCH   7  19
TORSDOF 5
ENDMDL
MODEL 2
REMARK VINA RESULT: -6.799553136      1.892      2.072
REMARK  5 active torsions:
REMARK  status: ('A' for Active; 'I' for Inactive)
REMARK    1  A    between atoms: N1_5  and  C5_6 
REMARK    2  A    between atoms: C14_18  and  C15_19 
REMARK    3  A    between atoms: C15_19  and  N3_20 
REMARK    4  A    between atoms: N3_20  and  C16_22 
REMARK    5  A    between atoms: C16_22  and  C17_23 
ROOT
HETATM    1  C1  UNL     1      -4.039   2.882  14.676  1.00  0.00     0.017 C 
HETATM    2  C2  UNL     1      -3.080   3.324  13.594  1.00  0.00    -0.022 C 
HETATM    3  C3  UNL     1      -1.949   4.154  14.185  1.00  0.00     0.017 C 
HETATM    4  C4  UNL     1      -2.476   2.081  12.984  1.00  0.00     0.132 C 
HETATM    5  N1  UNL     1      -3.161   1.896  11.760  1.00  0.00    -0.385 N 
HETATM    6  C13 UNL     1      -4.029   2.935  11.450  1.00  0.00     0.066 C 
HETATM    7  C14 UNL     1      -3.712   4.035  12.452  1.00  0.00     0.050 C 
ENDROOT
BRANCH   5   8
HETATM    8  C5  UNL     1      -3.515   0.554  11.483  1.00  0.00     0.111 C 
HETATM    9  C6  UNL     1      -4.829   0.106  12.158  1.00  0.00     0.107 C 
HETATM   10  C7  UNL     1      -4.516  -0.860  13.310  1.00  0.00     0.028 C 
HETATM   11  N2  UNL     1      -5.427  -0.755  11.151  1.00  0.00    -0.354 N 
HETATM   12  C8  UNL     1      -3.912  -2.166  12.770  1.00  0.00     0.022 C 
HETATM   13  C9  UNL     1      -3.293  -1.833  11.488  1.00  0.00     0.047 A 
HETATM   14  C10 UNL     1      -1.986  -1.570  11.032  1.00  0.00     0.027 A 
HETATM   15  C11 UNL     1      -2.540  -0.488  11.807  1.00  0.00     0.029 A 
HETATM   16  C12 UNL     1      -4.442  -1.572  10.537  1.00  0.00     0.227 C 
HETATM   17  O1  UNL     1      -4.474  -2.030   9.382  1.00  0.00    -0.273 OA
ATOM     18  H2  UNL     1      -6.419  -0.769  10.918  1.00  0.00     0.163 HD
ENDBRANCH   5   8
BRANCH   7  19
HETATM   19  C15 UNL     1      -5.005   4.734  12.865  1.00  0.00     0.124 C 
BRANCH  19  20
HETATM   20  N3  UNL     1      -4.765   6.115  13.170  1.00  0.00    -0.413 N 
ATOM     21  H3  UNL     1      -4.006   6.628  12.721  1.00  0.00     0.153 HD
BRANCH  20  22
HETATM   22  C16 UNL     1      -5.613   6.743  14.110  1.00  0.00     0.231 C 
BRANCH  22  23
HETATM   23  C17 UNL     1      -5.493   6.291  15.530  1.00  0.00     0.402 C 
HETATM   24  F1  UNL     1      -6.416   5.275  15.753  1.00  0.00    -0.169 F 
HETATM   25  F2  UNL     1      -5.905   7.312  16.411  1.00  0.00    -0.169 F 
HETATM   26  F3  UNL     1      -4.224   5.969  15.932  1.00  0.00    -0.169 F 
ENDBRANCH  22  23
ENDBRANCH  20  22
ENDBRANCH  19  20
ENDBRANCH   7  19
TORSDOF 5
ENDMDL
MODEL 3
REMARK VINA RESULT: -6.785664598      2.047      2.593
REMARK  5 active torsions:
REMARK  status: ('A' for Active; 'I' for Inactive)
REMARK    1  A    between atoms: N1_5  and  C5_6 
REMARK    2  A    between atoms: C14_18  and  C15_19 
REMARK    3  A    between atoms: C15_19  and  N3_20 
REMARK    4  A    between atoms: N3_20  and  C16_22 
REMARK    5  A    between atoms: C16_22  and  C17_23 
ROOT
HETATM    1  C1  UNL     1      -3.007   2.046  14.903  1.00  0.00     0.017 C 
HETATM    2  C2  UNL     1      -3.841   2.715  13.834  1.00  0.00    -0.022 C 
HETATM    3  C3  UNL     1      -3.530   4.203  13.761  1.00  0.00     0.017 C 
HETATM    4  C4  UNL     1      -3.467   2.095  12.508  1.00  0.00     0.132 C 
HETATM    5  N1  UNL     1      -4.513   1.190  12.212  1.00  0.00    -0.385 N 
HETATM    6  C13 UNL     1      -5.569   1.251  13.111  1.00  0.00     0.066 C 
HETATM    7  C14 UNL     1      -5.306   2.490  13.955  1.00  0.00     0.050 C 
ENDROOT
BRANCH   5   8
HETATM    8  C5  UNL     1      -4.082  -0.053  11.690  1.00  0.00     0.111 C 
HETATM    9  C6  UNL     1      -4.944  -1.251  12.145  1.00  0.00     0.107 C 
HETATM   10  C7  UNL     1      -4.159  -2.100  13.154  1.00  0.00     0.028 C 
HETATM   11  N2  UNL     1      -4.978  -2.088  10.957  1.00  0.00    -0.354 N 
HETATM   12  C8  UNL     1      -2.943  -2.753  12.480  1.00  0.00     0.022 C 
HETATM   13  C9  UNL     1      -2.601  -1.905  11.339  1.00  0.00     0.047 A 
HETATM   14  C10 UNL     1      -1.646  -0.906  11.069  1.00  0.00     0.027 A 
HETATM   15  C11 UNL     1      -2.699  -0.456  11.945  1.00  0.00     0.029 A 
HETATM   16  C12 UNL     1      -3.707  -2.121  10.326  1.00  0.00     0.227 C 
HETATM   17  O1  UNL     1      -3.483  -2.297   9.116  1.00  0.00    -0.273 OA
ATOM     18  H2  UNL     1      -5.803  -2.583  10.622  1.00  0.00     0.163 HD
ENDBRANCH   5   8
BRANCH   7  19
HETATM   19  C15 UNL     1      -5.721   2.219  15.399  1.00  0.00     0.124 C 
BRANCH  19  20
HETATM   20  N3  UNL     1      -6.298   0.913  15.528  1.00  0.00    -0.413 N 
ATOM     21  H3  UNL     1      -7.117   0.644  14.983  1.00  0.00     0.153 HD
BRANCH  20  22
HETATM   22  C16 UNL     1      -5.697   0.010  16.434  1.00  0.00     0.231 C 
BRANCH  22  23
HETATM   23  C17 UNL     1      -6.555  -0.491  17.552  1.00  0.00     0.402 C 
HETATM   24  F1  UNL     1      -6.168  -1.790  17.863  1.00  0.00    -0.169 F 
HETATM   25  F2  UNL     1      -7.890  -0.637  17.125  1.00  0.00    -0.169 F 
HETATM   26  F3  UNL     1      -6.622   0.332  18.646  1.00  0.00    -0.169 F 
ENDBRANCH  22  23
ENDBRANCH  20  22
ENDBRANCH  19  20
ENDBRANCH   7  19
TORSDOF 5
ENDMDL
MODEL 4
REMARK VINA RESULT: -6.750414418      2.527      4.149
REMARK  5 active torsions:
REMARK  status: ('A' for Active; 'I' for Inactive)
REMARK    1  A    between atoms: N1_5  and  C5_6 
REMARK    2  A    between atoms: C14_18  and  C15_19 
REMARK    3  A    between atoms: C15_19  and  N3_20 
REMARK    4  A    between atoms: N3_20  and  C16_22 
REMARK    5  A    between atoms: C16_22  and  C17_23 
ROOT
HETATM    1  C1  UNL     1      -4.599   3.948  14.993  1.00  0.00     0.017 C 
HETATM    2  C2  UNL     1      -5.580   3.493  13.937  1.00  0.00    -0.022 C 
HETATM    3  C3  UNL     1      -6.754   4.458  13.843  1.00  0.00     0.017 C 
HETATM    4  C4  UNL     1      -4.860   3.506  12.609  1.00  0.00     0.132 C 
HETATM    5  N1  UNL     1      -4.544   2.152  12.344  1.00  0.00    -0.385 N 
HETATM    6  C13 UNL     1      -5.087   1.267  13.266  1.00  0.00     0.066 C 
HETATM    7  C14 UNL     1      -6.061   2.095  14.092  1.00  0.00     0.050 C 
ENDROOT
BRANCH   5   8
HETATM    8  C5  UNL     1      -3.244   1.945  11.825  1.00  0.00     0.111 C 
HETATM    9  C6  UNL     1      -2.151   1.837  12.910  1.00  0.00     0.107 C 
HETATM   10  C7  UNL     1      -1.286   3.105  12.901  1.00  0.00     0.028 C 
HETATM   11  N2  UNL     1      -1.264   0.821  12.368  1.00  0.00    -0.354 N 
HETATM   12  C8  UNL     1      -0.495   3.210  11.588  1.00  0.00     0.022 C 
HETATM   13  C9  UNL     1      -1.253   2.454  10.591  1.00  0.00     0.047 A 
HETATM   14  C10 UNL     1      -2.149   2.766   9.549  1.00  0.00     0.027 A 
HETATM   15  C11 UNL     1      -2.733   2.918  10.859  1.00  0.00     0.029 A 
HETATM   16  C12 UNL     1      -1.087   0.998  10.971  1.00  0.00     0.227 C 
HETATM   17  O1  UNL     1      -0.834   0.112  10.137  1.00  0.00    -0.273 OA
ATOM     18  H2  UNL     1      -0.828   0.082  12.918  1.00  0.00     0.163 HD
ENDBRANCH   5   8
BRANCH   7  19
HETATM   19  C15 UNL     1      -6.011   1.636  15.547  1.00  0.00     0.124 C 
BRANCH  19  20
HETATM   20  N3  UNL     1      -5.701   0.239  15.632  1.00  0.00    -0.413 N 
ATOM     21  H3  UNL     1      -5.813  -0.374  14.824  1.00  0.00     0.153 HD
BRANCH  20  22
HETATM   22  C16 UNL     1      -5.236  -0.263  16.868  1.00  0.00     0.231 C 
BRANCH  22  23
HETATM   23  C17 UNL     1      -6.277  -0.689  17.855  1.00  0.00     0.402 C 
HETATM   24  F1  UNL     1      -6.076  -2.030  18.163  1.00  0.00    -0.169 F 
HETATM   25  F2  UNL     1      -7.556  -0.674  17.262  1.00  0.00    -0.169 F 
HETATM   26  F3  UNL     1      -6.391   0.112  18.960  1.00  0.00    -0.169 F 
ENDBRANCH  22  23
ENDBRANCH  20  22
ENDBRANCH  19  20
ENDBRANCH   7  19
TORSDOF 5
ENDMDL
MODEL 5
REMARK VINA RESULT: -6.726112127      1.569      1.758
REMARK  5 active torsions:
REMARK  status: ('A' for Active; 'I' for Inactive)
REMARK    1  A    between atoms: N1_5  and  C5_6 
REMARK    2  A    between atoms: C14_18  and  C15_19 
REMARK    3  A    between atoms: C15_19  and  N3_20 
REMARK    4  A    between atoms: N3_20  and  C16_22 
REMARK    5  A    between atoms: C16_22  and  C17_23 
ROOT
HETATM    1  C1  UNL     1      -2.058   2.783  14.446  1.00  0.00     0.017 C 
HETATM    2  C2  UNL     1      -1.959   3.382  13.061  1.00  0.00    -0.022 C 
HETATM    3  C3  UNL     1      -0.726   4.268  12.945  1.00  0.00     0.017 C 
HETATM    4  C4  UNL     1      -1.809   2.243  12.081  1.00  0.00     0.132 C 
HETATM    5  N1  UNL     1      -3.088   2.082  11.497  1.00  0.00    -0.385 N 
HETATM    6  C13 UNL     1      -3.998   3.057  11.882  1.00  0.00     0.066 C 
HETATM    7  C14 UNL     1      -3.173   4.111  12.608  1.00  0.00     0.050 C 
ENDROOT
BRANCH   5   8
HETATM    8  C5  UNL     1      -3.496   0.736  11.343  1.00  0.00     0.111 C 
HETATM    9  C6  UNL     1      -4.815   0.399  12.072  1.00  0.00     0.107 C 
HETATM   10  C7  UNL     1      -4.519  -0.475  13.298  1.00  0.00     0.028 C 
HETATM   11  N2  UNL     1      -5.461  -0.521  11.151  1.00  0.00    -0.354 N 
HETATM   12  C8  UNL     1      -3.974  -1.845  12.866  1.00  0.00     0.022 C 
HETATM   13  C9  UNL     1      -3.364  -1.648  11.551  1.00  0.00     0.047 A 
HETATM   14  C10 UNL     1      -2.056  -1.476  11.057  1.00  0.00     0.027 A 
HETATM   15  C11 UNL     1      -2.556  -0.311  11.743  1.00  0.00     0.029 A 
HETATM   16  C12 UNL     1      -4.518  -1.426  10.596  1.00  0.00     0.227 C 
HETATM   17  O1  UNL     1      -4.586  -1.981   9.486  1.00  0.00    -0.273 OA
ATOM     18  H2  UNL     1      -6.457  -0.517  10.933  1.00  0.00     0.163 HD
ENDBRANCH   5   8
BRANCH   7  19
HETATM   19  C15 UNL     1      -3.976   4.661  13.785  1.00  0.00     0.124 C 
BRANCH  19  20
HETATM   20  N3  UNL     1      -5.384   4.567  13.532  1.00  0.00    -0.413 N 
ATOM     21  H3  UNL     1      -5.787   3.729  13.113  1.00  0.00     0.153 HD
BRANCH  20  22
HETATM   22  C16 UNL     1      -6.196   5.669  13.882  1.00  0.00     0.231 C 
BRANCH  22  23
HETATM   23  C17 UNL     1      -6.396   5.919  15.343  1.00  0.00     0.402 C 
HETATM   24  F1  UNL     1      -6.481   4.695  15.997  1.00  0.00    -0.169 F 
HETATM   25  F2  UNL     1      -7.656   6.508  15.577  1.00  0.00    -0.169 F 
HETATM   26  F3  UNL     1      -5.494   6.778  15.914  1.00  0.00    -0.169 F 
ENDBRANCH  22  23
ENDBRANCH  20  22
ENDBRANCH  19  20
ENDBRANCH   7  19
TORSDOF 5
ENDMDL
