MODEL 1
REMARK VINA RESULT: -7.215675108      0.000      0.000
REMARK  4 active torsions:
REMARK  status: ('A' for Active; 'I' for Inactive)
REMARK    1  A    between atoms: C2_2  and  O1_3 
REMARK    2  A    between atoms: O1_3  and  C3_4 
REMARK    3  A    between atoms: C7_8  and  N1_9 
REMARK       I    between atoms: N1_9  and  C8_11 
REMARK       I    between atoms: C8_11  and  N2_13 
REMARK    4  A    between atoms: N2_13  and  C9_15 
REMARK       I    between atoms: N3_18  and  C12_19 
ROOT
HETATM    1  N1  UNL     1      -4.272  -0.851  13.531  1.00  0.00    -0.336 N 
ATOM      2  H1  UNL     1      -3.918  -1.306  14.373  1.00  0.00     0.164 HD
HETATM    3  C8  UNL     1      -4.729   0.487  13.618  1.00  0.00     0.316 C 
HETATM    4  O2  UNL     1      -5.155   1.000  12.543  1.00  0.00    -0.247 OA
HETATM    5  N2  UNL     1      -4.699   1.184  14.846  1.00  0.00    -0.338 N 
ATOM      6  H2  UNL     1      -4.336   0.683  15.656  1.00  0.00     0.164 HD
ENDROOT
BRANCH   5   7
HETATM    7  C9  UNL     1      -5.131   2.530  15.051  1.00  0.00     0.095 C 
HETATM    8  C10 UNL     1      -6.455   2.888  14.511  1.00  0.00     0.045 C 
HETATM    9  C11 UNL     1      -6.366   4.156  13.672  1.00  0.00     0.134 C 
HETATM   10  N3  UNL     1      -5.728   5.156  14.511  1.00  0.00    -0.290 N 
HETATM   11  C12 UNL     1      -6.404   6.298  14.984  1.00  0.00     0.220 C 
HETATM   12  C14 UNL     1      -4.330   4.894  14.834  1.00  0.00     0.328 C 
HETATM   13  C13 UNL     1      -7.826   6.583  14.667  1.00  0.00     0.117 C 
HETATM   14  O3  UNL     1      -5.786   7.121  15.705  1.00  0.00    -0.274 OA
HETATM   15  F1  UNL     1      -3.533   5.645  13.985  1.00  0.00    -0.182 F 
HETATM   16  F2  UNL     1      -4.076   5.221  16.130  1.00  0.00    -0.182 F 
HETATM   17  C15 UNL     1      -4.001   3.440  14.557  1.00  0.00     0.129 C 
ENDBRANCH   5   7
BRANCH   1  18
HETATM   18  C7  UNL     1      -4.288  -1.583  12.308  1.00  0.00     0.115 C 
HETATM   19  C3  UNL     1      -3.340  -1.076  11.246  1.00  0.00     0.144 C 
HETATM   20  C4  UNL     1      -3.460  -2.229  10.227  1.00  0.00     0.034 C 
HETATM   21  C5  UNL     1      -3.278  -3.429  11.123  1.00  0.00     0.005 C 
HETATM   22  C6  UNL     1      -3.747  -3.007  12.497  1.00  0.00     0.028 C 
BRANCH  19  23
HETATM   23  O1  UNL     1      -2.073  -1.027  11.753  1.00  0.00    -0.384 OA
BRANCH  23  24
HETATM   24  C2  UNL     1      -1.269  -0.020  11.291  1.00  0.00     0.163 C 
HETATM   25  C1  UNL     1      -1.317   1.255  12.094  1.00  0.00     0.033 C 
ENDBRANCH  23  24
ENDBRANCH  19  23
ENDBRANCH   1  18
TORSDOF 4
ENDMDL
MODEL 2
REMARK VINA RESULT: -6.971208607      2.008      2.444
REMARK  4 active torsions:
REMARK  status: ('A' for Active; 'I' for Inactive)
REMARK    1  A    between atoms: C2_2  and  O1_3 
REMARK    2  A    between atoms: O1_3  and  C3_4 
REMARK    3  A    between atoms: C7_8  and  N1_9 
REMARK       I    between atoms: N1_9  and  C8_11 
REMARK       I    between atoms: C8_11  and  N2_13 
REMARK    4  A    between atoms: N2_13  and  C9_15 
REMARK       I    between atoms: N3_18  and  C12_19 
ROOT
HETATM    1  N1  UNL     1      -4.542   0.071  12.926  1.00  0.00    -0.336 N 
ATOM      2  H1  UNL     1      -4.425  -0.111  13.923  1.00  0.00     0.164 HD
HETATM    3  C8  UNL     1      -4.816   1.395  12.501  1.00  0.00     0.316 C 
HETATM    4  O2  UNL     1      -4.950   1.562  11.255  1.00  0.00    -0.247 OA
HETATM    5  N2  UNL     1      -4.925   2.447  13.437  1.00  0.00    -0.338 N 
ATOM      6  H2  UNL     1      -4.800   2.210  14.421  1.00  0.00     0.164 HD
ENDROOT
BRANCH   5   7
HETATM    7  C9  UNL     1      -5.196   3.815  13.124  1.00  0.00     0.095 C 
HETATM    8  C10 UNL     1      -4.060   4.750  13.213  1.00  0.00     0.045 C 
HETATM    9  C11 UNL     1      -4.430   5.963  14.056  1.00  0.00     0.134 C 
HETATM   10  N3  UNL     1      -5.654   6.499  13.484  1.00  0.00    -0.290 N 
HETATM   11  C12 UNL     1      -5.710   7.749  12.837  1.00  0.00     0.220 C 
HETATM   12  C14 UNL     1      -6.829   5.647  13.626  1.00  0.00     0.328 C 
HETATM   13  C13 UNL     1      -4.525   8.630  12.682  1.00  0.00     0.117 C 
HETATM   14  O3  UNL     1      -6.805   8.148  12.367  1.00  0.00    -0.274 OA
HETATM   15  F1  UNL     1      -7.578   6.104  14.699  1.00  0.00    -0.182 F 
HETATM   16  F2  UNL     1      -7.573   5.676  12.487  1.00  0.00    -0.182 F 
HETATM   17  C15 UNL     1      -6.403   4.233  13.972  1.00  0.00     0.129 C 
ENDBRANCH   5   7
BRANCH   1  18
HETATM   18  C7  UNL     1      -4.425  -1.014  12.010  1.00  0.00     0.115 C 
HETATM   19  C3  UNL     1      -3.195  -0.979  11.132  1.00  0.00     0.144 C 
HETATM   20  C4  UNL     1      -3.296  -2.383  10.498  1.00  0.00     0.034 C 
HETATM   21  C5  UNL     1      -3.529  -3.238  11.720  1.00  0.00     0.005 C 
HETATM   22  C6  UNL     1      -4.200  -2.346  12.739  1.00  0.00     0.028 C 
BRANCH  19  23
HETATM   23  O1  UNL     1      -2.079  -0.897  11.914  1.00  0.00    -0.384 OA
BRANCH  23  24
HETATM   24  C2  UNL     1      -1.205   0.117  11.627  1.00  0.00     0.163 C 
HETATM   25  C1  UNL     1      -1.563   0.945  10.420  1.00  0.00     0.033 C 
ENDBRANCH  23  24
ENDBRANCH  19  23
ENDBRANCH   1  18
TORSDOF 4
ENDMDL
MODEL 3
REMARK VINA RESULT: -6.817742317      2.129      2.852
REMARK  4 active torsions:
REMARK  status: ('A' for Active; 'I' for Inactive)
REMARK    1  A    between atoms: C2_2  and  O1_3 
REMARK    2  A    between atoms: O1_3  and  C3_4 
REMARK    3  A    between atoms: C7_8  and  N1_9 
REMARK       I    between atoms: N1_9  and  C8_11 
REMARK       I    between atoms: C8_11  and  N2_13 
REMARK    4  A    between atoms: N2_13  and  C9_15 
REMARK       I    between atoms: N3_18  and  C12_19 
ROOT
HETATM    1  N1  UNL     1      -3.864   0.833  13.767  1.00  0.00    -0.336 N 
ATOM      2  H1  UNL     1      -3.442   0.511  14.639  1.00  0.00     0.164 HD
HETATM    3  C8  UNL     1      -3.939   2.226  13.519  1.00  0.00     0.316 C 
HETATM    4  O2  UNL     1      -4.470   2.567  12.423  1.00  0.00    -0.247 OA
HETATM    5  N2  UNL     1      -3.440   3.157  14.457  1.00  0.00    -0.338 N 
ATOM      6  H2  UNL     1      -3.029   2.781  15.311  1.00  0.00     0.164 HD
ENDROOT
BRANCH   5   7
HETATM    7  C9  UNL     1      -3.461   4.578  14.313  1.00  0.00     0.095 C 
HETATM    8  C10 UNL     1      -2.191   5.285  14.556  1.00  0.00     0.045 C 
HETATM    9  C11 UNL     1      -2.398   6.434  15.534  1.00  0.00     0.134 C 
HETATM   10  N3  UNL     1      -3.481   7.238  14.996  1.00  0.00    -0.290 N 
HETATM   11  C12 UNL     1      -3.292   8.547  14.512  1.00  0.00     0.220 C 
HETATM   12  C14 UNL     1      -4.789   6.591  14.991  1.00  0.00     0.328 C 
HETATM   13  C13 UNL     1      -1.970   9.223  14.509  1.00  0.00     0.117 C 
HETATM   14  O3  UNL     1      -4.278   9.183  14.061  1.00  0.00    -0.274 OA
HETATM   15  F1  UNL     1      -5.507   7.039  16.088  1.00  0.00    -0.182 F 
HETATM   16  F2  UNL     1      -5.455   6.884  13.841  1.00  0.00    -0.182 F 
HETATM   17  C15 UNL     1      -4.624   5.094  15.167  1.00  0.00     0.129 C 
ENDBRANCH   5   7
BRANCH   1  18
HETATM   18  C7  UNL     1      -4.357  -0.133  12.842  1.00  0.00     0.115 C 
HETATM   19  C3  UNL     1      -3.502  -0.334  11.612  1.00  0.00     0.144 C 
HETATM   20  C4  UNL     1      -4.199  -1.578  11.020  1.00  0.00     0.034 C 
HETATM   21  C5  UNL     1      -4.284  -2.469  12.234  1.00  0.00     0.005 C 
HETATM   22  C6  UNL     1      -4.318  -1.549  13.433  1.00  0.00     0.028 C 
BRANCH  19  23
HETATM   23  O1  UNL     1      -2.227  -0.644  11.988  1.00  0.00    -0.384 OA
BRANCH  23  24
HETATM   24  C2  UNL     1      -1.224   0.088  11.412  1.00  0.00     0.163 C 
HETATM   25  C1  UNL     1      -1.687   1.213  10.522  1.00  0.00     0.033 C 
ENDBRANCH  23  24
ENDBRANCH  19  23
ENDBRANCH   1  18
TORSDOF 4
ENDMDL
MODEL 4
REMARK VINA RESULT: -6.620400601      3.586      7.946
REMARK  4 active torsions:
REMARK  status: ('A' for Active; 'I' for Inactive)
REMARK    1  A    between atoms: C2_2  and  O1_3 
REMARK    2  A    between atoms: O1_3  and  C3_4 
REMARK    3  A    between atoms: C7_8  and  N1_9 
REMARK       I    between atoms: N1_9  and  C8_11 
REMARK       I    between atoms: C8_11  and  N2_13 
REMARK    4  A    between atoms: N2_13  and  C9_15 
REMARK       I    between atoms: N3_18  and  C12_19 
ROOT
HETATM    1  N1  UNL     1      -2.947   6.161  14.590  1.00  0.00    -0.336 N 
ATOM      2  H1  UNL     1      -3.868   6.588  14.696  1.00  0.00     0.164 HD
HETATM    3  C8  UNL     1      -2.851   4.749  14.529  1.00  0.00     0.316 C 
HETATM    4  O2  UNL     1      -1.686   4.276  14.396  1.00  0.00    -0.247 OA
HETATM    5  N2  UNL     1      -4.006   3.940  14.613  1.00  0.00    -0.338 N 
ATOM      6  H2  UNL     1      -4.901   4.418  14.719  1.00  0.00     0.164 HD
ENDROOT
BRANCH   5   7
HETATM    7  C9  UNL     1      -4.030   2.513  14.562  1.00  0.00     0.095 C 
HETATM    8  C10 UNL     1      -3.898   1.898  13.229  1.00  0.00     0.045 C 
HETATM    9  C11 UNL     1      -5.004   0.876  12.999  1.00  0.00     0.134 C 
HETATM   10  N3  UNL     1      -4.958  -0.035  14.129  1.00  0.00    -0.290 N 
HETATM   11  C12 UNL     1      -4.581  -1.387  14.004  1.00  0.00     0.220 C 
HETATM   12  C14 UNL     1      -5.332   0.549  15.413  1.00  0.00     0.328 C 
HETATM   13  C13 UNL     1      -4.197  -2.001  12.708  1.00  0.00     0.117 C 
HETATM   14  O3  UNL     1      -4.565  -2.117  15.028  1.00  0.00    -0.274 OA
HETATM   15  F1  UNL     1      -6.649   0.216  15.681  1.00  0.00    -0.182 F 
HETATM   16  F2  UNL     1      -4.518   0.083  16.398  1.00  0.00    -0.182 F 
HETATM   17  C15 UNL     1      -5.281   2.062  15.324  1.00  0.00     0.129 C 
ENDBRANCH   5   7
BRANCH   1  18
HETATM   18  C7  UNL     1      -1.802   7.006  14.508  1.00  0.00     0.115 C 
HETATM   19  C3  UNL     1      -2.087   8.427  14.080  1.00  0.00     0.144 C 
HETATM   20  C4  UNL     1      -0.703   9.056  14.352  1.00  0.00     0.034 C 
HETATM   21  C5  UNL     1      -0.426   8.555  15.748  1.00  0.00     0.005 C 
HETATM   22  C6  UNL     1      -1.188   7.258  15.892  1.00  0.00     0.028 C 
BRANCH  19  23
HETATM   23  O1  UNL     1      -3.022   8.975  14.909  1.00  0.00    -0.384 OA
BRANCH  23  24
HETATM   24  C2  UNL     1      -3.449  10.238  14.600  1.00  0.00     0.163 C 
HETATM   25  C1  UNL     1      -4.178  10.361  13.285  1.00  0.00     0.033 C 
ENDBRANCH  23  24
ENDBRANCH  19  23
ENDBRANCH   1  18
TORSDOF 4
ENDMDL
MODEL 5
REMARK VINA RESULT: -6.302299585      3.485      4.809
REMARK  4 active torsions:
REMARK  status: ('A' for Active; 'I' for Inactive)
REMARK    1  A    between atoms: C2_2  and  O1_3 
REMARK    2  A    between atoms: O1_3  and  C3_4 
REMARK    3  A    between atoms: C7_8  and  N1_9 
REMARK       I    between atoms: N1_9  and  C8_11 
REMARK       I    between atoms: C8_11  and  N2_13 
REMARK    4  A    between atoms: N2_13  and  C9_15 
REMARK       I    between atoms: N3_18  and  C12_19 
ROOT
HETATM    1  N1  UNL     1      -0.957   2.346  12.437  1.00  0.00    -0.336 N 
ATOM      2  H1  UNL     1      -0.443   3.136  12.827  1.00  0.00     0.164 HD
HETATM    3  C8  UNL     1      -2.098   1.865  13.124  1.00  0.00     0.316 C 
HETATM    4  O2  UNL     1      -2.695   0.885  12.593  1.00  0.00    -0.247 OA
HETATM    5  N2  UNL     1      -2.523   2.465  14.330  1.00  0.00    -0.338 N 
ATOM      6  H2  UNL     1      -1.974   3.252  14.677  1.00  0.00     0.164 HD
ENDROOT
BRANCH   5   7
HETATM    7  C9  UNL     1      -3.655   2.067  15.106  1.00  0.00     0.095 C 
HETATM    8  C10 UNL     1      -3.617   0.710  15.680  1.00  0.00     0.045 C 
HETATM    9  C11 UNL     1      -4.899  -0.044  15.352  1.00  0.00     0.134 C 
HETATM   10  N3  UNL     1      -5.995   0.803  15.789  1.00  0.00    -0.290 N 
HETATM   11  C12 UNL     1      -6.842   0.461  16.862  1.00  0.00     0.220 C 
HETATM   12  C14 UNL     1      -6.158   2.042  15.037  1.00  0.00     0.328 C 
HETATM   13  C13 UNL     1      -6.692  -0.794  17.639  1.00  0.00     0.117 C 
HETATM   14  O3  UNL     1      -7.771   1.245  17.184  1.00  0.00    -0.274 OA
HETATM   15  F1  UNL     1      -7.169   1.862  14.107  1.00  0.00    -0.182 F 
HETATM   16  F2  UNL     1      -6.470   3.066  15.877  1.00  0.00    -0.182 F 
HETATM   17  C15 UNL     1      -4.897   2.338  14.250  1.00  0.00     0.129 C 
ENDBRANCH   5   7
BRANCH   1  18
HETATM   18  C7  UNL     1      -0.501   1.763  11.218  1.00  0.00     0.115 C 
HETATM   19  C3  UNL     1      -1.282   2.164   9.987  1.00  0.00     0.144 C 
HETATM   20  C4  UNL     1      -0.366   1.563   8.899  1.00  0.00     0.034 C 
HETATM   21  C5  UNL     1       0.983   2.077   9.339  1.00  0.00     0.005 C 
HETATM   22  C6  UNL     1       0.893   2.279  10.834  1.00  0.00     0.028 C 
BRANCH  19  23
HETATM   23  O1  UNL     1      -1.304   3.524   9.884  1.00  0.00    -0.384 OA
BRANCH  23  24
HETATM   24  C2  UNL     1      -2.524   4.100   9.652  1.00  0.00     0.163 C 
HETATM   25  C1  UNL     1      -3.707   3.186   9.840  1.00  0.00     0.033 C 
ENDBRANCH  23  24
ENDBRANCH  19  23
ENDBRANCH   1  18
TORSDOF 4
ENDMDL
