MODEL 1
REMARK VINA RESULT: -10.260819641      0.000      0.000
REMARK  6 active torsions:
REMARK  status: ('A' for Active; 'I' for Inactive)
REMARK    1  A    between atoms: C1_2  and  C2_4 
REMARK    2  A    between atoms: C5_7  and  O2_8 
REMARK    3  A    between atoms: O2_8  and  C6_9 
REMARK    4  A    between atoms: C11_14  and  N2_15 
REMARK       I    between atoms: N2_15  and  C12_17 
REMARK       I    between atoms: C12_17  and  N3_19 
REMARK    5  A    between atoms: N3_19  and  C13_21 
REMARK    6  A    between atoms: C16_24  and  C17_25 
ROOT
HETATM    1  N2  UNL     1      11.929  25.405  33.309  1.00  0.00    -0.306 N 
ATOM      2  H2  UNL     1      12.392  25.707  32.452  1.00  0.00     0.171 HD
HETATM    3  C12 UNL     1      12.218  24.078  33.725  1.00  0.00     0.325 C 
HETATM    4  O3  UNL     1      11.733  23.557  34.746  1.00  0.00    -0.247 OA
HETATM    5  N3  UNL     1      13.098  23.305  32.945  1.00  0.00    -0.309 N 
ATOM      6  H3  UNL     1      13.478  23.770  32.120  1.00  0.00     0.170 HD
ENDROOT
BRANCH   1   7
HETATM    7  C11 UNL     1      11.103  26.349  33.909  1.00  0.00     0.070 A 
HETATM    8  C6  UNL     1       9.731  26.240  33.791  1.00  0.00     0.102 A 
HETATM    9  C7  UNL     1       8.878  27.208  34.310  1.00  0.00     0.039 A 
HETATM   10  C8  UNL     1       9.366  28.310  34.964  1.00  0.00     0.003 A 
HETATM   11  C9  UNL     1      10.728  28.451  35.103  1.00  0.00     0.002 A 
HETATM   12  C10 UNL     1      11.554  27.466  34.571  1.00  0.00     0.032 A 
BRANCH   8  13
HETATM   13  O2  UNL     1       9.162  25.161  33.151  1.00  0.00    -0.309 OA
BRANCH  13  14
HETATM   14  C5  UNL     1       7.809  24.954  33.131  1.00  0.00     0.076 A 
HETATM   15  C4  UNL     1       7.057  25.080  31.984  1.00  0.00     0.038 A 
HETATM   16  C3  UNL     1       5.688  24.853  32.050  1.00  0.00     0.019 A 
HETATM   17  C2  UNL     1       5.066  24.508  33.233  1.00  0.00     0.029 A 
HETATM   18  C26 UNL     1       5.850  24.393  34.360  1.00  0.00     0.019 A 
HETATM   19  C25 UNL     1       7.194  24.607  34.333  1.00  0.00     0.038 A 
BRANCH  17  20
HETATM   20  C1  UNL     1       3.619  24.273  33.289  1.00  0.00     0.264 C 
HETATM   21  N1  UNL     1       2.753  25.376  33.443  1.00  0.00    -0.057 NA
HETATM   22  O1  UNL     1       3.133  23.127  33.205  1.00  0.00    -0.271 OA
ENDBRANCH  17  20
ENDBRANCH  13  14
ENDBRANCH   8  13
ENDBRANCH   1   7
BRANCH   5  23
HETATM   23  C13 UNL     1      13.528  21.976  33.148  1.00  0.00     0.036 A 
HETATM   24  C14 UNL     1      14.604  21.369  32.556  1.00  0.00     0.030 A 
HETATM   25  C15 UNL     1      14.954  20.031  32.796  1.00  0.00     0.014 A 
HETATM   26  C16 UNL     1      14.221  19.252  33.654  1.00  0.00    -0.026 A 
HETATM   27  C23 UNL     1      13.138  19.851  34.256  1.00  0.00     0.014 A 
HETATM   28  C24 UNL     1      12.788  21.158  34.027  1.00  0.00     0.030 A 
BRANCH  26  29
HETATM   29  C17 UNL     1      14.570  17.861  33.916  1.00  0.00    -0.026 A 
HETATM   30  C18 UNL     1      15.785  17.337  33.492  1.00  0.00     0.012 A 
HETATM   31  C19 UNL     1      16.087  16.005  33.755  1.00  0.00     0.001 A 
HETATM   32  C20 UNL     1      15.207  15.189  34.431  1.00  0.00     0.000 A 
HETATM   33  C21 UNL     1      13.998  15.692  34.858  1.00  0.00     0.001 A 
HETATM   34  C22 UNL     1      13.707  17.023  34.588  1.00  0.00     0.012 A 
ENDBRANCH  26  29
ENDBRANCH   5  23
TORSDOF 6
ENDMDL
MODEL 2
REMARK VINA RESULT: -10.158343546      0.196      1.200
REMARK  6 active torsions:
REMARK  status: ('A' for Active; 'I' for Inactive)
REMARK    1  A    between atoms: C1_2  and  C2_4 
REMARK    2  A    between atoms: C5_7  and  O2_8 
REMARK    3  A    between atoms: O2_8  and  C6_9 
REMARK    4  A    between atoms: C11_14  and  N2_15 
REMARK       I    between atoms: N2_15  and  C12_17 
REMARK       I    between atoms: C12_17  and  N3_19 
REMARK    5  A    between atoms: N3_19  and  C13_21 
REMARK    6  A    between atoms: C16_24  and  C17_25 
ROOT
HETATM    1  N2  UNL     1      11.894  25.407  33.342  1.00  0.00    -0.306 N 
ATOM      2  H2  UNL     1      12.353  25.711  32.483  1.00  0.00     0.171 HD
HETATM    3  C12 UNL     1      12.187  24.081  33.757  1.00  0.00     0.325 C 
HETATM    4  O3  UNL     1      11.706  23.559  34.780  1.00  0.00    -0.247 OA
HETATM    5  N3  UNL     1      13.065  23.310  32.974  1.00  0.00    -0.309 N 
ATOM      6  H3  UNL     1      13.441  23.774  32.147  1.00  0.00     0.170 HD
ENDROOT
BRANCH   1   7
HETATM    7  C11 UNL     1      11.069  26.350  33.946  1.00  0.00     0.070 A 
HETATM    8  C6  UNL     1       9.697  26.198  33.896  1.00  0.00     0.102 A 
HETATM    9  C7  UNL     1       8.840  27.161  34.420  1.00  0.00     0.039 A 
HETATM   10  C8  UNL     1       9.325  28.302  35.009  1.00  0.00     0.003 A 
HETATM   11  C9  UNL     1      10.687  28.486  35.077  1.00  0.00     0.002 A 
HETATM   12  C10 UNL     1      11.517  27.505  34.543  1.00  0.00     0.032 A 
BRANCH   8  13
HETATM   13  O2  UNL     1       9.131  25.080  33.325  1.00  0.00    -0.309 OA
BRANCH  13  14
HETATM   14  C5  UNL     1       7.791  24.816  33.411  1.00  0.00     0.076 A 
HETATM   15  C4  UNL     1       7.139  24.673  34.616  1.00  0.00     0.038 A 
HETATM   16  C3  UNL     1       5.776  24.404  34.614  1.00  0.00     0.019 A 
HETATM   17  C2  UNL     1       5.062  24.277  33.439  1.00  0.00     0.029 A 
HETATM   18  C26 UNL     1       5.749  24.425  32.253  1.00  0.00     0.019 A 
HETATM   19  C25 UNL     1       7.083  24.689  32.216  1.00  0.00     0.038 A 
BRANCH  17  20
HETATM   20  C1  UNL     1       3.624  23.991  33.452  1.00  0.00     0.264 C 
HETATM   21  N1  UNL     1       2.716  25.061  33.597  1.00  0.00    -0.057 NA
HETATM   22  O1  UNL     1       3.180  22.831  33.337  1.00  0.00    -0.271 OA
ENDBRANCH  17  20
ENDBRANCH  13  14
ENDBRANCH   8  13
ENDBRANCH   1   7
BRANCH   5  23
HETATM   23  C13 UNL     1      13.498  21.981  33.175  1.00  0.00     0.036 A 
HETATM   24  C14 UNL     1      14.576  21.378  32.584  1.00  0.00     0.030 A 
HETATM   25  C15 UNL     1      14.929  20.040  32.823  1.00  0.00     0.014 A 
HETATM   26  C16 UNL     1      14.196  19.258  33.677  1.00  0.00    -0.026 A 
HETATM   27  C23 UNL     1      13.110  19.853  34.278  1.00  0.00     0.014 A 
HETATM   28  C24 UNL     1      12.757  21.159  34.051  1.00  0.00     0.030 A 
BRANCH  26  29
HETATM   29  C17 UNL     1      14.547  17.867  33.937  1.00  0.00    -0.026 A 
HETATM   30  C18 UNL     1      13.688  17.033  34.641  1.00  0.00     0.012 A 
HETATM   31  C19 UNL     1      14.053  15.711  34.874  1.00  0.00     0.001 A 
HETATM   32  C20 UNL     1      15.252  15.207  34.420  1.00  0.00     0.000 A 
HETATM   33  C21 UNL     1      16.115  16.019  33.722  1.00  0.00     0.001 A 
HETATM   34  C22 UNL     1      15.741  17.338  33.495  1.00  0.00     0.012 A 
ENDBRANCH  26  29
ENDBRANCH   5  23
TORSDOF 6
ENDMDL
MODEL 3
REMARK VINA RESULT: -10.091616662      2.027      3.152
REMARK  6 active torsions:
REMARK  status: ('A' for Active; 'I' for Inactive)
REMARK    1  A    between atoms: C1_2  and  C2_4 
REMARK    2  A    between atoms: C5_7  and  O2_8 
REMARK    3  A    between atoms: O2_8  and  C6_9 
REMARK    4  A    between atoms: C11_14  and  N2_15 
REMARK       I    between atoms: N2_15  and  C12_17 
REMARK       I    between atoms: C12_17  and  N3_19 
REMARK    5  A    between atoms: N3_19  and  C13_21 
REMARK    6  A    between atoms: C16_24  and  C17_25 
ROOT
HETATM    1  N2  UNL     1      13.215  22.876  34.412  1.00  0.00    -0.306 N 
ATOM      2  H2  UNL     1      13.616  23.147  33.514  1.00  0.00     0.171 HD
HETATM    3  C12 UNL     1      13.291  21.492  34.724  1.00  0.00     0.325 C 
HETATM    4  O3  UNL     1      12.845  21.000  35.776  1.00  0.00    -0.247 OA
HETATM    5  N3  UNL     1      13.900  20.627  33.797  1.00  0.00    -0.309 N 
ATOM      6  H3  UNL     1      14.256  21.069  32.949  1.00  0.00     0.170 HD
ENDROOT
BRANCH   1   7
HETATM    7  C11 UNL     1      12.669  23.912  35.161  1.00  0.00     0.070 A 
HETATM    8  C6  UNL     1      11.771  24.785  34.579  1.00  0.00     0.102 A 
HETATM    9  C7  UNL     1      11.265  25.879  35.275  1.00  0.00     0.039 A 
HETATM   10  C8  UNL     1      11.638  26.133  36.570  1.00  0.00     0.003 A 
HETATM   11  C9  UNL     1      12.530  25.283  37.184  1.00  0.00     0.002 A 
HETATM   12  C10 UNL     1      13.018  24.199  36.460  1.00  0.00     0.032 A 
BRANCH   8  13
HETATM   13  O2  UNL     1      11.344  24.598  33.283  1.00  0.00    -0.309 OA
BRANCH  13  14
HETATM   14  C5  UNL     1      10.049  24.824  32.901  1.00  0.00     0.076 A 
HETATM   15  C4  UNL     1       9.652  25.987  32.279  1.00  0.00     0.038 A 
HETATM   16  C3  UNL     1       8.317  26.137  31.924  1.00  0.00     0.019 A 
HETATM   17  C2  UNL     1       7.383  25.153  32.179  1.00  0.00     0.029 A 
HETATM   18  C26 UNL     1       7.817  24.004  32.803  1.00  0.00     0.019 A 
HETATM   19  C25 UNL     1       9.116  23.822  33.165  1.00  0.00     0.038 A 
BRANCH  17  20
HETATM   20  C1  UNL     1       5.977  25.325  31.800  1.00  0.00     0.264 C 
HETATM   21  N1  UNL     1       5.241  24.199  31.373  1.00  0.00    -0.057 NA
HETATM   22  O1  UNL     1       5.412  26.437  31.845  1.00  0.00    -0.271 OA
ENDBRANCH  17  20
ENDBRANCH  13  14
ENDBRANCH   8  13
ENDBRANCH   1   7
BRANCH   5  23
HETATM   23  C13 UNL     1      14.087  19.230  33.879  1.00  0.00     0.036 A 
HETATM   24  C14 UNL     1      14.865  18.462  33.053  1.00  0.00     0.030 A 
HETATM   25  C15 UNL     1      14.981  17.070  33.188  1.00  0.00     0.014 A 
HETATM   26  C16 UNL     1      14.308  16.398  34.176  1.00  0.00    -0.026 A 
HETATM   27  C23 UNL     1      13.523  17.158  35.012  1.00  0.00     0.014 A 
HETATM   28  C24 UNL     1      13.403  18.519  34.888  1.00  0.00     0.030 A 
BRANCH  26  29
HETATM   29  C17 UNL     1      14.417  14.952  34.332  1.00  0.00    -0.026 A 
HETATM   30  C18 UNL     1      13.295  14.176  34.593  1.00  0.00     0.012 A 
HETATM   31  C19 UNL     1      13.432  12.799  34.738  1.00  0.00     0.001 A 
HETATM   32  C20 UNL     1      14.660  12.185  34.628  1.00  0.00     0.000 A 
HETATM   33  C21 UNL     1      15.782  12.939  34.370  1.00  0.00     0.001 A 
HETATM   34  C22 UNL     1      15.633  14.313  34.227  1.00  0.00     0.012 A 
ENDBRANCH  26  29
ENDBRANCH   5  23
TORSDOF 6
ENDMDL
MODEL 4
REMARK VINA RESULT: -10.001177588      1.752      2.737
REMARK  6 active torsions:
REMARK  status: ('A' for Active; 'I' for Inactive)
REMARK    1  A    between atoms: C1_2  and  C2_4 
REMARK    2  A    between atoms: C5_7  and  O2_8 
REMARK    3  A    between atoms: O2_8  and  C6_9 
REMARK    4  A    between atoms: C11_14  and  N2_15 
REMARK       I    between atoms: N2_15  and  C12_17 
REMARK       I    between atoms: C12_17  and  N3_19 
REMARK    5  A    between atoms: N3_19  and  C13_21 
REMARK    6  A    between atoms: C16_24  and  C17_25 
ROOT
HETATM    1  N2  UNL     1      12.419  23.099  35.340  1.00  0.00    -0.306 N 
ATOM      2  H2  UNL     1      12.241  23.086  36.344  1.00  0.00     0.171 HD
HETATM    3  C12 UNL     1      12.804  21.856  34.770  1.00  0.00     0.325 C 
HETATM    4  O3  UNL     1      13.060  21.704  33.561  1.00  0.00    -0.247 OA
HETATM    5  N3  UNL     1      12.904  20.733  35.612  1.00  0.00    -0.309 N 
ATOM      6  H3  UNL     1      12.682  20.898  36.593  1.00  0.00     0.170 HD
ENDROOT
BRANCH   1   7
HETATM    7  C11 UNL     1      12.251  24.331  34.717  1.00  0.00     0.070 A 
HETATM    8  C6  UNL     1      10.979  24.812  34.471  1.00  0.00     0.102 A 
HETATM    9  C7  UNL     1      10.773  26.002  33.781  1.00  0.00     0.039 A 
HETATM   10  C8  UNL     1      11.827  26.749  33.319  1.00  0.00     0.003 A 
HETATM   11  C9  UNL     1      13.109  26.301  33.548  1.00  0.00     0.002 A 
HETATM   12  C10 UNL     1      13.281  25.106  34.239  1.00  0.00     0.032 A 
BRANCH   8  13
HETATM   13  O2  UNL     1       9.869  24.123  34.906  1.00  0.00    -0.309 OA
BRANCH  13  14
HETATM   14  C5  UNL     1       8.614  24.378  34.419  1.00  0.00     0.076 A 
HETATM   15  C4  UNL     1       8.297  24.251  33.085  1.00  0.00     0.038 A 
HETATM   16  C3  UNL     1       7.000  24.530  32.673  1.00  0.00     0.019 A 
HETATM   17  C2  UNL     1       6.026  24.931  33.566  1.00  0.00     0.029 A 
HETATM   18  C26 UNL     1       6.381  25.047  34.892  1.00  0.00     0.019 A 
HETATM   19  C25 UNL     1       7.641  24.782  35.331  1.00  0.00     0.038 A 
BRANCH  17  20
HETATM   20  C1  UNL     1       4.660  25.223  33.117  1.00  0.00     0.264 C 
HETATM   21  N1  UNL     1       3.737  24.163  33.001  1.00  0.00    -0.057 NA
HETATM   22  O1  UNL     1       4.292  26.381  32.837  1.00  0.00    -0.271 OA
ENDBRANCH  17  20
ENDBRANCH  13  14
ENDBRANCH   8  13
ENDBRANCH   1   7
BRANCH   5  23
HETATM   23  C13 UNL     1      13.270  19.410  35.283  1.00  0.00     0.036 A 
HETATM   24  C14 UNL     1      13.747  18.973  34.075  1.00  0.00     0.030 A 
HETATM   25  C15 UNL     1      14.069  17.631  33.821  1.00  0.00     0.014 A 
HETATM   26  C16 UNL     1      13.919  16.672  34.790  1.00  0.00    -0.026 A 
HETATM   27  C23 UNL     1      13.440  17.098  36.008  1.00  0.00     0.014 A 
HETATM   28  C24 UNL     1      13.122  18.408  36.266  1.00  0.00     0.030 A 
BRANCH  26  29
HETATM   29  C17 UNL     1      14.248  15.273  34.544  1.00  0.00    -0.026 A 
HETATM   30  C18 UNL     1      13.252  14.309  34.465  1.00  0.00     0.012 A 
HETATM   31  C19 UNL     1      13.599  12.982  34.231  1.00  0.00     0.001 A 
HETATM   32  C20 UNL     1      14.913  12.601  34.074  1.00  0.00     0.000 A 
HETATM   33  C21 UNL     1      15.913  13.544  34.150  1.00  0.00     0.001 A 
HETATM   34  C22 UNL     1      15.555  14.866  34.385  1.00  0.00     0.012 A 
ENDBRANCH  26  29
ENDBRANCH   5  23
TORSDOF 6
ENDMDL
MODEL 5
REMARK VINA RESULT: -9.896424187      2.159      3.659
REMARK  6 active torsions:
REMARK  status: ('A' for Active; 'I' for Inactive)
REMARK    1  A    between atoms: C1_2  and  C2_4 
REMARK    2  A    between atoms: C5_7  and  O2_8 
REMARK    3  A    between atoms: O2_8  and  C6_9 
REMARK    4  A    between atoms: C11_14  and  N2_15 
REMARK       I    between atoms: N2_15  and  C12_17 
REMARK       I    between atoms: C12_17  and  N3_19 
REMARK    5  A    between atoms: N3_19  and  C13_21 
REMARK    6  A    between atoms: C16_24  and  C17_25 
ROOT
HETATM    1  N2  UNL     1      13.810  22.539  33.495  1.00  0.00    -0.306 N 
ATOM      2  H2  UNL     1      14.172  22.853  34.395  1.00  0.00     0.171 HD
HETATM    3  C12 UNL     1      13.825  21.134  33.285  1.00  0.00     0.325 C 
HETATM    4  O3  UNL     1      13.422  20.592  32.240  1.00  0.00    -0.247 OA
HETATM    5  N3  UNL     1      14.321  20.307  34.309  1.00  0.00    -0.309 N 
ATOM      6  H3  UNL     1      14.638  20.790  35.150  1.00  0.00     0.170 HD
ENDROOT
BRANCH   1   7
HETATM    7  C11 UNL     1      13.370  23.546  32.642  1.00  0.00     0.070 A 
HETATM    8  C6  UNL     1      12.117  24.101  32.819  1.00  0.00     0.102 A 
HETATM    9  C7  UNL     1      11.613  25.053  31.939  1.00  0.00     0.039 A 
HETATM   10  C8  UNL     1      12.343  25.481  30.859  1.00  0.00     0.003 A 
HETATM   11  C9  UNL     1      13.596  24.952  30.653  1.00  0.00     0.002 A 
HETATM   12  C10 UNL     1      14.071  24.000  31.550  1.00  0.00     0.032 A 
BRANCH   8  13
HETATM   13  O2  UNL     1      11.323  23.727  33.881  1.00  0.00    -0.309 OA
BRANCH  13  14
HETATM   14  C5  UNL     1      10.012  24.107  33.982  1.00  0.00     0.076 A 
HETATM   15  C4  UNL     1       9.464  24.573  35.156  1.00  0.00     0.038 A 
HETATM   16  C3  UNL     1       8.123  24.938  35.173  1.00  0.00     0.019 A 
HETATM   17  C2  UNL     1       7.331  24.843  34.047  1.00  0.00     0.029 A 
HETATM   18  C26 UNL     1       7.914  24.372  32.891  1.00  0.00     0.019 A 
HETATM   19  C25 UNL     1       9.223  24.006  32.836  1.00  0.00     0.038 A 
BRANCH  17  20
HETATM   20  C1  UNL     1       5.916  25.230  34.079  1.00  0.00     0.264 C 
HETATM   21  N1  UNL     1       5.116  24.806  35.161  1.00  0.00    -0.057 NA
HETATM   22  O1  UNL     1       5.401  25.924  33.180  1.00  0.00    -0.271 OA
ENDBRANCH  17  20
ENDBRANCH  13  14
ENDBRANCH   8  13
ENDBRANCH   1   7
BRANCH   5  23
HETATM   23  C13 UNL     1      14.442  18.901  34.332  1.00  0.00     0.036 A 
HETATM   24  C14 UNL     1      15.278  18.143  33.556  1.00  0.00     0.030 A 
HETATM   25  C15 UNL     1      15.324  16.742  33.623  1.00  0.00     0.014 A 
HETATM   26  C16 UNL     1      14.516  16.050  34.489  1.00  0.00    -0.026 A 
HETATM   27  C23 UNL     1      13.671  16.800  35.274  1.00  0.00     0.014 A 
HETATM   28  C24 UNL     1      13.619  18.170  35.215  1.00  0.00     0.030 A 
BRANCH  26  29
HETATM   29  C17 UNL     1      14.549  14.595  34.573  1.00  0.00    -0.026 A 
HETATM   30  C18 UNL     1      15.695  13.886  34.238  1.00  0.00     0.012 A 
HETATM   31  C19 UNL     1      15.695  12.498  34.328  1.00  0.00     0.001 A 
HETATM   32  C20 UNL     1      14.578  11.806  34.744  1.00  0.00     0.000 A 
HETATM   33  C21 UNL     1      13.434  12.493  35.079  1.00  0.00     0.001 A 
HETATM   34  C22 UNL     1      13.446  13.879  34.985  1.00  0.00     0.012 A 
ENDBRANCH  26  29
ENDBRANCH   5  23
TORSDOF 6
ENDMDL
