MODEL 1
REMARK VINA RESULT: -10.463843084      0.000      0.000
REMARK  6 active torsions:
REMARK  status: ('A' for Active; 'I' for Inactive)
REMARK    1  A    between atoms: C1_2  and  C2_4 
REMARK    2  A    between atoms: C5_7  and  C6_8 
REMARK    3  A    between atoms: C11_13  and  N2_14 
REMARK       I    between atoms: N2_14  and  C12_16 
REMARK       I    between atoms: C12_16  and  N3_18 
REMARK    4  A    between atoms: N3_18  and  C13_20 
REMARK    5  A    between atoms: C16_23  and  O3_24 
REMARK    6  A    between atoms: O3_24  and  C17_25 
ROOT
HETATM    1  N2  UNL     1      10.346  23.832  34.102  1.00  0.00    -0.308 N 
ATOM      2  H2  UNL     1       9.490  23.389  33.769  1.00  0.00     0.170 HD
HETATM    3  C12 UNL     1      11.446  22.962  34.301  1.00  0.00     0.325 C 
HETATM    4  O2  UNL     1      12.528  23.417  34.700  1.00  0.00    -0.247 OA
HETATM    5  N3  UNL     1      11.352  21.579  34.058  1.00  0.00    -0.309 N 
ATOM      6  H3  UNL     1      10.445  21.250  33.728  1.00  0.00     0.170 HD
ENDROOT
BRANCH   1   7
HETATM    7  C11 UNL     1      10.271  25.217  34.298  1.00  0.00     0.047 A 
HETATM    8  C6  UNL     1       9.027  25.855  34.341  1.00  0.00     0.001 A 
HETATM    9  C7  UNL     1       8.933  27.219  34.582  1.00  0.00     0.014 A 
HETATM   10  C8  UNL     1      10.039  28.006  34.787  1.00  0.00     0.001 A 
HETATM   11  C9  UNL     1      11.260  27.403  34.748  1.00  0.00     0.002 A 
HETATM   12  C10 UNL     1      11.351  26.034  34.507  1.00  0.00     0.030 A 
BRANCH   8  13
HETATM   13  C5  UNL     1       7.783  25.143  34.095  1.00  0.00    -0.024 A 
HETATM   14  C4  UNL     1       7.002  24.827  35.195  1.00  0.00     0.013 A 
HETATM   15  C3  UNL     1       5.807  24.194  35.054  1.00  0.00     0.017 A 
HETATM   16  C2  UNL     1       5.345  23.851  33.799  1.00  0.00     0.029 A 
HETATM   17  C26 UNL     1       6.126  24.168  32.705  1.00  0.00     0.017 A 
HETATM   18  C25 UNL     1       7.323  24.803  32.856  1.00  0.00     0.013 A 
BRANCH  16  19
HETATM   19  C1  UNL     1       4.069  23.175  33.636  1.00  0.00     0.264 C 
HETATM   20  N1  UNL     1       2.959  23.928  33.174  1.00  0.00    -0.057 NA
HETATM   21  O1  UNL     1       3.993  21.951  33.908  1.00  0.00    -0.271 OA
ENDBRANCH  16  19
ENDBRANCH   8  13
ENDBRANCH   1   7
BRANCH   5  22
HETATM   22  C13 UNL     1      12.338  20.590  34.210  1.00  0.00     0.036 A 
HETATM   23  C14 UNL     1      13.556  20.574  33.583  1.00  0.00     0.032 A 
HETATM   24  C15 UNL     1      14.485  19.533  33.767  1.00  0.00     0.039 A 
HETATM   25  C16 UNL     1      14.196  18.480  34.595  1.00  0.00     0.076 A 
HETATM   26  C23 UNL     1      12.979  18.469  35.239  1.00  0.00     0.039 A 
HETATM   27  C24 UNL     1      12.089  19.485  35.051  1.00  0.00     0.032 A 
BRANCH  25  28
HETATM   28  O3  UNL     1      15.047  17.425  34.828  1.00  0.00    -0.311 OA
BRANCH  28  29
HETATM   29  C17 UNL     1      14.705  16.098  34.616  1.00  0.00     0.076 A 
HETATM   30  C18 UNL     1      15.697  15.148  34.500  1.00  0.00     0.037 A 
HETATM   31  C19 UNL     1      15.399  13.809  34.286  1.00  0.00     0.003 A 
HETATM   32  C20 UNL     1      14.094  13.374  34.183  1.00  0.00     0.000 A 
HETATM   33  C21 UNL     1      13.103  14.325  34.300  1.00  0.00     0.003 A 
HETATM   34  C22 UNL     1      13.397  15.668  34.513  1.00  0.00     0.037 A 
ENDBRANCH  28  29
ENDBRANCH  25  28
ENDBRANCH   5  22
TORSDOF 6
ENDMDL
MODEL 2
REMARK VINA RESULT: -10.283041003      0.254      1.203
REMARK  6 active torsions:
REMARK  status: ('A' for Active; 'I' for Inactive)
REMARK    1  A    between atoms: C1_2  and  C2_4 
REMARK    2  A    between atoms: C5_7  and  C6_8 
REMARK    3  A    between atoms: C11_13  and  N2_14 
REMARK       I    between atoms: N2_14  and  C12_16 
REMARK       I    between atoms: C12_16  and  N3_18 
REMARK    4  A    between atoms: N3_18  and  C13_20 
REMARK    5  A    between atoms: C16_23  and  O3_24 
REMARK    6  A    between atoms: O3_24  and  C17_25 
ROOT
HETATM    1  N2  UNL     1      10.510  24.029  33.711  1.00  0.00    -0.308 N 
ATOM      2  H2  UNL     1       9.796  23.701  33.060  1.00  0.00     0.170 HD
HETATM    3  C12 UNL     1      11.427  23.046  34.158  1.00  0.00     0.325 C 
HETATM    4  O2  UNL     1      12.331  23.359  34.946  1.00  0.00    -0.247 OA
HETATM    5  N3  UNL     1      11.346  21.707  33.731  1.00  0.00    -0.309 N 
ATOM      6  H3  UNL     1      10.590  21.497  33.079  1.00  0.00     0.170 HD
ENDROOT
BRANCH   1   7
HETATM    7  C11 UNL     1      10.448  25.390  34.038  1.00  0.00     0.047 A 
HETATM    8  C6  UNL     1       9.209  26.012  34.228  1.00  0.00     0.001 A 
HETATM    9  C7  UNL     1       9.132  27.347  34.599  1.00  0.00     0.014 A 
HETATM   10  C8  UNL     1      10.249  28.120  34.795  1.00  0.00     0.001 A 
HETATM   11  C9  UNL     1      11.464  27.533  34.614  1.00  0.00     0.002 A 
HETATM   12  C10 UNL     1      11.539  26.193  34.243  1.00  0.00     0.030 A 
BRANCH   8  13
HETATM   13  C5  UNL     1       7.952  25.315  34.007  1.00  0.00    -0.024 A 
HETATM   14  C4  UNL     1       7.231  24.932  35.127  1.00  0.00     0.013 A 
HETATM   15  C3  UNL     1       6.028  24.309  35.013  1.00  0.00     0.017 A 
HETATM   16  C2  UNL     1       5.497  24.043  33.767  1.00  0.00     0.029 A 
HETATM   17  C26 UNL     1       6.218  24.427  32.653  1.00  0.00     0.017 A 
HETATM   18  C25 UNL     1       7.424  25.052  32.776  1.00  0.00     0.013 A 
BRANCH  16  19
HETATM   19  C1  UNL     1       4.212  23.378  33.633  1.00  0.00     0.264 C 
HETATM   20  N1  UNL     1       3.085  24.154  33.254  1.00  0.00    -0.057 NA
HETATM   21  O1  UNL     1       4.143  22.144  33.855  1.00  0.00    -0.271 OA
ENDBRANCH  16  19
ENDBRANCH   8  13
ENDBRANCH   1   7
BRANCH   5  22
HETATM   22  C13 UNL     1      12.166  20.622  34.080  1.00  0.00     0.036 A 
HETATM   23  C14 UNL     1      11.849  19.638  34.980  1.00  0.00     0.032 A 
HETATM   24  C15 UNL     1      12.736  18.593  35.297  1.00  0.00     0.039 A 
HETATM   25  C16 UNL     1      13.971  18.522  34.706  1.00  0.00     0.076 A 
HETATM   26  C23 UNL     1      14.317  19.497  33.797  1.00  0.00     0.039 A 
HETATM   27  C24 UNL     1      13.447  20.505  33.499  1.00  0.00     0.032 A 
BRANCH  25  28
HETATM   28  O3  UNL     1      14.894  17.536  34.960  1.00  0.00    -0.311 OA
BRANCH  28  29
HETATM   29  C17 UNL     1      14.675  16.191  34.701  1.00  0.00     0.076 A 
HETATM   30  C18 UNL     1      13.384  15.720  34.587  1.00  0.00     0.037 A 
HETATM   31  C19 UNL     1      13.120  14.381  34.329  1.00  0.00     0.003 A 
HETATM   32  C20 UNL     1      14.141  13.467  34.176  1.00  0.00     0.000 A 
HETATM   33  C21 UNL     1      15.432  13.940  34.290  1.00  0.00     0.003 A 
HETATM   34  C22 UNL     1      15.701  15.280  34.549  1.00  0.00     0.037 A 
ENDBRANCH  28  29
ENDBRANCH  25  28
ENDBRANCH   5  22
TORSDOF 6
ENDMDL
MODEL 3
REMARK VINA RESULT: -9.970738777      1.099      1.400
REMARK  6 active torsions:
REMARK  status: ('A' for Active; 'I' for Inactive)
REMARK    1  A    between atoms: C1_2  and  C2_4 
REMARK    2  A    between atoms: C5_7  and  C6_8 
REMARK    3  A    between atoms: C11_13  and  N2_14 
REMARK       I    between atoms: N2_14  and  C12_16 
REMARK       I    between atoms: C12_16  and  N3_18 
REMARK    4  A    between atoms: N3_18  and  C13_20 
REMARK    5  A    between atoms: C16_23  and  O3_24 
REMARK    6  A    between atoms: O3_24  and  C17_25 
ROOT
HETATM    1  N2  UNL     1      10.613  23.643  34.899  1.00  0.00    -0.308 N 
ATOM      2  H2  UNL     1       9.820  23.345  34.331  1.00  0.00     0.170 HD
HETATM    3  C12 UNL     1      11.695  22.730  34.962  1.00  0.00     0.325 C 
HETATM    4  O2  UNL     1      12.703  23.013  35.626  1.00  0.00    -0.247 OA
HETATM    5  N3  UNL     1      11.665  21.495  34.287  1.00  0.00    -0.309 N 
ATOM      6  H3  UNL     1      10.818  21.307  33.751  1.00  0.00     0.170 HD
ENDROOT
BRANCH   1   7
HETATM    7  C11 UNL     1      10.482  24.898  35.508  1.00  0.00     0.047 A 
HETATM    8  C6  UNL     1       9.285  25.612  35.396  1.00  0.00     0.001 A 
HETATM    9  C7  UNL     1       9.122  26.834  36.033  1.00  0.00     0.014 A 
HETATM   10  C8  UNL     1      10.113  27.403  36.795  1.00  0.00     0.001 A 
HETATM   11  C9  UNL     1      11.287  26.724  36.914  1.00  0.00     0.002 A 
HETATM   12  C10 UNL     1      11.447  25.496  36.275  1.00  0.00     0.030 A 
BRANCH   8  13
HETATM   13  C5  UNL     1       8.175  25.140  34.583  1.00  0.00    -0.024 A 
HETATM   14  C4  UNL     1       7.043  24.694  35.247  1.00  0.00     0.013 A 
HETATM   15  C3  UNL     1       5.946  24.270  34.565  1.00  0.00     0.017 A 
HETATM   16  C2  UNL     1       5.940  24.275  33.184  1.00  0.00     0.029 A 
HETATM   17  C26 UNL     1       7.069  24.721  32.526  1.00  0.00     0.017 A 
HETATM   18  C25 UNL     1       8.165  25.145  33.218  1.00  0.00     0.013 A 
BRANCH  16  19
HETATM   19  C1  UNL     1       4.773  23.825  32.445  1.00  0.00     0.264 C 
HETATM   20  N1  UNL     1       3.626  23.416  33.174  1.00  0.00    -0.057 NA
HETATM   21  O1  UNL     1       4.819  23.813  31.190  1.00  0.00    -0.271 OA
ENDBRANCH  16  19
ENDBRANCH   8  13
ENDBRANCH   1   7
BRANCH   5  22
HETATM   22  C13 UNL     1      12.643  20.488  34.253  1.00  0.00     0.036 A 
HETATM   23  C14 UNL     1      13.794  20.517  33.511  1.00  0.00     0.032 A 
HETATM   24  C15 UNL     1      14.717  19.455  33.510  1.00  0.00     0.039 A 
HETATM   25  C16 UNL     1      14.491  18.334  34.265  1.00  0.00     0.076 A 
HETATM   26  C23 UNL     1      13.342  18.276  35.021  1.00  0.00     0.039 A 
HETATM   27  C24 UNL     1      12.456  19.313  35.012  1.00  0.00     0.032 A 
BRANCH  25  28
HETATM   28  O3  UNL     1      15.341  17.255  34.319  1.00  0.00    -0.311 OA
BRANCH  28  29
HETATM   29  C17 UNL     1      14.911  15.936  34.322  1.00  0.00     0.076 A 
HETATM   30  C18 UNL     1      13.561  15.658  34.299  1.00  0.00     0.037 A 
HETATM   31  C19 UNL     1      13.088  14.353  34.302  1.00  0.00     0.003 A 
HETATM   32  C20 UNL     1      13.952  13.278  34.327  1.00  0.00     0.000 A 
HETATM   33  C21 UNL     1      15.303  13.558  34.350  1.00  0.00     0.003 A 
HETATM   34  C22 UNL     1      15.781  14.864  34.348  1.00  0.00     0.037 A 
ENDBRANCH  28  29
ENDBRANCH  25  28
ENDBRANCH   5  22
TORSDOF 6
ENDMDL
MODEL 4
REMARK VINA RESULT: -9.735673589      0.973      1.320
REMARK  6 active torsions:
REMARK  status: ('A' for Active; 'I' for Inactive)
REMARK    1  A    between atoms: C1_2  and  C2_4 
REMARK    2  A    between atoms: C5_7  and  C6_8 
REMARK    3  A    between atoms: C11_13  and  N2_14 
REMARK       I    between atoms: N2_14  and  C12_16 
REMARK       I    between atoms: C12_16  and  N3_18 
REMARK    4  A    between atoms: N3_18  and  C13_20 
REMARK    5  A    between atoms: C16_23  and  O3_24 
REMARK    6  A    between atoms: O3_24  and  C17_25 
ROOT
HETATM    1  N2  UNL     1      10.635  24.538  33.464  1.00  0.00    -0.308 N 
ATOM      2  H2  UNL     1      10.277  24.303  32.539  1.00  0.00     0.170 HD
HETATM    3  C12 UNL     1      11.247  23.472  34.170  1.00  0.00     0.325 C 
HETATM    4  O2  UNL     1      11.714  23.670  35.301  1.00  0.00    -0.247 OA
HETATM    5  N3  UNL     1      11.345  22.179  33.624  1.00  0.00    -0.309 N 
ATOM      6  H3  UNL     1      10.951  22.065  32.690  1.00  0.00     0.170 HD
ENDROOT
BRANCH   1   7
HETATM    7  C11 UNL     1      10.454  25.869  33.862  1.00  0.00     0.047 A 
HETATM    8  C6  UNL     1       9.165  26.371  34.072  1.00  0.00     0.001 A 
HETATM    9  C7  UNL     1       8.970  27.673  34.512  1.00  0.00     0.014 A 
HETATM   10  C8  UNL     1      10.016  28.528  34.759  1.00  0.00     0.001 A 
HETATM   11  C9  UNL     1      11.278  28.058  34.560  1.00  0.00     0.002 A 
HETATM   12  C10 UNL     1      11.470  26.751  34.119  1.00  0.00     0.030 A 
BRANCH   8  13
HETATM   13  C5  UNL     1       7.974  25.581  33.803  1.00  0.00    -0.024 A 
HETATM   14  C4  UNL     1       7.234  25.152  34.894  1.00  0.00     0.013 A 
HETATM   15  C3  UNL     1       6.088  24.440  34.733  1.00  0.00     0.017 A 
HETATM   16  C2  UNL     1       5.634  24.128  33.467  1.00  0.00     0.029 A 
HETATM   17  C26 UNL     1       6.373  24.558  32.383  1.00  0.00     0.017 A 
HETATM   18  C25 UNL     1       7.522  25.272  32.553  1.00  0.00     0.013 A 
BRANCH  16  19
HETATM   19  C1  UNL     1       4.409  23.368  33.283  1.00  0.00     0.264 C 
HETATM   20  N1  UNL     1       4.184  22.237  34.111  1.00  0.00    -0.057 NA
HETATM   21  O1  UNL     1       3.594  23.737  32.402  1.00  0.00    -0.271 OA
ENDBRANCH  16  19
ENDBRANCH   8  13
ENDBRANCH   1   7
BRANCH   5  22
HETATM   22  C13 UNL     1      11.911  21.025  34.190  1.00  0.00     0.036 A 
HETATM   23  C14 UNL     1      13.237  20.684  34.149  1.00  0.00     0.032 A 
HETATM   24  C15 UNL     1      13.726  19.494  34.720  1.00  0.00     0.039 A 
HETATM   25  C16 UNL     1      12.877  18.621  35.349  1.00  0.00     0.076 A 
HETATM   26  C23 UNL     1      11.538  18.939  35.406  1.00  0.00     0.039 A 
HETATM   27  C24 UNL     1      11.078  20.095  34.848  1.00  0.00     0.032 A 
BRANCH  25  28
HETATM   28  O3  UNL     1      13.275  17.442  35.931  1.00  0.00    -0.311 OA
BRANCH  28  29
HETATM   29  C17 UNL     1      13.879  16.404  35.236  1.00  0.00     0.076 A 
HETATM   30  C18 UNL     1      13.168  15.251  34.979  1.00  0.00     0.037 A 
HETATM   31  C19 UNL     1      13.734  14.189  34.287  1.00  0.00     0.003 A 
HETATM   32  C20 UNL     1      15.033  14.244  33.828  1.00  0.00     0.000 A 
HETATM   33  C21 UNL     1      15.743  15.398  34.086  1.00  0.00     0.003 A 
HETATM   34  C22 UNL     1      15.180  16.465  34.779  1.00  0.00     0.037 A 
ENDBRANCH  28  29
ENDBRANCH  25  28
ENDBRANCH   5  22
TORSDOF 6
ENDMDL
MODEL 5
REMARK VINA RESULT: -8.742885141      1.495      1.841
REMARK  6 active torsions:
REMARK  status: ('A' for Active; 'I' for Inactive)
REMARK    1  A    between atoms: C1_2  and  C2_4 
REMARK    2  A    between atoms: C5_7  and  C6_8 
REMARK    3  A    between atoms: C11_13  and  N2_14 
REMARK       I    between atoms: N2_14  and  C12_16 
REMARK       I    between atoms: C12_16  and  N3_18 
REMARK    4  A    between atoms: N3_18  and  C13_20 
REMARK    5  A    between atoms: C16_23  and  O3_24 
REMARK    6  A    between atoms: O3_24  and  C17_25 
ROOT
HETATM    1  N2  UNL     1      10.710  25.058  34.171  1.00  0.00    -0.308 N 
ATOM      2  H2  UNL     1      10.206  25.070  33.285  1.00  0.00     0.170 HD
HETATM    3  C12 UNL     1      11.731  24.082  34.280  1.00  0.00     0.325 C 
HETATM    4  O2  UNL     1      12.398  24.001  35.322  1.00  0.00    -0.247 OA
HETATM    5  N3  UNL     1      12.018  23.188  33.232  1.00  0.00    -0.309 N 
ATOM      6  H3  UNL     1      11.447  23.295  32.393  1.00  0.00     0.170 HD
ENDROOT
BRANCH   1   7
HETATM    7  C11 UNL     1      10.298  26.011  35.112  1.00  0.00     0.047 A 
HETATM    8  C6  UNL     1       8.936  26.271  35.300  1.00  0.00     0.001 A 
HETATM    9  C7  UNL     1       8.509  27.177  36.261  1.00  0.00     0.014 A 
HETATM   10  C8  UNL     1       9.386  27.859  37.067  1.00  0.00     0.001 A 
HETATM   11  C9  UNL     1      10.716  27.620  36.900  1.00  0.00     0.002 A 
HETATM   12  C10 UNL     1      11.142  26.710  35.935  1.00  0.00     0.030 A 
BRANCH   8  13
HETATM   13  C5  UNL     1       7.909  25.648  34.479  1.00  0.00    -0.024 A 
HETATM   14  C4  UNL     1       6.969  24.861  35.125  1.00  0.00     0.013 A 
HETATM   15  C3  UNL     1       5.954  24.270  34.440  1.00  0.00     0.017 A 
HETATM   16  C2  UNL     1       5.840  24.446  33.076  1.00  0.00     0.029 A 
HETATM   17  C26 UNL     1       6.777  25.231  32.436  1.00  0.00     0.017 A 
HETATM   18  C25 UNL     1       7.793  25.821  33.130  1.00  0.00     0.013 A 
BRANCH  16  19
HETATM   19  C1  UNL     1       4.758  23.820  32.334  1.00  0.00     0.264 C 
HETATM   20  N1  UNL     1       3.646  23.314  33.057  1.00  0.00    -0.057 NA
HETATM   21  O1  UNL     1       4.843  23.749  31.083  1.00  0.00    -0.271 OA
ENDBRANCH  16  19
ENDBRANCH   8  13
ENDBRANCH   1   7
BRANCH   5  22
HETATM   22  C13 UNL     1      12.984  22.170  33.183  1.00  0.00     0.036 A 
HETATM   23  C14 UNL     1      14.007  22.082  32.277  1.00  0.00     0.032 A 
HETATM   24  C15 UNL     1      14.924  21.014  32.277  1.00  0.00     0.039 A 
HETATM   25  C16 UNL     1      14.823  20.008  33.202  1.00  0.00     0.076 A 
HETATM   26  C23 UNL     1      13.804  20.070  34.127  1.00  0.00     0.039 A 
HETATM   27  C24 UNL     1      12.922  21.111  34.114  1.00  0.00     0.032 A 
BRANCH  25  28
HETATM   28  O3  UNL     1      15.676  18.932  33.270  1.00  0.00    -0.311 OA
BRANCH  28  29
HETATM   29  C17 UNL     1      15.360  17.737  33.899  1.00  0.00     0.076 A 
HETATM   30  C18 UNL     1      15.431  16.555  33.192  1.00  0.00     0.037 A 
HETATM   31  C19 UNL     1      15.123  15.337  33.782  1.00  0.00     0.003 A 
HETATM   32  C20 UNL     1      14.733  15.260  35.103  1.00  0.00     0.000 A 
HETATM   33  C21 UNL     1      14.662  16.443  35.809  1.00  0.00     0.003 A 
HETATM   34  C22 UNL     1      14.969  17.666  35.221  1.00  0.00     0.037 A 
ENDBRANCH  28  29
ENDBRANCH  25  28
ENDBRANCH   5  22
TORSDOF 6
ENDMDL
