MODEL 1
REMARK VINA RESULT: -12.463164945      0.000      0.000
REMARK  6 active torsions:
REMARK  status: ('A' for Active; 'I' for Inactive)
REMARK       I    between atoms: C1_2  and  N1_3 
REMARK    1  A    between atoms: C1_2  and  C9_12 
REMARK    2  A    between atoms: N1_3  and  C2_5 
REMARK    3  A    between atoms: C2_5  and  C3_6 
REMARK    4  A    between atoms: C13_16  and  N2_17 
REMARK    5  A    between atoms: N2_17  and  C14_19 
REMARK    6  A    between atoms: C19_24  and  C20_25 
ROOT
HETATM    1  N2  UNL     1      12.246  23.276  34.919  1.00  0.00    -0.355 N 
ATOM      2  H2  UNL     1      12.430  22.431  35.460  1.00  0.00     0.166 HD
ENDROOT
BRANCH   1   3
HETATM    3  C13 UNL     1      11.295  24.177  35.442  1.00  0.00     0.033 A 
HETATM    4  C12 UNL     1      11.491  24.770  36.660  1.00  0.00     0.029 A 
HETATM    5  C11 UNL     1      10.574  25.680  37.197  1.00  0.00     0.003 A 
HETATM    6  C10 UNL     1       9.429  25.970  36.437  1.00  0.00     0.017 A 
HETATM    7  C9  UNL     1       9.214  25.389  35.220  1.00  0.00     0.034 A 
HETATM    8  C27 UNL     1      10.132  24.499  34.718  1.00  0.00     0.046 A 
BRANCH   7   9
HETATM    9  C1  UNL     1       8.033  25.692  34.439  1.00  0.00     0.252 C 
HETATM   10  O1  UNL     1       7.093  26.412  34.951  1.00  0.00    -0.268 OA
HETATM   11  N1  UNL     1       7.783  25.265  33.115  1.00  0.00    -0.353 N 
ATOM     12  H1  UNL     1       8.489  24.690  32.655  1.00  0.00     0.163 HD
BRANCH  11  13
HETATM   13  C2  UNL     1       6.589  25.596  32.379  1.00  0.00     0.161 C 
BRANCH  13  14
HETATM   14  C3  UNL     1       5.385  24.897  32.878  1.00  0.00    -0.041 A 
HETATM   15  C4  UNL     1       5.373  23.536  33.069  1.00  0.00     0.009 A 
HETATM   16  C5  UNL     1       4.212  22.950  33.537  1.00  0.00     0.001 A 
HETATM   17  C6  UNL     1       3.069  23.681  33.818  1.00  0.00     0.000 A 
HETATM   18  C7  UNL     1       3.085  25.050  33.625  1.00  0.00     0.001 A 
HETATM   19  C8  UNL     1       4.250  25.621  33.158  1.00  0.00     0.009 A 
ENDBRANCH  13  14
ENDBRANCH  11  13
ENDBRANCH   7   9
ENDBRANCH   1   3
BRANCH   1  20
HETATM   20  C14 UNL     1      12.962  23.438  33.721  1.00  0.00     0.046 A 
HETATM   21  C15 UNL     1      12.966  24.670  33.040  1.00  0.00     0.030 A 
HETATM   22  C16 UNL     1      13.526  24.823  31.784  1.00  0.00     0.002 A 
HETATM   23  C17 UNL     1      14.095  23.726  31.191  1.00  0.00     0.001 A 
HETATM   24  C18 UNL     1      14.117  22.513  31.810  1.00  0.00     0.017 A 
HETATM   25  C19 UNL     1      13.543  22.374  33.094  1.00  0.00     0.035 A 
BRANCH  25  26
HETATM   26  C20 UNL     1      13.746  21.088  33.721  1.00  0.00     0.118 A 
HETATM   27  N3  UNL     1      14.728  20.213  33.313  1.00  0.00    -0.340 N 
HETATM   28  C21 UNL     1      14.687  19.080  34.013  1.00  0.00     0.060 A 
ATOM     29  H3  UNL     1      15.401  20.407  32.571  1.00  0.00     0.167 HD
HETATM   30  C22 UNL     1      15.436  17.915  33.991  1.00  0.00     0.032 A 
HETATM   31  C26 UNL     1      13.652  19.205  34.910  1.00  0.00     0.060 A 
HETATM   32  C23 UNL     1      15.178  16.866  34.845  1.00  0.00     0.002 A 
HETATM   33  C24 UNL     1      14.127  17.010  35.745  1.00  0.00     0.002 A 
HETATM   34  C25 UNL     1      13.380  18.169  35.769  1.00  0.00     0.032 A 
HETATM   35  N4  UNL     1      13.116  20.443  34.689  1.00  0.00    -0.340 N 
ATOM     36  H4  UNL     1      12.325  20.824  35.209  1.00  0.00     0.167 HD
ENDBRANCH  25  26
ENDBRANCH   1  20
TORSDOF 6
ENDMDL
MODEL 2
REMARK VINA RESULT: -11.981112680      2.082      9.184
REMARK  6 active torsions:
REMARK  status: ('A' for Active; 'I' for Inactive)
REMARK       I    between atoms: C1_2  and  N1_3 
REMARK    1  A    between atoms: C1_2  and  C9_12 
REMARK    2  A    between atoms: N1_3  and  C2_5 
REMARK    3  A    between atoms: C2_5  and  C3_6 
REMARK    4  A    between atoms: C13_16  and  N2_17 
REMARK    5  A    between atoms: N2_17  and  C14_19 
REMARK    6  A    between atoms: C19_24  and  C20_25 
ROOT
HETATM    1  N2  UNL     1      10.076  24.109  33.854  1.00  0.00    -0.355 N 
ATOM      2  H2  UNL     1       9.291  23.464  33.771  1.00  0.00     0.166 HD
ENDROOT
BRANCH   1   3
HETATM    3  C13 UNL     1      11.191  23.873  33.023  1.00  0.00     0.033 A 
HETATM    4  C12 UNL     1      11.331  24.542  31.838  1.00  0.00     0.029 A 
HETATM    5  C11 UNL     1      12.434  24.341  31.000  1.00  0.00     0.003 A 
HETATM    6  C10 UNL     1      13.407  23.419  31.420  1.00  0.00     0.017 A 
HETATM    7  C9  UNL     1      13.285  22.741  32.599  1.00  0.00     0.034 A 
HETATM    8  C27 UNL     1      12.191  22.958  33.402  1.00  0.00     0.046 A 
BRANCH   7   9
HETATM    9  C1  UNL     1      14.292  21.792  33.029  1.00  0.00     0.252 C 
HETATM   10  O1  UNL     1      14.910  21.974  34.147  1.00  0.00    -0.268 OA
HETATM   11  N1  UNL     1      14.691  20.634  32.325  1.00  0.00    -0.353 N 
ATOM     12  H1  UNL     1      14.241  20.434  31.432  1.00  0.00     0.163 HD
BRANCH  11  13
HETATM   13  C2  UNL     1      15.700  19.718  32.798  1.00  0.00     0.161 C 
BRANCH  13  14
HETATM   14  C3  UNL     1      15.137  18.528  33.470  1.00  0.00    -0.041 A 
HETATM   15  C4  UNL     1      13.991  18.604  34.225  1.00  0.00     0.009 A 
HETATM   16  C5  UNL     1      13.523  17.450  34.825  1.00  0.00     0.001 A 
HETATM   17  C6  UNL     1      14.163  16.229  34.692  1.00  0.00     0.000 A 
HETATM   18  C7  UNL     1      15.315  16.155  33.931  1.00  0.00     0.001 A 
HETATM   19  C8  UNL     1      15.770  17.314  33.338  1.00  0.00     0.009 A 
ENDBRANCH  13  14
ENDBRANCH  11  13
ENDBRANCH   7   9
ENDBRANCH   1   3
BRANCH   1  20
HETATM   20  C14 UNL     1       9.950  25.152  34.787  1.00  0.00     0.046 A 
HETATM   21  C15 UNL     1      11.087  25.788  35.322  1.00  0.00     0.030 A 
HETATM   22  C16 UNL     1      11.008  26.706  36.353  1.00  0.00     0.002 A 
HETATM   23  C17 UNL     1       9.772  26.999  36.867  1.00  0.00     0.001 A 
HETATM   24  C18 UNL     1       8.642  26.411  36.383  1.00  0.00     0.017 A 
HETATM   25  C19 UNL     1       8.739  25.477  35.327  1.00  0.00     0.035 A 
BRANCH  25  26
HETATM   26  C20 UNL     1       7.476  25.022  34.792  1.00  0.00     0.118 A 
HETATM   27  N3  UNL     1       6.533  24.381  35.565  1.00  0.00    -0.340 N 
HETATM   28  C21 UNL     1       5.477  24.020  34.838  1.00  0.00     0.060 A 
ATOM     29  H3  UNL     1       6.631  24.206  36.566  1.00  0.00     0.167 HD
HETATM   30  C22 UNL     1       4.293  23.365  35.133  1.00  0.00     0.032 A 
HETATM   31  C26 UNL     1       5.722  24.431  33.549  1.00  0.00     0.060 A 
HETATM   32  C23 UNL     1       3.341  23.109  34.170  1.00  0.00     0.002 A 
HETATM   33  C24 UNL     1       3.607  23.532  32.872  1.00  0.00     0.002 A 
HETATM   34  C25 UNL     1       4.786  24.184  32.576  1.00  0.00     0.032 A 
HETATM   35  N4  UNL     1       6.949  25.034  33.579  1.00  0.00    -0.340 N 
ATOM     36  H4  UNL     1       7.404  25.443  32.763  1.00  0.00     0.167 HD
ENDBRANCH  25  26
ENDBRANCH   1  20
TORSDOF 6
ENDMDL
MODEL 3
REMARK VINA RESULT: -11.962217148      0.231      1.015
REMARK  6 active torsions:
REMARK  status: ('A' for Active; 'I' for Inactive)
REMARK       I    between atoms: C1_2  and  N1_3 
REMARK    1  A    between atoms: C1_2  and  C9_12 
REMARK    2  A    between atoms: N1_3  and  C2_5 
REMARK    3  A    between atoms: C2_5  and  C3_6 
REMARK    4  A    between atoms: C13_16  and  N2_17 
REMARK    5  A    between atoms: N2_17  and  C14_19 
REMARK    6  A    between atoms: C19_24  and  C20_25 
ROOT
HETATM    1  N2  UNL     1      12.317  23.265  34.824  1.00  0.00    -0.355 N 
ATOM      2  H2  UNL     1      12.534  22.409  35.334  1.00  0.00     0.166 HD
ENDROOT
BRANCH   1   3
HETATM    3  C13 UNL     1      11.348  24.120  35.388  1.00  0.00     0.033 A 
HETATM    4  C12 UNL     1      11.523  24.642  36.640  1.00  0.00     0.029 A 
HETATM    5  C11 UNL     1      10.587  25.507  37.219  1.00  0.00     0.003 A 
HETATM    6  C10 UNL     1       9.446  25.825  36.465  1.00  0.00     0.017 A 
HETATM    7  C9  UNL     1       9.252  25.313  35.214  1.00  0.00     0.034 A 
HETATM    8  C27 UNL     1      10.188  24.467  34.670  1.00  0.00     0.046 A 
BRANCH   7   9
HETATM    9  C1  UNL     1       8.075  25.646  34.438  1.00  0.00     0.252 C 
HETATM   10  O1  UNL     1       7.173  26.420  34.940  1.00  0.00    -0.268 OA
HETATM   11  N1  UNL     1       7.790  25.193  33.130  1.00  0.00    -0.353 N 
ATOM     12  H1  UNL     1       8.464  24.576  32.678  1.00  0.00     0.163 HD
BRANCH  11  13
HETATM   13  C2  UNL     1       6.601  25.555  32.399  1.00  0.00     0.161 C 
BRANCH  13  14
HETATM   14  C3  UNL     1       5.381  24.893  32.907  1.00  0.00    -0.041 A 
HETATM   15  C4  UNL     1       5.349  23.542  33.157  1.00  0.00     0.009 A 
HETATM   16  C5  UNL     1       4.173  22.990  33.630  1.00  0.00     0.001 A 
HETATM   17  C6  UNL     1       3.035  23.747  33.860  1.00  0.00     0.000 A 
HETATM   18  C7  UNL     1       3.071  25.105  33.609  1.00  0.00     0.001 A 
HETATM   19  C8  UNL     1       4.251  25.642  33.137  1.00  0.00     0.009 A 
ENDBRANCH  13  14
ENDBRANCH  11  13
ENDBRANCH   7   9
ENDBRANCH   1   3
BRANCH   1  20
HETATM   20  C14 UNL     1      13.011  23.486  33.622  1.00  0.00     0.046 A 
HETATM   21  C15 UNL     1      12.978  24.742  32.986  1.00  0.00     0.030 A 
HETATM   22  C16 UNL     1      13.515  24.952  31.729  1.00  0.00     0.002 A 
HETATM   23  C17 UNL     1      14.099  23.891  31.088  1.00  0.00     0.001 A 
HETATM   24  C18 UNL     1      14.157  22.657  31.662  1.00  0.00     0.017 A 
HETATM   25  C19 UNL     1      13.606  22.458  32.948  1.00  0.00     0.035 A 
BRANCH  25  26
HETATM   26  C20 UNL     1      13.846  21.156  33.525  1.00  0.00     0.118 A 
HETATM   27  N3  UNL     1      13.054  20.631  34.523  1.00  0.00    -0.340 N 
HETATM   28  C21 UNL     1      13.502  19.441  34.921  1.00  0.00     0.060 A 
ATOM     29  H3  UNL     1      12.230  21.094  34.907  1.00  0.00     0.167 HD
HETATM   30  C22 UNL     1      13.074  18.527  35.869  1.00  0.00     0.032 A 
HETATM   31  C26 UNL     1      14.620  19.167  34.169  1.00  0.00     0.060 A 
HETATM   32  C23 UNL     1      13.736  17.339  36.088  1.00  0.00     0.002 A 
HETATM   33  C24 UNL     1      14.866  17.079  35.318  1.00  0.00     0.002 A 
HETATM   34  C25 UNL     1      15.293  17.987  34.373  1.00  0.00     0.032 A 
HETATM   35  N4  UNL     1      14.783  20.241  33.338  1.00  0.00    -0.340 N 
ATOM     36  H4  UNL     1      15.536  20.326  32.656  1.00  0.00     0.167 HD
ENDBRANCH  25  26
ENDBRANCH   1  20
TORSDOF 6
ENDMDL
MODEL 4
REMARK VINA RESULT: -11.893095673      1.963      9.023
REMARK  6 active torsions:
REMARK  status: ('A' for Active; 'I' for Inactive)
REMARK       I    between atoms: C1_2  and  N1_3 
REMARK    1  A    between atoms: C1_2  and  C9_12 
REMARK    2  A    between atoms: N1_3  and  C2_5 
REMARK    3  A    between atoms: C2_5  and  C3_6 
REMARK    4  A    between atoms: C13_16  and  N2_17 
REMARK    5  A    between atoms: N2_17  and  C14_19 
REMARK    6  A    between atoms: C19_24  and  C20_25 
ROOT
HETATM    1  N2  UNL     1      10.007  25.346  32.699  1.00  0.00    -0.355 N 
ATOM      2  H2  UNL     1       9.285  25.408  31.982  1.00  0.00     0.166 HD
ENDROOT
BRANCH   1   3
HETATM    3  C13 UNL     1      11.012  24.374  32.515  1.00  0.00     0.033 A 
HETATM    4  C12 UNL     1      11.950  24.517  31.530  1.00  0.00     0.029 A 
HETATM    5  C11 UNL     1      12.969  23.578  31.334  1.00  0.00     0.003 A 
HETATM    6  C10 UNL     1      12.997  22.466  32.192  1.00  0.00     0.017 A 
HETATM    7  C9  UNL     1      12.070  22.303  33.181  1.00  0.00     0.034 A 
HETATM    8  C27 UNL     1      11.081  23.242  33.350  1.00  0.00     0.046 A 
BRANCH   7   9
HETATM    9  C1  UNL     1      12.105  21.156  34.065  1.00  0.00     0.252 C 
HETATM   10  O1  UNL     1      11.002  20.616  34.460  1.00  0.00    -0.268 OA
HETATM   11  N1  UNL     1      13.270  20.533  34.567  1.00  0.00    -0.353 N 
ATOM     12  H1  UNL     1      14.175  20.915  34.293  1.00  0.00     0.163 HD
BRANCH  11  13
HETATM   13  C2  UNL     1      13.251  19.390  35.445  1.00  0.00     0.161 C 
BRANCH  13  14
HETATM   14  C3  UNL     1      14.018  18.240  34.920  1.00  0.00    -0.041 A 
HETATM   15  C4  UNL     1      14.011  17.022  35.558  1.00  0.00     0.009 A 
HETATM   16  C5  UNL     1      14.752  15.991  35.010  1.00  0.00     0.001 A 
HETATM   17  C6  UNL     1      15.494  16.142  33.850  1.00  0.00     0.000 A 
HETATM   18  C7  UNL     1      15.497  17.367  33.211  1.00  0.00     0.001 A 
HETATM   19  C8  UNL     1      14.754  18.387  33.768  1.00  0.00     0.009 A 
ENDBRANCH  13  14
ENDBRANCH  11  13
ENDBRANCH   7   9
ENDBRANCH   1   3
BRANCH   1  20
HETATM   20  C14 UNL     1       9.912  26.238  33.781  1.00  0.00     0.046 A 
HETATM   21  C15 UNL     1      10.994  27.066  34.135  1.00  0.00     0.030 A 
HETATM   22  C16 UNL     1      10.995  27.838  35.282  1.00  0.00     0.002 A 
HETATM   23  C17 UNL     1       9.895  27.786  36.099  1.00  0.00     0.001 A 
HETATM   24  C18 UNL     1       8.823  27.002  35.799  1.00  0.00     0.017 A 
HETATM   25  C19 UNL     1       8.836  26.220  34.621  1.00  0.00     0.035 A 
BRANCH  25  26
HETATM   26  C20 UNL     1       7.599  25.538  34.322  1.00  0.00     0.118 A 
HETATM   27  N3  UNL     1       6.873  24.867  35.282  1.00  0.00    -0.340 N 
HETATM   28  C21 UNL     1       5.798  24.283  34.754  1.00  0.00     0.060 A 
ATOM     29  H3  UNL     1       7.126  24.823  36.269  1.00  0.00     0.167 HD
HETATM   30  C22 UNL     1       4.776  23.510  35.280  1.00  0.00     0.032 A 
HETATM   31  C26 UNL     1       5.807  24.573  33.410  1.00  0.00     0.060 A 
HETATM   32  C23 UNL     1       3.756  23.017  34.495  1.00  0.00     0.002 A 
HETATM   33  C24 UNL     1       3.783  23.321  33.138  1.00  0.00     0.002 A 
HETATM   34  C25 UNL     1       4.800  24.090  32.613  1.00  0.00     0.032 A 
HETATM   35  N4  UNL     1       6.922  25.338  33.203  1.00  0.00    -0.340 N 
ATOM     36  H4  UNL     1       7.198  25.710  32.294  1.00  0.00     0.167 HD
ENDBRANCH  25  26
ENDBRANCH   1  20
TORSDOF 6
ENDMDL
MODEL 5
REMARK VINA RESULT: -11.166369324      2.451      9.375
REMARK  6 active torsions:
REMARK  status: ('A' for Active; 'I' for Inactive)
REMARK       I    between atoms: C1_2  and  N1_3 
REMARK    1  A    between atoms: C1_2  and  C9_12 
REMARK    2  A    between atoms: N1_3  and  C2_5 
REMARK    3  A    between atoms: C2_5  and  C3_6 
REMARK    4  A    between atoms: C13_16  and  N2_17 
REMARK    5  A    between atoms: N2_17  and  C14_19 
REMARK    6  A    between atoms: C19_24  and  C20_25 
ROOT
HETATM    1  N2  UNL     1      11.000  22.971  34.360  1.00  0.00    -0.355 N 
ATOM      2  H2  UNL     1      10.156  22.399  34.361  1.00  0.00     0.166 HD
ENDROOT
BRANCH   1   3
HETATM    3  C13 UNL     1      12.036  22.584  33.486  1.00  0.00     0.033 A 
HETATM    4  C12 UNL     1      12.224  23.232  32.296  1.00  0.00     0.029 A 
HETATM    5  C11 UNL     1      13.254  22.881  31.416  1.00  0.00     0.003 A 
HETATM    6  C10 UNL     1      14.102  21.828  31.798  1.00  0.00     0.017 A 
HETATM    7  C9  UNL     1      13.931  21.169  32.982  1.00  0.00     0.034 A 
HETATM    8  C27 UNL     1      12.911  21.535  33.826  1.00  0.00     0.046 A 
BRANCH   7   9
HETATM    9  C1  UNL     1      14.809  20.085  33.372  1.00  0.00     0.252 C 
HETATM   10  O1  UNL     1      16.020  20.048  32.931  1.00  0.00    -0.268 OA
HETATM   11  N1  UNL     1      14.468  19.010  34.224  1.00  0.00    -0.353 N 
ATOM     12  H1  UNL     1      13.522  18.980  34.606  1.00  0.00     0.163 HD
BRANCH  11  13
HETATM   13  C2  UNL     1      15.380  17.953  34.584  1.00  0.00     0.161 C 
BRANCH  13  14
HETATM   14  C3  UNL     1      14.782  16.605  34.477  1.00  0.00    -0.041 A 
HETATM   15  C4  UNL     1      13.421  16.421  34.493  1.00  0.00     0.009 A 
HETATM   16  C5  UNL     1      12.933  15.131  34.390  1.00  0.00     0.001 A 
HETATM   17  C6  UNL     1      13.763  14.028  34.269  1.00  0.00     0.000 A 
HETATM   18  C7  UNL     1      15.131  14.218  34.252  1.00  0.00     0.001 A 
HETATM   19  C8  UNL     1      15.604  15.509  34.356  1.00  0.00     0.009 A 
ENDBRANCH  13  14
ENDBRANCH  11  13
ENDBRANCH   7   9
ENDBRANCH   1   3
BRANCH   1  20
HETATM   20  C14 UNL     1      11.024  24.075  35.230  1.00  0.00     0.046 A 
HETATM   21  C15 UNL     1      12.192  24.412  35.941  1.00  0.00     0.030 A 
HETATM   22  C16 UNL     1      12.210  25.390  36.919  1.00  0.00     0.002 A 
HETATM   23  C17 UNL     1      11.041  26.048  37.198  1.00  0.00     0.001 A 
HETATM   24  C18 UNL     1       9.885  25.760  36.537  1.00  0.00     0.017 A 
HETATM   25  C19 UNL     1       9.884  24.759  35.538  1.00  0.00     0.035 A 
BRANCH  25  26
HETATM   26  C20 UNL     1       8.649  24.631  34.799  1.00  0.00     0.118 A 
HETATM   27  N3  UNL     1       7.428  24.478  35.420  1.00  0.00    -0.340 N 
HETATM   28  C21 UNL     1       6.448  24.335  34.529  1.00  0.00     0.060 A 
ATOM     29  H3  UNL     1       7.293  24.475  36.431  1.00  0.00     0.167 HD
HETATM   30  C22 UNL     1       5.079  24.155  34.636  1.00  0.00     0.032 A 
HETATM   31  C26 UNL     1       7.030  24.395  33.285  1.00  0.00     0.060 A 
HETATM   32  C23 UNL     1       4.271  24.031  33.527  1.00  0.00     0.002 A 
HETATM   33  C24 UNL     1       4.878  24.093  32.277  1.00  0.00     0.002 A 
HETATM   34  C25 UNL     1       6.240  24.274  32.168  1.00  0.00     0.032 A 
HETATM   35  N4  UNL     1       8.367  24.576  33.508  1.00  0.00    -0.340 N 
ATOM     36  H4  UNL     1       9.064  24.658  32.768  1.00  0.00     0.167 HD
ENDBRANCH  25  26
ENDBRANCH   1  20
TORSDOF 6
ENDMDL
