MODEL 1
REMARK VINA RESULT: -11.577540314      0.000      0.000
REMARK  6 active torsions:
REMARK  status: ('A' for Active; 'I' for Inactive)
REMARK       I    between atoms: C1_2  and  N1_3 
REMARK       I    between atoms: C1_2  and  N2_13 
REMARK    1  A    between atoms: N1_3  and  C2_5 
REMARK    2  A    between atoms: C2_5  and  C3_7 
REMARK    3  A    between atoms: N2_13  and  C9_15 
REMARK    4  A    between atoms: C12_18  and  O2_19 
REMARK    5  A    between atoms: O2_19  and  C13_20 
REMARK    6  A    between atoms: C15_22  and  C16_23 
ROOT
HETATM    1  C9  UNL     1      12.427  22.604  33.640  1.00  0.00     0.036 A 
HETATM    2  C10 UNL     1      13.369  22.812  32.662  1.00  0.00     0.032 A 
HETATM    3  C11 UNL     1      14.343  21.853  32.353  1.00  0.00     0.039 A 
HETATM    4  C12 UNL     1      14.400  20.656  33.014  1.00  0.00     0.078 A 
HETATM    5  C22 UNL     1      13.457  20.446  33.993  1.00  0.00     0.039 A 
HETATM    6  C23 UNL     1      12.503  21.371  34.305  1.00  0.00     0.032 A 
ENDROOT
BRANCH   1   7
HETATM    7  N2  UNL     1      11.432  23.533  34.007  1.00  0.00    -0.309 N 
HETATM    8  C1  UNL     1      10.266  23.890  33.313  1.00  0.00     0.325 C 
HETATM    9  O1  UNL     1       9.924  23.414  32.206  1.00  0.00    -0.247 OA
HETATM   10  N1  UNL     1       9.396  24.852  33.884  1.00  0.00    -0.299 N 
ATOM     11  H1  UNL     1       9.639  25.264  34.786  1.00  0.00     0.171 HD
ATOM     12  H2  UNL     1      11.580  24.009  34.897  1.00  0.00     0.170 HD
BRANCH  10  13
HETATM   13  C2  UNL     1       8.216  25.256  33.250  1.00  0.00     0.114 C 
HETATM   14  S1  UNL     1       8.216  26.410  32.115  1.00  0.00    -0.059 SA
BRANCH  13  15
HETATM   15  C3  UNL     1       6.944  24.614  33.627  1.00  0.00     0.002 A 
HETATM   16  C4  UNL     1       6.157  24.078  32.623  1.00  0.00     0.014 A 
HETATM   17  C5  UNL     1       4.958  23.464  32.905  1.00  0.00     0.001 A 
HETATM   18  C6  UNL     1       4.519  23.375  34.217  1.00  0.00     0.000 A 
HETATM   19  C7  UNL     1       5.300  23.908  35.225  1.00  0.00     0.001 A 
HETATM   20  C8  UNL     1       6.510  24.525  34.918  1.00  0.00     0.014 A 
ENDBRANCH  13  15
ENDBRANCH  10  13
ENDBRANCH   1   7
BRANCH   4  21
HETATM   21  O2  UNL     1      15.349  19.719  32.714  1.00  0.00    -0.293 OA
BRANCH  21  22
HETATM   22  C13 UNL     1      15.533  18.543  33.427  1.00  0.00     0.164 A 
HETATM   23  C14 UNL     1      14.863  17.347  33.257  1.00  0.00     0.089 A 
HETATM   24  C15 UNL     1      15.328  16.410  34.157  1.00  0.00     0.062 A 
HETATM   25  N3  UNL     1      16.281  17.056  34.862  1.00  0.00    -0.298 N 
HETATM   26  N4  UNL     1      16.404  18.304  34.439  1.00  0.00    -0.279 N 
ATOM     27  H3  UNL     1      16.829  16.641  35.616  1.00  0.00     0.187 HD
ATOM     28  H4  UNL     1      17.060  18.987  34.820  1.00  0.00     0.189 HD
BRANCH  24  29
HETATM   29  C16 UNL     1      14.906  15.032  34.327  1.00  0.00    -0.008 A 
HETATM   30  C17 UNL     1      13.598  14.713  34.603  1.00  0.00     0.014 A 
HETATM   31  C18 UNL     1      13.189  13.389  34.765  1.00  0.00     0.001 A 
HETATM   32  C19 UNL     1      14.093  12.361  34.654  1.00  0.00     0.000 A 
HETATM   33  C20 UNL     1      15.404  12.669  34.379  1.00  0.00     0.001 A 
HETATM   34  C21 UNL     1      15.790  13.988  34.221  1.00  0.00     0.014 A 
ENDBRANCH  24  29
ENDBRANCH  21  22
ENDBRANCH   4  21
TORSDOF 6
ENDMDL
MODEL 2
REMARK VINA RESULT: -11.552027748      0.091      1.221
REMARK  6 active torsions:
REMARK  status: ('A' for Active; 'I' for Inactive)
REMARK       I    between atoms: C1_2  and  N1_3 
REMARK       I    between atoms: C1_2  and  N2_13 
REMARK    1  A    between atoms: N1_3  and  C2_5 
REMARK    2  A    between atoms: C2_5  and  C3_7 
REMARK    3  A    between atoms: N2_13  and  C9_15 
REMARK    4  A    between atoms: C12_18  and  O2_19 
REMARK    5  A    between atoms: O2_19  and  C13_20 
REMARK    6  A    between atoms: C15_22  and  C16_23 
ROOT
HETATM    1  C9  UNL     1      12.376  22.580  33.761  1.00  0.00     0.036 A 
HETATM    2  C10 UNL     1      12.473  21.377  34.416  1.00  0.00     0.032 A 
HETATM    3  C11 UNL     1      13.447  20.426  34.082  1.00  0.00     0.039 A 
HETATM    4  C12 UNL     1      14.353  20.654  33.082  1.00  0.00     0.078 A 
HETATM    5  C22 UNL     1      14.257  21.859  32.425  1.00  0.00     0.039 A 
HETATM    6  C23 UNL     1      13.313  22.795  32.739  1.00  0.00     0.032 A 
ENDROOT
BRANCH   1   7
HETATM    7  N2  UNL     1      11.413  23.571  34.040  1.00  0.00    -0.309 N 
HETATM    8  C1  UNL     1      10.244  23.883  33.328  1.00  0.00     0.325 C 
HETATM    9  O1  UNL     1       9.870  23.300  32.284  1.00  0.00    -0.247 OA
HETATM   10  N1  UNL     1       9.410  24.926  33.803  1.00  0.00    -0.299 N 
ATOM     11  H1  UNL     1       9.679  25.427  34.651  1.00  0.00     0.171 HD
ATOM     12  H2  UNL     1      11.588  24.136  34.870  1.00  0.00     0.170 HD
BRANCH  10  13
HETATM   13  C2  UNL     1       8.230  25.292  33.146  1.00  0.00     0.114 C 
HETATM   14  S1  UNL     1       8.219  26.429  31.994  1.00  0.00    -0.059 SA
BRANCH  13  15
HETATM   15  C3  UNL     1       6.969  24.625  33.513  1.00  0.00     0.002 A 
HETATM   16  C4  UNL     1       6.615  24.582  34.851  1.00  0.00     0.014 A 
HETATM   17  C5  UNL     1       5.451  23.975  35.264  1.00  0.00     0.001 A 
HETATM   18  C6  UNL     1       4.607  23.392  34.332  1.00  0.00     0.000 A 
HETATM   19  C7  UNL     1       4.953  23.431  32.994  1.00  0.00     0.001 A 
HETATM   20  C8  UNL     1       6.136  24.051  32.597  1.00  0.00     0.014 A 
ENDBRANCH  13  15
ENDBRANCH  10  13
ENDBRANCH   1   7
BRANCH   4  21
HETATM   21  O2  UNL     1      15.303  19.728  32.754  1.00  0.00    -0.293 OA
BRANCH  21  22
HETATM   22  C13 UNL     1      15.511  18.547  33.452  1.00  0.00     0.164 A 
HETATM   23  C14 UNL     1      14.847  17.347  33.284  1.00  0.00     0.089 A 
HETATM   24  C15 UNL     1      15.338  16.406  34.166  1.00  0.00     0.062 A 
HETATM   25  N3  UNL     1      16.299  17.053  34.858  1.00  0.00    -0.298 N 
HETATM   26  N4  UNL     1      16.404  18.305  34.445  1.00  0.00    -0.279 N 
ATOM     27  H3  UNL     1      16.865  16.635  35.597  1.00  0.00     0.187 HD
ATOM     28  H4  UNL     1      17.061  18.990  34.819  1.00  0.00     0.189 HD
BRANCH  24  29
HETATM   29  C16 UNL     1      14.930  15.023  34.330  1.00  0.00    -0.008 A 
HETATM   30  C17 UNL     1      13.629  14.691  34.624  1.00  0.00     0.014 A 
HETATM   31  C18 UNL     1      13.234  13.362  34.781  1.00  0.00     0.001 A 
HETATM   32  C19 UNL     1      14.145  12.342  34.647  1.00  0.00     0.000 A 
HETATM   33  C20 UNL     1      15.449  12.664  34.353  1.00  0.00     0.001 A 
HETATM   34  C21 UNL     1      15.821  13.987  34.201  1.00  0.00     0.014 A 
ENDBRANCH  24  29
ENDBRANCH  21  22
ENDBRANCH   4  21
TORSDOF 6
ENDMDL
MODEL 3
REMARK VINA RESULT: -11.152902879      0.877      1.330
REMARK  6 active torsions:
REMARK  status: ('A' for Active; 'I' for Inactive)
REMARK       I    between atoms: C1_2  and  N1_3 
REMARK       I    between atoms: C1_2  and  N2_13 
REMARK    1  A    between atoms: N1_3  and  C2_5 
REMARK    2  A    between atoms: C2_5  and  C3_7 
REMARK    3  A    between atoms: N2_13  and  C9_15 
REMARK    4  A    between atoms: C12_18  and  O2_19 
REMARK    5  A    between atoms: O2_19  and  C13_20 
REMARK    6  A    between atoms: C15_22  and  C16_23 
ROOT
HETATM    1  C9  UNL     1      11.898  23.326  33.123  1.00  0.00     0.036 A 
HETATM    2  C10 UNL     1      12.637  23.395  31.968  1.00  0.00     0.032 A 
HETATM    3  C11 UNL     1      13.698  22.515  31.711  1.00  0.00     0.039 A 
HETATM    4  C12 UNL     1      14.047  21.540  32.605  1.00  0.00     0.078 A 
HETATM    5  C22 UNL     1      13.307  21.469  33.763  1.00  0.00     0.039 A 
HETATM    6  C23 UNL     1      12.272  22.319  34.026  1.00  0.00     0.032 A 
ENDROOT
BRANCH   1   7
HETATM    7  N2  UNL     1      10.830  24.188  33.446  1.00  0.00    -0.309 N 
HETATM    8  C1  UNL     1       9.511  24.169  32.967  1.00  0.00     0.325 C 
HETATM    9  O1  UNL     1       9.069  23.343  32.136  1.00  0.00    -0.247 OA
HETATM   10  N1  UNL     1       8.596  25.140  33.443  1.00  0.00    -0.299 N 
ATOM     11  H1  UNL     1       8.916  25.831  34.121  1.00  0.00     0.171 HD
ATOM     12  H2  UNL     1      11.046  24.924  34.118  1.00  0.00     0.170 HD
BRANCH  10  13
HETATM   13  C2  UNL     1       7.265  25.181  33.011  1.00  0.00     0.114 C 
HETATM   14  S1  UNL     1       6.828  26.012  31.692  1.00  0.00    -0.059 SA
BRANCH  13  15
HETATM   15  C3  UNL     1       6.240  24.451  33.777  1.00  0.00     0.002 A 
HETATM   16  C4  UNL     1       5.302  23.711  33.079  1.00  0.00     0.014 A 
HETATM   17  C5  UNL     1       4.317  23.006  33.731  1.00  0.00     0.001 A 
HETATM   18  C6  UNL     1       4.253  23.027  35.116  1.00  0.00     0.000 A 
HETATM   19  C7  UNL     1       5.186  23.764  35.820  1.00  0.00     0.001 A 
HETATM   20  C8  UNL     1       6.175  24.471  35.141  1.00  0.00     0.014 A 
ENDBRANCH  13  15
ENDBRANCH  10  13
ENDBRANCH   1   7
BRANCH   4  21
HETATM   21  O2  UNL     1      15.081  20.681  32.357  1.00  0.00    -0.293 OA
BRANCH  21  22
HETATM   22  C13 UNL     1      15.317  19.519  33.078  1.00  0.00     0.164 A 
HETATM   23  C14 UNL     1      14.656  18.311  32.959  1.00  0.00     0.089 A 
HETATM   24  C15 UNL     1      15.178  17.395  33.850  1.00  0.00     0.062 A 
HETATM   25  N3  UNL     1      16.155  18.065  34.497  1.00  0.00    -0.298 N 
HETATM   26  N4  UNL     1      16.240  19.307  34.050  1.00  0.00    -0.279 N 
ATOM     27  H3  UNL     1      16.745  17.669  35.229  1.00  0.00     0.187 HD
ATOM     28  H4  UNL     1      16.904  20.004  34.387  1.00  0.00     0.189 HD
BRANCH  24  29
HETATM   29  C16 UNL     1      14.783  16.015  34.060  1.00  0.00    -0.008 A 
HETATM   30  C17 UNL     1      15.712  15.003  34.102  1.00  0.00     0.014 A 
HETATM   31  C18 UNL     1      15.336  13.675  34.306  1.00  0.00     0.001 A 
HETATM   32  C19 UNL     1      14.013  13.342  34.470  1.00  0.00     0.000 A 
HETATM   33  C20 UNL     1      13.075  14.346  34.430  1.00  0.00     0.001 A 
HETATM   34  C21 UNL     1      13.468  15.657  34.227  1.00  0.00     0.014 A 
ENDBRANCH  24  29
ENDBRANCH  21  22
ENDBRANCH   4  21
TORSDOF 6
ENDMDL
MODEL 4
REMARK VINA RESULT: -11.054554823      1.008      1.497
REMARK  6 active torsions:
REMARK  status: ('A' for Active; 'I' for Inactive)
REMARK       I    between atoms: C1_2  and  N1_3 
REMARK       I    between atoms: C1_2  and  N2_13 
REMARK    1  A    between atoms: N1_3  and  C2_5 
REMARK    2  A    between atoms: C2_5  and  C3_7 
REMARK    3  A    between atoms: N2_13  and  C9_15 
REMARK    4  A    between atoms: C12_18  and  O2_19 
REMARK    5  A    between atoms: O2_19  and  C13_20 
REMARK    6  A    between atoms: C15_22  and  C16_23 
ROOT
HETATM    1  C9  UNL     1      11.712  23.476  33.255  1.00  0.00     0.036 A 
HETATM    2  C10 UNL     1      12.247  22.611  34.177  1.00  0.00     0.032 A 
HETATM    3  C11 UNL     1      13.333  21.778  33.873  1.00  0.00     0.039 A 
HETATM    4  C12 UNL     1      13.915  21.789  32.634  1.00  0.00     0.078 A 
HETATM    5  C22 UNL     1      13.379  22.655  31.709  1.00  0.00     0.039 A 
HETATM    6  C23 UNL     1      12.323  23.472  31.991  1.00  0.00     0.032 A 
ENDROOT
BRANCH   1   7
HETATM    7  N2  UNL     1      10.615  24.327  33.494  1.00  0.00    -0.309 N 
HETATM    8  C1  UNL     1       9.303  24.227  33.006  1.00  0.00     0.325 C 
HETATM    9  O1  UNL     1       8.897  23.320  32.241  1.00  0.00    -0.247 OA
HETATM   10  N1  UNL     1       8.352  25.204  33.389  1.00  0.00    -0.299 N 
ATOM     11  H1  UNL     1       8.642  25.960  34.011  1.00  0.00     0.171 HD
ATOM     12  H2  UNL     1      10.799  25.123  34.104  1.00  0.00     0.170 HD
BRANCH  10  13
HETATM   13  C2  UNL     1       7.026  25.167  32.942  1.00  0.00     0.114 C 
HETATM   14  S1  UNL     1       6.570  25.917  31.583  1.00  0.00    -0.059 SA
BRANCH  13  15
HETATM   15  C3  UNL     1       6.025  24.428  33.730  1.00  0.00     0.002 A 
HETATM   16  C4  UNL     1       5.086  23.669  33.053  1.00  0.00     0.014 A 
HETATM   17  C5  UNL     1       4.123  22.953  33.726  1.00  0.00     0.001 A 
HETATM   18  C6  UNL     1       4.081  22.985  35.112  1.00  0.00     0.000 A 
HETATM   19  C7  UNL     1       5.015  23.740  35.795  1.00  0.00     0.001 A 
HETATM   20  C8  UNL     1       5.982  24.457  35.094  1.00  0.00     0.014 A 
ENDBRANCH  13  15
ENDBRANCH  10  13
ENDBRANCH   1   7
BRANCH   4  21
HETATM   21  O2  UNL     1      14.973  20.978  32.335  1.00  0.00    -0.293 OA
BRANCH  21  22
HETATM   22  C13 UNL     1      15.258  19.794  33.000  1.00  0.00     0.164 A 
HETATM   23  C14 UNL     1      14.545  18.612  32.948  1.00  0.00     0.089 A 
HETATM   24  C15 UNL     1      15.144  17.661  33.749  1.00  0.00     0.062 A 
HETATM   25  N3  UNL     1      16.219  18.285  34.276  1.00  0.00    -0.298 N 
HETATM   26  N4  UNL     1      16.290  19.532  33.842  1.00  0.00    -0.279 N 
ATOM     27  H3  UNL     1      16.883  17.855  34.920  1.00  0.00     0.187 HD
ATOM     28  H4  UNL     1      17.015  20.201  34.103  1.00  0.00     0.189 HD
BRANCH  24  29
HETATM   29  C16 UNL     1      14.732  16.290  33.986  1.00  0.00    -0.008 A 
HETATM   30  C17 UNL     1      13.404  15.948  34.080  1.00  0.00     0.014 A 
HETATM   31  C18 UNL     1      13.005  14.630  34.307  1.00  0.00     0.001 A 
HETATM   32  C19 UNL     1      13.939  13.632  34.445  1.00  0.00     0.000 A 
HETATM   33  C20 UNL     1      15.270  13.963  34.353  1.00  0.00     0.001 A 
HETATM   34  C21 UNL     1      15.646  15.275  34.127  1.00  0.00     0.014 A 
ENDBRANCH  24  29
ENDBRANCH  21  22
ENDBRANCH   4  21
TORSDOF 6
ENDMDL
MODEL 5
REMARK VINA RESULT: -10.924993930      1.492      2.075
REMARK  6 active torsions:
REMARK  status: ('A' for Active; 'I' for Inactive)
REMARK       I    between atoms: C1_2  and  N1_3 
REMARK       I    between atoms: C1_2  and  N2_13 
REMARK    1  A    between atoms: N1_3  and  C2_5 
REMARK    2  A    between atoms: C2_5  and  C3_7 
REMARK    3  A    between atoms: N2_13  and  C9_15 
REMARK    4  A    between atoms: C12_18  and  O2_19 
REMARK    5  A    between atoms: O2_19  and  C13_20 
REMARK    6  A    between atoms: C15_22  and  C16_23 
ROOT
HETATM    1  C9  UNL     1      13.436  23.308  33.446  1.00  0.00     0.036 A 
HETATM    2  C10 UNL     1      13.782  22.349  34.367  1.00  0.00     0.032 A 
HETATM    3  C11 UNL     1      14.436  21.165  33.996  1.00  0.00     0.039 A 
HETATM    4  C12 UNL     1      14.763  20.909  32.692  1.00  0.00     0.078 A 
HETATM    5  C22 UNL     1      14.417  21.869  31.770  1.00  0.00     0.039 A 
HETATM    6  C23 UNL     1      13.780  23.026  32.115  1.00  0.00     0.032 A 
ENDROOT
BRANCH   1   7
HETATM    7  N2  UNL     1      12.767  24.510  33.752  1.00  0.00    -0.309 N 
HETATM    8  C1  UNL     1      11.457  24.690  34.221  1.00  0.00     0.325 C 
HETATM    9  O1  UNL     1      10.647  23.760  34.442  1.00  0.00    -0.247 OA
HETATM   10  N1  UNL     1      10.993  26.006  34.470  1.00  0.00    -0.299 N 
ATOM     11  H1  UNL     1      11.622  26.792  34.303  1.00  0.00     0.171 HD
ATOM     12  H2  UNL     1      13.308  25.363  33.615  1.00  0.00     0.170 HD
BRANCH  10  13
HETATM   13  C2  UNL     1       9.699  26.261  34.939  1.00  0.00     0.114 C 
HETATM   14  S1  UNL     1       9.435  26.823  36.433  1.00  0.00    -0.059 SA
BRANCH  13  15
HETATM   15  C3  UNL     1       8.552  26.011  34.048  1.00  0.00     0.002 A 
HETATM   16  C4  UNL     1       7.386  25.514  34.604  1.00  0.00     0.014 A 
HETATM   17  C5  UNL     1       6.277  25.258  33.831  1.00  0.00     0.001 A 
HETATM   18  C6  UNL     1       6.316  25.499  32.466  1.00  0.00     0.000 A 
HETATM   19  C7  UNL     1       7.477  25.995  31.903  1.00  0.00     0.001 A 
HETATM   20  C8  UNL     1       8.588  26.248  32.704  1.00  0.00     0.014 A 
ENDBRANCH  13  15
ENDBRANCH  10  13
ENDBRANCH   1   7
BRANCH   4  21
HETATM   21  O2  UNL     1      15.400  19.756  32.329  1.00  0.00    -0.293 OA
BRANCH  21  22
HETATM   22  C13 UNL     1      15.524  18.644  33.150  1.00  0.00     0.164 A 
HETATM   23  C14 UNL     1      14.896  17.422  33.005  1.00  0.00     0.089 A 
HETATM   24  C15 UNL     1      15.274  16.570  34.022  1.00  0.00     0.062 A 
HETATM   25  N3  UNL     1      16.132  17.293  34.773  1.00  0.00    -0.298 N 
HETATM   26  N4  UNL     1      16.282  18.506  34.267  1.00  0.00    -0.279 N 
ATOM     27  H3  UNL     1      16.601  16.952  35.612  1.00  0.00     0.187 HD
ATOM     28  H4  UNL     1      16.880  19.233  34.660  1.00  0.00     0.189 HD
BRANCH  24  29
HETATM   29  C16 UNL     1      14.857  15.200  34.255  1.00  0.00    -0.008 A 
HETATM   30  C17 UNL     1      13.540  14.881  34.484  1.00  0.00     0.014 A 
HETATM   31  C18 UNL     1      13.137  13.564  34.707  1.00  0.00     0.001 A 
HETATM   32  C19 UNL     1      14.057  12.543  34.704  1.00  0.00     0.000 A 
HETATM   33  C20 UNL     1      15.376  12.851  34.477  1.00  0.00     0.001 A 
HETATM   34  C21 UNL     1      15.757  14.163  34.257  1.00  0.00     0.014 A 
ENDBRANCH  24  29
ENDBRANCH  21  22
ENDBRANCH   4  21
TORSDOF 6
ENDMDL
