MODEL 1
REMARK VINA RESULT: -7.859645622      0.000      0.000
REMARK  6 active torsions:
REMARK  status: ('A' for Active; 'I' for Inactive)
REMARK    1  A    between atoms: C1_2  and  C2_3 
REMARK       I    between atoms: C1_2  and  N3_22 
REMARK    2  A    between atoms: C2_3  and  N1_4 
REMARK    3  A    between atoms: C9_11  and  N2_12 
REMARK       I    between atoms: N2_12  and  C10_14 
REMARK    4  A    between atoms: C10_14  and  C11_16 
REMARK    5  A    between atoms: C11_16  and  C12_18 
REMARK    6  A    between atoms: N3_22  and  C16_24 
ROOT
HETATM    1  N1  UNL     1      -2.872   3.809  13.646  1.00  0.00    -0.359 N 
HETATM    2  C3  UNL     1      -2.880   4.937  12.812  1.00  0.00     0.086 C 
HETATM    3  C4  UNL     1      -2.943   6.166  13.734  1.00  0.00     0.026 C 
HETATM    4  C5  UNL     1      -3.842   5.766  14.892  1.00  0.00     0.010 C 
HETATM    5  C6  UNL     1      -4.879   4.741  14.429  1.00  0.00     0.028 C 
HETATM    6  C7  UNL     1      -5.352   5.222  13.072  1.00  0.00     0.010 C 
HETATM    7  C8  UNL     1      -4.229   4.960  12.075  1.00  0.00     0.026 C 
HETATM    8  C9  UNL     1      -4.119   3.424  14.165  1.00  0.00     0.191 C 
ENDROOT
BRANCH   1   9
HETATM    9  C2  UNL     1      -1.726   3.070  13.846  1.00  0.00     0.162 C 
BRANCH   9  10
HETATM   10  C1  UNL     1      -0.928   2.737  12.656  1.00  0.00     0.257 C 
HETATM   11  O1  UNL     1      -1.114   1.635  12.095  1.00  0.00    -0.267 OA
HETATM   12  N3  UNL     1       0.052   3.617  12.110  1.00  0.00    -0.352 N 
ATOM     13  H3  UNL     1       0.201   4.516  12.569  1.00  0.00     0.163 HD
BRANCH  12  14
HETATM   14  C16 UNL     1       0.838   3.311  10.955  1.00  0.00     0.084 C 
HETATM   15  C17 UNL     1       0.235   3.823   9.659  1.00  0.00     0.025 C 
HETATM   16  C18 UNL     1       0.958   3.069   8.534  1.00  0.00     0.002 C 
HETATM   17  C19 UNL     1       2.418   3.377   8.567  1.00  0.00     0.000 C 
HETATM   18  C20 UNL     1       3.064   3.278   9.908  1.00  0.00     0.002 C 
HETATM   19  C21 UNL     1       2.251   3.786  11.052  1.00  0.00     0.025 C 
ENDBRANCH  12  14
ENDBRANCH   9  10
ENDBRANCH   1   9
BRANCH   8  20
HETATM   20  N2  UNL     1      -4.098   2.608  15.334  1.00  0.00    -0.333 N 
HETATM   21  C10 UNL     1      -4.592   1.278  15.267  1.00  0.00     0.289 C 
HETATM   22  O2  UNL     1      -5.055   0.803  14.172  1.00  0.00    -0.264 OA
ATOM     23  H2  UNL     1      -3.731   2.976  16.211  1.00  0.00     0.165 HD
BRANCH  21  24
HETATM   24  C11 UNL     1      -4.608   0.381  16.411  1.00  0.00     0.220 C 
HETATM   25  O3  UNL     1      -3.752  -0.552  16.413  1.00  0.00    -0.287 OA
BRANCH  24  26
HETATM   26  C12 UNL     1      -5.572   0.542  17.525  1.00  0.00     0.065 C 
HETATM   27  C13 UNL     1      -6.323  -0.742  17.809  1.00  0.00     0.013 C 
HETATM   28  C14 UNL     1      -7.567  -0.138  17.211  1.00  0.00     0.002 C 
HETATM   29  C15 UNL     1      -6.851   1.193  17.087  1.00  0.00     0.013 C 
ENDBRANCH  24  26
ENDBRANCH  21  24
ENDBRANCH   8  20
TORSDOF 6
ENDMDL
MODEL 2
REMARK VINA RESULT: -7.773044288      2.677      7.502
REMARK  6 active torsions:
REMARK  status: ('A' for Active; 'I' for Inactive)
REMARK    1  A    between atoms: C1_2  and  C2_3 
REMARK       I    between atoms: C1_2  and  N3_22 
REMARK    2  A    between atoms: C2_3  and  N1_4 
REMARK    3  A    between atoms: C9_11  and  N2_12 
REMARK       I    between atoms: N2_12  and  C10_14 
REMARK    4  A    between atoms: C10_14  and  C11_16 
REMARK    5  A    between atoms: C11_16  and  C12_18 
REMARK    6  A    between atoms: N3_22  and  C16_24 
ROOT
HETATM    1  N1  UNL     1      -2.874   3.455  12.540  1.00  0.00    -0.359 N 
HETATM    2  C3  UNL     1      -1.717   3.492  13.334  1.00  0.00     0.086 C 
HETATM    3  C4  UNL     1      -2.155   3.975  14.727  1.00  0.00     0.026 C 
HETATM    4  C5  UNL     1      -3.239   5.011  14.482  1.00  0.00     0.010 C 
HETATM    5  C6  UNL     1      -3.003   5.720  13.147  1.00  0.00     0.028 C 
HETATM    6  C7  UNL     1      -1.510   5.972  13.075  1.00  0.00     0.010 C 
HETATM    7  C8  UNL     1      -0.831   4.634  12.810  1.00  0.00     0.026 C 
HETATM    8  C9  UNL     1      -3.307   4.693  12.035  1.00  0.00     0.191 C 
ENDROOT
BRANCH   1   9
HETATM    9  C2  UNL     1      -3.471   2.263  12.193  1.00  0.00     0.162 C 
BRANCH   9  10
HETATM   10  C1  UNL     1      -4.480   1.726  13.120  1.00  0.00     0.257 C 
HETATM   11  O1  UNL     1      -5.640   1.528  12.699  1.00  0.00    -0.267 OA
HETATM   12  N3  UNL     1      -4.193   1.419  14.482  1.00  0.00    -0.352 N 
ATOM     13  H3  UNL     1      -3.245   1.581  14.823  1.00  0.00     0.163 HD
BRANCH  12  14
HETATM   14  C16 UNL     1      -5.160   0.898  15.399  1.00  0.00     0.084 C 
HETATM   15  C17 UNL     1      -4.551   0.069  16.515  1.00  0.00     0.025 C 
HETATM   16  C18 UNL     1      -5.712  -0.727  17.127  1.00  0.00     0.002 C 
HETATM   17  C19 UNL     1      -6.731   0.206  17.691  1.00  0.00     0.000 C 
HETATM   18  C20 UNL     1      -7.139   1.327  16.795  1.00  0.00     0.002 C 
HETATM   19  C21 UNL     1      -6.039   1.946  15.999  1.00  0.00     0.025 C 
ENDBRANCH  12  14
ENDBRANCH   9  10
ENDBRANCH   1   9
BRANCH   8  20
HETATM   20  N2  UNL     1      -4.672   4.772  11.632  1.00  0.00    -0.333 N 
HETATM   21  C10 UNL     1      -5.028   5.592  10.527  1.00  0.00     0.289 C 
HETATM   22  O2  UNL     1      -4.140   6.259   9.891  1.00  0.00    -0.264 OA
ATOM     23  H2  UNL     1      -5.388   4.245  12.132  1.00  0.00     0.165 HD
BRANCH  21  24
HETATM   24  C11 UNL     1      -6.395   5.730  10.053  1.00  0.00     0.220 C 
HETATM   25  O3  UNL     1      -6.786   4.886   9.193  1.00  0.00    -0.287 OA
BRANCH  24  26
HETATM   26  C12 UNL     1      -7.295   6.801  10.543  1.00  0.00     0.065 C 
HETATM   27  C13 UNL     1      -7.069   8.106   9.809  1.00  0.00     0.013 C 
HETATM   28  C14 UNL     1      -6.418   8.678  11.042  1.00  0.00     0.002 C 
HETATM   29  C15 UNL     1      -6.801   7.429  11.813  1.00  0.00     0.013 C 
ENDBRANCH  24  26
ENDBRANCH  21  24
ENDBRANCH   8  20
TORSDOF 6
ENDMDL
MODEL 3
REMARK VINA RESULT: -7.695863934      2.952      7.595
REMARK  6 active torsions:
REMARK  status: ('A' for Active; 'I' for Inactive)
REMARK    1  A    between atoms: C1_2  and  C2_3 
REMARK       I    between atoms: C1_2  and  N3_22 
REMARK    2  A    between atoms: C2_3  and  N1_4 
REMARK    3  A    between atoms: C9_11  and  N2_12 
REMARK       I    between atoms: N2_12  and  C10_14 
REMARK    4  A    between atoms: C10_14  and  C11_16 
REMARK    5  A    between atoms: C11_16  and  C12_18 
REMARK    6  A    between atoms: N3_22  and  C16_24 
ROOT
HETATM    1  N1  UNL     1      -2.843   3.464  12.450  1.00  0.00    -0.359 N 
HETATM    2  C3  UNL     1      -1.623   3.341  13.133  1.00  0.00     0.086 C 
HETATM    3  C4  UNL     1      -1.890   3.759  14.588  1.00  0.00     0.026 C 
HETATM    4  C5  UNL     1      -2.888   4.903  14.512  1.00  0.00     0.010 C 
HETATM    5  C6  UNL     1      -2.703   5.682  13.209  1.00  0.00     0.028 C 
HETATM    6  C7  UNL     1      -1.205   5.805  13.014  1.00  0.00     0.010 C 
HETATM    7  C8  UNL     1      -0.682   4.434  12.602  1.00  0.00     0.026 C 
HETATM    8  C9  UNL     1      -3.200   4.769  12.068  1.00  0.00     0.191 C 
ENDROOT
BRANCH   1   9
HETATM    9  C2  UNL     1      -3.579   2.358  12.086  1.00  0.00     0.162 C 
BRANCH   9  10
HETATM   10  C1  UNL     1      -4.127   1.531  13.173  1.00  0.00     0.257 C 
HETATM   11  O1  UNL     1      -3.880   0.305  13.180  1.00  0.00    -0.267 OA
HETATM   12  N3  UNL     1      -4.928   2.067  14.224  1.00  0.00    -0.352 N 
ATOM     13  H3  UNL     1      -5.126   3.068  14.216  1.00  0.00     0.163 HD
BRANCH  12  14
HETATM   14  C16 UNL     1      -5.470   1.280  15.288  1.00  0.00     0.084 C 
HETATM   15  C17 UNL     1      -4.420   0.766  16.256  1.00  0.00     0.025 C 
HETATM   16  C18 UNL     1      -5.098  -0.359  17.052  1.00  0.00     0.002 C 
HETATM   17  C19 UNL     1      -6.263   0.181  17.811  1.00  0.00     0.000 C 
HETATM   18  C20 UNL     1      -7.192   1.048  17.030  1.00  0.00     0.002 C 
HETATM   19  C21 UNL     1      -6.541   1.978  16.061  1.00  0.00     0.025 C 
ENDBRANCH  12  14
ENDBRANCH   9  10
ENDBRANCH   1   9
BRANCH   8  20
HETATM   20  N2  UNL     1      -4.581   4.998  11.800  1.00  0.00    -0.333 N 
HETATM   21  C10 UNL     1      -4.953   5.870  10.742  1.00  0.00     0.289 C 
HETATM   22  O2  UNL     1      -4.064   6.452  10.027  1.00  0.00    -0.264 OA
ATOM     23  H2  UNL     1      -5.297   4.538  12.363  1.00  0.00     0.165 HD
BRANCH  21  24
HETATM   24  C11 UNL     1      -6.336   6.159  10.404  1.00  0.00     0.220 C 
HETATM   25  O3  UNL     1      -7.178   6.095  11.348  1.00  0.00    -0.287 OA
BRANCH  24  26
HETATM   26  C12 UNL     1      -6.754   6.513   9.026  1.00  0.00     0.065 C 
HETATM   27  C13 UNL     1      -7.706   7.691   9.012  1.00  0.00     0.013 C 
HETATM   28  C14 UNL     1      -8.838   6.761   8.659  1.00  0.00     0.002 C 
HETATM   29  C15 UNL     1      -7.846   5.623   8.511  1.00  0.00     0.013 C 
ENDBRANCH  24  26
ENDBRANCH  21  24
ENDBRANCH   8  20
TORSDOF 6
ENDMDL
MODEL 4
REMARK VINA RESULT: -7.585907389      2.908      7.849
REMARK  6 active torsions:
REMARK  status: ('A' for Active; 'I' for Inactive)
REMARK    1  A    between atoms: C1_2  and  C2_3 
REMARK       I    between atoms: C1_2  and  N3_22 
REMARK    2  A    between atoms: C2_3  and  N1_4 
REMARK    3  A    between atoms: C9_11  and  N2_12 
REMARK       I    between atoms: N2_12  and  C10_14 
REMARK    4  A    between atoms: C10_14  and  C11_16 
REMARK    5  A    between atoms: C11_16  and  C12_18 
REMARK    6  A    between atoms: N3_22  and  C16_24 
ROOT
HETATM    1  N1  UNL     1      -3.886   4.862  13.379  1.00  0.00    -0.359 N 
HETATM    2  C3  UNL     1      -2.886   4.774  14.360  1.00  0.00     0.086 C 
HETATM    3  C4  UNL     1      -2.570   6.213  14.799  1.00  0.00     0.026 C 
HETATM    4  C5  UNL     1      -2.672   7.059  13.540  1.00  0.00     0.010 C 
HETATM    5  C6  UNL     1      -2.302   6.227  12.311  1.00  0.00     0.028 C 
HETATM    6  C7  UNL     1      -1.100   5.399  12.722  1.00  0.00     0.010 C 
HETATM    7  C8  UNL     1      -1.595   4.308  13.665  1.00  0.00     0.026 C 
HETATM    8  C9  UNL     1      -3.449   5.218  12.092  1.00  0.00     0.191 C 
ENDROOT
BRANCH   1   9
HETATM    9  C2  UNL     1      -5.191   4.513  13.649  1.00  0.00     0.162 C 
BRANCH   9  10
HETATM   10  C1  UNL     1      -5.432   3.144  14.132  1.00  0.00     0.257 C 
HETATM   11  O1  UNL     1      -5.306   2.192  13.331  1.00  0.00    -0.267 OA
HETATM   12  N3  UNL     1      -5.804   2.853  15.477  1.00  0.00    -0.352 N 
ATOM     13  H3  UNL     1      -5.906   3.632  16.128  1.00  0.00     0.163 HD
BRANCH  12  14
HETATM   14  C16 UNL     1      -6.043   1.530  15.965  1.00  0.00     0.084 C 
HETATM   15  C17 UNL     1      -4.785   0.818  16.428  1.00  0.00     0.025 C 
HETATM   16  C18 UNL     1      -5.153  -0.670  16.514  1.00  0.00     0.002 C 
HETATM   17  C19 UNL     1      -6.243  -0.871  17.513  1.00  0.00     0.000 C 
HETATM   18  C20 UNL     1      -7.403   0.058  17.393  1.00  0.00     0.002 C 
HETATM   19  C21 UNL     1      -7.062   1.472  17.056  1.00  0.00     0.025 C 
ENDBRANCH  12  14
ENDBRANCH   9  10
ENDBRANCH   1   9
BRANCH   8  20
HETATM   20  N2  UNL     1      -4.434   5.753  11.211  1.00  0.00    -0.333 N 
HETATM   21  C10 UNL     1      -4.817   5.015  10.059  1.00  0.00     0.289 C 
HETATM   22  O2  UNL     1      -4.291   3.877   9.804  1.00  0.00    -0.264 OA
ATOM     23  H2  UNL     1      -4.860   6.659  11.407  1.00  0.00     0.165 HD
BRANCH  21  24
HETATM   24  C11 UNL     1      -5.811   5.489   9.111  1.00  0.00     0.220 C 
HETATM   25  O3  UNL     1      -5.473   5.500   7.890  1.00  0.00    -0.287 OA
BRANCH  24  26
HETATM   26  C12 UNL     1      -7.158   5.938   9.539  1.00  0.00     0.065 C 
HETATM   27  C13 UNL     1      -8.153   5.894   8.399  1.00  0.00     0.013 C 
HETATM   28  C14 UNL     1      -8.139   7.399   8.337  1.00  0.00     0.002 C 
HETATM   29  C15 UNL     1      -7.276   7.433   9.584  1.00  0.00     0.013 C 
ENDBRANCH  24  26
ENDBRANCH  21  24
ENDBRANCH   8  20
TORSDOF 6
ENDMDL
MODEL 5
REMARK VINA RESULT: -7.510786227      0.991      1.003
REMARK  6 active torsions:
REMARK  status: ('A' for Active; 'I' for Inactive)
REMARK    1  A    between atoms: C1_2  and  C2_3 
REMARK       I    between atoms: C1_2  and  N3_22 
REMARK    2  A    between atoms: C2_3  and  N1_4 
REMARK    3  A    between atoms: C9_11  and  N2_12 
REMARK       I    between atoms: N2_12  and  C10_14 
REMARK    4  A    between atoms: C10_14  and  C11_16 
REMARK    5  A    between atoms: C11_16  and  C12_18 
REMARK    6  A    between atoms: N3_22  and  C16_24 
ROOT
HETATM    1  N1  UNL     1      -2.734   4.003  13.183  1.00  0.00    -0.359 N 
HETATM    2  C3  UNL     1      -2.708   5.277  12.595  1.00  0.00     0.086 C 
HETATM    3  C4  UNL     1      -2.722   6.294  13.748  1.00  0.00     0.026 C 
HETATM    4  C5  UNL     1      -3.628   5.697  14.812  1.00  0.00     0.010 C 
HETATM    5  C6  UNL     1      -4.703   4.823  14.164  1.00  0.00     0.028 C 
HETATM    6  C7  UNL     1      -5.167   5.585  12.938  1.00  0.00     0.010 C 
HETATM    7  C8  UNL     1      -4.059   5.493  11.895  1.00  0.00     0.026 C 
HETATM    8  C9  UNL     1      -3.992   3.562  13.628  1.00  0.00     0.191 C 
ENDROOT
BRANCH   1   9
HETATM    9  C2  UNL     1      -1.614   3.201  13.214  1.00  0.00     0.162 C 
BRANCH   9  10
HETATM   10  C1  UNL     1      -0.695   3.289  12.069  1.00  0.00     0.257 C 
HETATM   11  O1  UNL     1      -1.055   2.812  10.970  1.00  0.00    -0.267 OA
HETATM   12  N3  UNL     1       0.592   3.896  12.155  1.00  0.00    -0.352 N 
ATOM     13  H3  UNL     1       0.882   4.285  13.052  1.00  0.00     0.163 HD
BRANCH  12  14
HETATM   14  C16 UNL     1       1.499   3.991  11.053  1.00  0.00     0.084 C 
HETATM   15  C17 UNL     1       1.305   5.240  10.214  1.00  0.00     0.025 C 
HETATM   16  C18 UNL     1       2.042   4.976   8.893  1.00  0.00     0.002 C 
HETATM   17  C19 UNL     1       3.496   4.764   9.152  1.00  0.00     0.000 C 
HETATM   18  C20 UNL     1       3.820   3.813  10.254  1.00  0.00     0.002 C 
HETATM   19  C21 UNL     1       2.936   3.895  11.454  1.00  0.00     0.025 C 
ENDBRANCH  12  14
ENDBRANCH   9  10
ENDBRANCH   1   9
BRANCH   8  20
HETATM   20  N2  UNL     1      -3.993   2.526  14.607  1.00  0.00    -0.333 N 
HETATM   21  C10 UNL     1      -4.953   1.482  14.518  1.00  0.00     0.289 C 
HETATM   22  O2  UNL     1      -5.814   1.460  13.572  1.00  0.00    -0.264 OA
ATOM     23  H2  UNL     1      -3.310   2.533  15.364  1.00  0.00     0.165 HD
BRANCH  21  24
HETATM   24  C11 UNL     1      -5.023   0.389  15.474  1.00  0.00     0.220 C 
HETATM   25  O3  UNL     1      -4.669  -0.754  15.059  1.00  0.00    -0.287 OA
BRANCH  24  26
HETATM   26  C12 UNL     1      -5.485   0.591  16.869  1.00  0.00     0.065 C 
HETATM   27  C13 UNL     1      -6.084  -0.672  17.450  1.00  0.00     0.013 C 
HETATM   28  C14 UNL     1      -7.456  -0.054  17.359  1.00  0.00     0.002 C 
HETATM   29  C15 UNL     1      -6.825   1.260  16.938  1.00  0.00     0.013 C 
ENDBRANCH  24  26
ENDBRANCH  21  24
ENDBRANCH   8  20
TORSDOF 6
ENDMDL
