MODEL 1
REMARK VINA RESULT: -6.522061246      0.000      0.000
REMARK  6 active torsions:
REMARK  status: ('A' for Active; 'I' for Inactive)
REMARK    1  A    between atoms: N1_2  and  C2_5 
REMARK    2  A    between atoms: C2_5  and  C3_6 
REMARK    3  A    between atoms: C3_6  and  N2_7 
REMARK    4  A    between atoms: C11_15  and  N3_16 
REMARK       I    between atoms: N3_16  and  C12_17 
REMARK    5  A    between atoms: N3_16  and  C15_22 
REMARK    6  A    between atoms: C12_17  and  C13_19 
ROOT
HETATM    1  C13 UNL     1      -4.110   3.269   9.994  1.00  0.00     0.226 C 
HETATM    2  C14 UNL     1      -4.604   1.965  10.461  1.00  0.00     0.068 C 
HETATM    3  N4  UNL     1      -4.973   0.935  10.826  1.00  0.00    -0.197 NA
ENDROOT
BRANCH   1   4
HETATM    4  C12 UNL     1      -2.697   3.480  10.392  1.00  0.00     0.233 C 
HETATM    5  N3  UNL     1      -2.359   4.183  11.611  1.00  0.00    -0.336 N 
HETATM    6  O1  UNL     1      -1.820   3.027   9.633  1.00  0.00    -0.272 OA
BRANCH   5   7
HETATM    7  C11 UNL     1      -3.425   4.691  12.443  1.00  0.00     0.097 C 
HETATM    8  C6  UNL     1      -3.808   3.979  13.670  1.00  0.00    -0.014 C 
HETATM    9  C5  UNL     1      -3.616   2.500  13.692  1.00  0.00     0.056 C 
HETATM   10  C7  UNL     1      -3.233   4.541  14.945  1.00  0.00     0.012 C 
HETATM   11  C20 UNL     1      -5.341   4.158  13.834  1.00  0.00     0.031 C 
HETATM   12  C4  UNL     1      -4.293   1.784  14.805  1.00  0.00     0.059 C 
HETATM   13  N2  UNL     1      -5.542   2.227  15.226  1.00  0.00    -0.392 N 
HETATM   14  C21 UNL     1      -5.892   3.591  15.082  1.00  0.00     0.122 C 
HETATM   15  C8  UNL     1      -3.280   6.044  15.013  1.00  0.00     0.001 C 
HETATM   16  C9  UNL     1      -2.498   6.593  13.855  1.00  0.00     0.002 C 
HETATM   17  C10 UNL     1      -3.289   6.200  12.642  1.00  0.00     0.026 C 
BRANCH  13  18
HETATM   18  C3  UNL     1      -6.216   1.494  16.231  1.00  0.00     0.149 C 
BRANCH  18  19
HETATM   19  C2  UNL     1      -5.381   0.389  16.800  1.00  0.00     0.251 C 
BRANCH  19  20
HETATM   20  N1  UNL     1      -6.256  -0.551  17.507  1.00  0.00    -0.077 N 
HETATM   21  C1  UNL     1      -7.616  -0.074  17.366  1.00  0.00     0.267 C 
ATOM     22  H12 UNL     1      -5.983  -0.693  18.480  1.00  0.00     0.276 HD
ATOM     23  H11 UNL     1      -6.139  -1.515  17.194  1.00  0.00     0.276 HD
ENDBRANCH  19  20
ENDBRANCH  18  19
ENDBRANCH  13  18
ENDBRANCH   5   7
BRANCH   5  24
HETATM   24  C15 UNL     1      -0.943   4.349  11.829  1.00  0.00     0.133 C 
HETATM   25  C16 UNL     1      -0.328   5.093  10.617  1.00  0.00     0.032 C 
HETATM   26  C17 UNL     1       1.070   4.615  10.493  1.00  0.00     0.008 C 
HETATM   27  C18 UNL     1       1.279   3.452  11.416  1.00  0.00     0.054 C 
HETATM   28  C19 UNL     1      -0.116   3.143  11.897  1.00  0.00     0.003 C 
HETATM   29  N5  UNL     1      -0.358   1.944  12.269  1.00  0.00    -0.404 N 
ATOM     30  H52 UNL     1      -1.303   1.735  12.594  1.00  0.00     0.155 HD
ATOM     31  H51 UNL     1       0.218   1.105  12.316  1.00  0.00     0.155 HD
ENDBRANCH   5  24
ENDBRANCH   1   4
TORSDOF 6
ENDMDL
MODEL 2
REMARK VINA RESULT: -6.491363439      0.892      1.133
REMARK  6 active torsions:
REMARK  status: ('A' for Active; 'I' for Inactive)
REMARK    1  A    between atoms: N1_2  and  C2_5 
REMARK    2  A    between atoms: C2_5  and  C3_6 
REMARK    3  A    between atoms: C3_6  and  N2_7 
REMARK    4  A    between atoms: C11_15  and  N3_16 
REMARK       I    between atoms: N3_16  and  C12_17 
REMARK    5  A    between atoms: N3_16  and  C15_22 
REMARK    6  A    between atoms: C12_17  and  C13_19 
ROOT
HETATM    1  C13 UNL     1      -4.132   3.397   9.883  1.00  0.00     0.226 C 
HETATM    2  C14 UNL     1      -4.566   4.500   9.012  1.00  0.00     0.068 C 
HETATM    3  N4  UNL     1      -4.894   5.376   8.338  1.00  0.00    -0.197 NA
ENDROOT
BRANCH   1   4
HETATM    4  C12 UNL     1      -2.715   3.563  10.292  1.00  0.00     0.233 C 
HETATM    5  N3  UNL     1      -2.366   4.220  11.533  1.00  0.00    -0.336 N 
HETATM    6  O1  UNL     1      -1.846   3.112   9.522  1.00  0.00    -0.272 OA
BRANCH   5   7
HETATM    7  C11 UNL     1      -3.423   4.728  12.376  1.00  0.00     0.097 C 
HETATM    8  C6  UNL     1      -3.811   4.002  13.594  1.00  0.00    -0.014 C 
HETATM    9  C5  UNL     1      -3.636   2.521  13.592  1.00  0.00     0.056 C 
HETATM   10  C7  UNL     1      -3.225   4.537  14.875  1.00  0.00     0.012 C 
HETATM   11  C20 UNL     1      -5.341   4.197  13.766  1.00  0.00     0.031 C 
HETATM   12  C4  UNL     1      -4.318   1.796  14.696  1.00  0.00     0.059 C 
HETATM   13  N2  UNL     1      -5.560   2.246  15.128  1.00  0.00    -0.392 N 
HETATM   14  C21 UNL     1      -5.894   3.617  15.007  1.00  0.00     0.122 C 
HETATM   15  C8  UNL     1      -3.253   6.039  14.966  1.00  0.00     0.001 C 
HETATM   16  C9  UNL     1      -2.468   6.597  13.814  1.00  0.00     0.002 C 
HETATM   17  C10 UNL     1      -3.268   6.232  12.598  1.00  0.00     0.026 C 
BRANCH  13  18
HETATM   18  C3  UNL     1      -6.240   1.507  16.125  1.00  0.00     0.149 C 
BRANCH  18  19
HETATM   19  C2  UNL     1      -5.396   0.418  16.713  1.00  0.00     0.251 C 
BRANCH  19  20
HETATM   20  N1  UNL     1      -6.266  -0.527  17.419  1.00  0.00    -0.077 N 
HETATM   21  C1  UNL     1      -7.612   0.006  17.382  1.00  0.00     0.267 C 
ATOM     22  H12 UNL     1      -5.946  -0.732  18.365  1.00  0.00     0.276 HD
ATOM     23  H11 UNL     1      -6.204  -1.476  17.049  1.00  0.00     0.276 HD
ENDBRANCH  19  20
ENDBRANCH  18  19
ENDBRANCH  13  18
ENDBRANCH   5   7
BRANCH   5  24
HETATM   24  C15 UNL     1      -0.948   4.346  11.760  1.00  0.00     0.133 C 
HETATM   25  C16 UNL     1      -0.299   5.047  10.541  1.00  0.00     0.032 C 
HETATM   26  C17 UNL     1       1.084   4.523  10.438  1.00  0.00     0.008 C 
HETATM   27  C18 UNL     1       1.248   3.371  11.384  1.00  0.00     0.054 C 
HETATM   28  C19 UNL     1      -0.159   3.116  11.858  1.00  0.00     0.003 C 
HETATM   29  N5  UNL     1      -0.443   1.932  12.249  1.00  0.00    -0.404 N 
ATOM     30  H52 UNL     1      -1.396   1.759  12.570  1.00  0.00     0.155 HD
ATOM     31  H51 UNL     1       0.107   1.076  12.317  1.00  0.00     0.155 HD
ENDBRANCH   5  24
ENDBRANCH   1   4
TORSDOF 6
ENDMDL
MODEL 3
REMARK VINA RESULT: -5.945108179      1.887      3.303
REMARK  6 active torsions:
REMARK  status: ('A' for Active; 'I' for Inactive)
REMARK    1  A    between atoms: N1_2  and  C2_5 
REMARK    2  A    between atoms: C2_5  and  C3_6 
REMARK    3  A    between atoms: C3_6  and  N2_7 
REMARK    4  A    between atoms: C11_15  and  N3_16 
REMARK       I    between atoms: N3_16  and  C12_17 
REMARK    5  A    between atoms: N3_16  and  C15_22 
REMARK    6  A    between atoms: C12_17  and  C13_19 
ROOT
HETATM    1  C13 UNL     1      -2.068   4.131  10.424  1.00  0.00     0.226 C 
HETATM    2  C14 UNL     1      -0.960   3.288  10.899  1.00  0.00     0.068 C 
HETATM    3  N4  UNL     1      -0.082   2.643  11.276  1.00  0.00    -0.197 NA
ENDROOT
BRANCH   1   4
HETATM    4  C12 UNL     1      -2.120   5.415  11.165  1.00  0.00     0.233 C 
HETATM    5  N3  UNL     1      -3.204   5.710  12.077  1.00  0.00    -0.336 N 
HETATM    6  O1  UNL     1      -1.192   6.222  10.967  1.00  0.00    -0.272 OA
BRANCH   5   7
HETATM    7  C11 UNL     1      -4.254   4.733  12.254  1.00  0.00     0.097 C 
HETATM    8  C6  UNL     1      -4.394   4.022  13.532  1.00  0.00    -0.014 C 
HETATM    9  C5  UNL     1      -3.152   3.793  14.327  1.00  0.00     0.056 C 
HETATM   10  C7  UNL     1      -5.445   4.571  14.461  1.00  0.00     0.012 C 
HETATM   11  C20 UNL     1      -4.892   2.590  13.198  1.00  0.00     0.031 C 
HETATM   12  C4  UNL     1      -3.276   2.814  15.438  1.00  0.00     0.059 C 
HETATM   13  N2  UNL     1      -4.081   1.695  15.260  1.00  0.00    -0.392 N 
HETATM   14  C21 UNL     1      -5.189   1.757  14.380  1.00  0.00     0.122 C 
HETATM   15  C8  UNL     1      -6.729   4.933  13.766  1.00  0.00     0.001 C 
HETATM   16  C9  UNL     1      -6.425   5.972  12.725  1.00  0.00     0.002 C 
HETATM   17  C10 UNL     1      -5.582   5.257  11.711  1.00  0.00     0.026 C 
BRANCH  13  18
HETATM   18  C3  UNL     1      -4.134   0.727  16.290  1.00  0.00     0.149 C 
BRANCH  18  19
HETATM   19  C2  UNL     1      -4.866  -0.514  15.881  1.00  0.00     0.251 C 
BRANCH  19  20
HETATM   20  N1  UNL     1      -5.514  -1.094  17.062  1.00  0.00    -0.077 N 
HETATM   21  C1  UNL     1      -6.643  -0.252  17.399  1.00  0.00     0.267 C 
ATOM     22  H12 UNL     1      -4.870  -1.227  17.842  1.00  0.00     0.276 HD
ATOM     23  H11 UNL     1      -5.772  -2.072  16.933  1.00  0.00     0.276 HD
ENDBRANCH  19  20
ENDBRANCH  18  19
ENDBRANCH  13  18
ENDBRANCH   5   7
BRANCH   5  24
HETATM   24  C15 UNL     1      -3.136   7.019  12.679  1.00  0.00     0.133 C 
HETATM   25  C16 UNL     1      -3.203   8.093  11.565  1.00  0.00     0.032 C 
HETATM   26  C17 UNL     1      -2.428   9.259  12.054  1.00  0.00     0.008 C 
HETATM   27  C18 UNL     1      -1.696   8.876  13.305  1.00  0.00     0.054 C 
HETATM   28  C19 UNL     1      -1.903   7.385  13.379  1.00  0.00     0.003 C 
HETATM   29  N5  UNL     1      -1.023   6.699  14.002  1.00  0.00    -0.404 N 
ATOM     30  H52 UNL     1      -1.162   5.689  14.052  1.00  0.00     0.155 HD
ATOM     31  H51 UNL     1      -0.164   6.955  14.490  1.00  0.00     0.155 HD
ENDBRANCH   5  24
ENDBRANCH   1   4
TORSDOF 6
ENDMDL
MODEL 4
REMARK VINA RESULT: -5.916526833      2.449      4.299
REMARK  6 active torsions:
REMARK  status: ('A' for Active; 'I' for Inactive)
REMARK    1  A    between atoms: N1_2  and  C2_5 
REMARK    2  A    between atoms: C2_5  and  C3_6 
REMARK    3  A    between atoms: C3_6  and  N2_7 
REMARK    4  A    between atoms: C11_15  and  N3_16 
REMARK       I    between atoms: N3_16  and  C12_17 
REMARK    5  A    between atoms: N3_16  and  C15_22 
REMARK    6  A    between atoms: C12_17  and  C13_19 
ROOT
HETATM    1  C13 UNL     1      -0.025   5.071  12.132  1.00  0.00     0.226 C 
HETATM    2  C14 UNL     1       1.444   5.034  12.177  1.00  0.00     0.068 C 
HETATM    3  N4  UNL     1       2.597   5.025  12.212  1.00  0.00    -0.197 NA
ENDROOT
BRANCH   1   4
HETATM    4  C12 UNL     1      -0.553   6.269  12.829  1.00  0.00     0.233 C 
HETATM    5  N3  UNL     1      -1.975   6.529  12.898  1.00  0.00    -0.336 N 
HETATM    6  O1  UNL     1       0.279   7.034  13.351  1.00  0.00    -0.272 OA
BRANCH   5   7
HETATM    7  C11 UNL     1      -2.886   5.605  12.264  1.00  0.00     0.097 C 
HETATM    8  C6  UNL     1      -3.628   4.626  13.071  1.00  0.00    -0.014 C 
HETATM    9  C5  UNL     1      -2.980   4.143  14.326  1.00  0.00     0.056 C 
HETATM   10  C7  UNL     1      -5.048   5.009  13.399  1.00  0.00     0.012 C 
HETATM   11  C20 UNL     1      -3.769   3.345  12.208  1.00  0.00     0.031 C 
HETATM   12  C4  UNL     1      -3.601   2.943  14.944  1.00  0.00     0.059 C 
HETATM   13  N2  UNL     1      -4.108   1.948  14.116  1.00  0.00    -0.392 N 
HETATM   14  C21 UNL     1      -4.586   2.280  12.826  1.00  0.00     0.122 C 
HETATM   15  C8  UNL     1      -5.794   5.601  12.235  1.00  0.00     0.001 C 
HETATM   16  C9  UNL     1      -5.062   6.832  11.782  1.00  0.00     0.002 C 
HETATM   17  C10 UNL     1      -3.761   6.321  11.236  1.00  0.00     0.026 C 
BRANCH  13  18
HETATM   18  C3  UNL     1      -4.627   0.773  14.709  1.00  0.00     0.149 C 
BRANCH  18  19
HETATM   19  C2  UNL     1      -4.481   0.764  16.200  1.00  0.00     0.251 C 
BRANCH  19  20
HETATM   20  N1  UNL     1      -4.841  -0.564  16.704  1.00  0.00    -0.077 N 
HETATM   21  C1  UNL     1      -6.071  -0.428  17.457  1.00  0.00     0.267 C 
ATOM     22  H12 UNL     1      -4.092  -1.001  17.242  1.00  0.00     0.276 HD
ATOM     23  H11 UNL     1      -4.902  -1.266  15.966  1.00  0.00     0.276 HD
ENDBRANCH  19  20
ENDBRANCH  18  19
ENDBRANCH  13  18
ENDBRANCH   5   7
BRANCH   5  24
HETATM   24  C15 UNL     1      -2.323   7.759  13.566  1.00  0.00     0.133 C 
HETATM   25  C16 UNL     1      -1.656   8.944  12.825  1.00  0.00     0.032 C 
HETATM   26  C17 UNL     1      -1.393   9.987  13.846  1.00  0.00     0.008 C 
HETATM   27  C18 UNL     1      -1.649   9.420  15.210  1.00  0.00     0.054 C 
HETATM   28  C19 UNL     1      -1.844   7.950  14.937  1.00  0.00     0.003 C 
HETATM   29  N5  UNL     1      -1.578   7.135  15.885  1.00  0.00    -0.404 N 
ATOM     30  H52 UNL     1      -1.709   6.140  15.700  1.00  0.00     0.155 HD
ATOM     31  H51 UNL     1      -1.245   7.269  16.839  1.00  0.00     0.155 HD
ENDBRANCH   5  24
ENDBRANCH   1   4
TORSDOF 6
ENDMDL
MODEL 5
REMARK VINA RESULT: -5.907593817      2.439      3.380
REMARK  6 active torsions:
REMARK  status: ('A' for Active; 'I' for Inactive)
REMARK    1  A    between atoms: N1_2  and  C2_5 
REMARK    2  A    between atoms: C2_5  and  C3_6 
REMARK    3  A    between atoms: C3_6  and  N2_7 
REMARK    4  A    between atoms: C11_15  and  N3_16 
REMARK       I    between atoms: N3_16  and  C12_17 
REMARK    5  A    between atoms: N3_16  and  C15_22 
REMARK    6  A    between atoms: C12_17  and  C13_19 
ROOT
HETATM    1  C13 UNL     1      -6.148   6.710  11.529  1.00  0.00     0.226 C 
HETATM    2  C14 UNL     1      -6.347   8.145  11.277  1.00  0.00     0.068 C 
HETATM    3  N4  UNL     1      -6.485   9.272  11.076  1.00  0.00    -0.197 NA
ENDROOT
BRANCH   1   4
HETATM    4  C12 UNL     1      -5.038   6.171  10.705  1.00  0.00     0.233 C 
HETATM    5  N3  UNL     1      -3.989   5.368  11.295  1.00  0.00    -0.336 N 
HETATM    6  O1  UNL     1      -5.053   6.438   9.489  1.00  0.00    -0.272 OA
BRANCH   5   7
HETATM    7  C11 UNL     1      -4.027   5.103  12.715  1.00  0.00     0.097 C 
HETATM    8  C6  UNL     1      -3.750   3.752  13.222  1.00  0.00    -0.014 C 
HETATM    9  C5  UNL     1      -4.101   2.603  12.337  1.00  0.00     0.056 C 
HETATM   10  C7  UNL     1      -2.350   3.532  13.734  1.00  0.00     0.012 C 
HETATM   11  C20 UNL     1      -4.648   3.547  14.471  1.00  0.00     0.031 C 
HETATM   12  C4  UNL     1      -4.103   1.269  12.991  1.00  0.00     0.059 C 
HETATM   13  N2  UNL     1      -4.551   1.166  14.303  1.00  0.00    -0.392 N 
HETATM   14  C21 UNL     1      -4.425   2.270  15.180  1.00  0.00     0.122 C 
HETATM   15  C8  UNL     1      -1.833   4.669  14.574  1.00  0.00     0.001 C 
HETATM   16  C9  UNL     1      -1.844   5.916  13.737  1.00  0.00     0.002 C 
HETATM   17  C10 UNL     1      -3.297   6.197  13.493  1.00  0.00     0.026 C 
BRANCH  13  18
HETATM   18  C3  UNL     1      -4.624  -0.117  14.894  1.00  0.00     0.149 C 
BRANCH  18  19
HETATM   19  C2  UNL     1      -4.518  -0.073  16.388  1.00  0.00     0.251 C 
BRANCH  19  20
HETATM   20  N1  UNL     1      -5.482  -1.017  16.960  1.00  0.00    -0.077 N 
HETATM   21  C1  UNL     1      -6.605  -0.249  17.455  1.00  0.00     0.267 C 
ATOM     22  H12 UNL     1      -5.070  -1.623  17.671  1.00  0.00     0.276 HD
ATOM     23  H11 UNL     1      -5.758  -1.749  16.305  1.00  0.00     0.276 HD
ENDBRANCH  19  20
ENDBRANCH  18  19
ENDBRANCH  13  18
ENDBRANCH   5   7
BRANCH   5  24
HETATM   24  C15 UNL     1      -2.959   4.963  10.371  1.00  0.00     0.133 C 
HETATM   25  C16 UNL     1      -2.143   6.209   9.944  1.00  0.00     0.032 C 
HETATM   26  C17 UNL     1      -1.664   5.948   8.564  1.00  0.00     0.008 C 
HETATM   27  C18 UNL     1      -2.331   4.714   8.035  1.00  0.00     0.054 C 
HETATM   28  C19 UNL     1      -3.377   4.416   9.079  1.00  0.00     0.003 C 
HETATM   29  N5  UNL     1      -4.414   3.771   8.705  1.00  0.00    -0.404 N 
ATOM     30  H52 UNL     1      -5.123   3.569   9.411  1.00  0.00     0.155 HD
ATOM     31  H51 UNL     1      -4.705   3.390   7.805  1.00  0.00     0.155 HD
ENDBRANCH   5  24
ENDBRANCH   1   4
TORSDOF 6
ENDMDL
