MODEL 1
REMARK VINA RESULT: -7.417650594      0.000      0.000
REMARK  7 active torsions:
REMARK  status: ('A' for Active; 'I' for Inactive)
REMARK    1  A    between atoms: C3_3  and  N1_5 
REMARK    2  A    between atoms: C7_8  and  C8_9 
REMARK    3  A    between atoms: C7_8  and  C14_20 
REMARK       I    between atoms: C8_9  and  N2_11 
REMARK    4  A    between atoms: N2_11  and  C9_13 
REMARK    5  A    between atoms: C9_13  and  C10_14 
REMARK    6  A    between atoms: C9_13  and  C11_17 
REMARK    7  A    between atoms: C10_14  and  O2_15 
ROOT
HETATM    1  C1  UNL     1      -6.098   6.879  11.828  1.00  0.00     0.014 C 
HETATM    2  C2  UNL     1      -4.991   6.522  11.486  1.00  0.00    -0.082 C 
HETATM    3  C3  UNL     1      -3.662   6.081  11.058  1.00  0.00     0.299 C 
HETATM    4  C4  UNL     1      -3.437   6.298   9.599  1.00  0.00     0.057 C 
ENDROOT
BRANCH   3   5
HETATM    5  N1  UNL     1      -3.450   4.734  11.503  1.00  0.00     0.132 N 
HETATM    6  C5  UNL     1      -4.602   3.881  11.335  1.00  0.00     0.279 C 
HETATM    7  C6  UNL     1      -4.948   2.864  12.334  1.00  0.00     0.052 C 
HETATM    8  C7  UNL     1      -3.799   1.950  12.825  1.00  0.00     0.072 C 
HETATM    9  C19 UNL     1      -2.653   2.718  12.561  1.00  0.00     0.142 C 
HETATM   10  C20 UNL     1      -1.227   2.703  12.757  1.00  0.00     0.038 C 
HETATM   11  O3  UNL     1      -2.576   2.789  11.158  1.00  0.00    -0.350 OA
HETATM   12  C21 UNL     1      -1.038   4.084  12.014  1.00  0.00     0.067 C 
HETATM   13  C22 UNL     1      -2.214   4.153  11.061  1.00  0.00     0.360 C 
BRANCH   8  14
HETATM   14  C8  UNL     1      -3.975   1.828  14.321  1.00  0.00     0.229 C 
HETATM   15  O1  UNL     1      -3.074   2.207  15.111  1.00  0.00    -0.273 OA
HETATM   16  N2  UNL     1      -5.145   1.291  14.913  1.00  0.00    -0.353 N 
ATOM     17  H2  UNL     1      -5.891   0.977  14.292  1.00  0.00     0.163 HD
BRANCH  16  18
HETATM   18  C9  UNL     1      -5.351   1.160  16.323  1.00  0.00     0.112 C 
BRANCH  18  19
HETATM   19  C10 UNL     1      -4.925  -0.195  16.852  1.00  0.00     0.189 C 
BRANCH  19  20
HETATM   20  O2  UNL     1      -3.568  -0.339  16.632  1.00  0.00    -0.399 OA
ATOM     21  H2  UNL     1      -3.342   0.141  15.844  1.00  0.00     0.209 HD
ENDBRANCH  19  20
ENDBRANCH  18  19
BRANCH  18  22
HETATM   22  C11 UNL     1      -6.797   1.333  16.737  1.00  0.00     0.010 A 
HETATM   23  C12 UNL     1      -7.116   1.116  18.205  1.00  0.00     0.007 A 
HETATM   24  C13 UNL     1      -7.666   0.218  17.111  1.00  0.00     0.007 A 
ENDBRANCH  18  22
ENDBRANCH  16  18
ENDBRANCH   8  14
BRANCH   8  25
HETATM   25  C14 UNL     1      -4.001   0.603  12.266  1.00  0.00     0.006 C 
HETATM   26  C15 UNL     1      -5.176   0.424  11.362  1.00  0.00     0.006 C 
HETATM   27  C16 UNL     1      -5.021  -1.060  10.991  1.00  0.00     0.000 C 
HETATM   28  C17 UNL     1      -4.313  -1.701  12.188  1.00  0.00     0.000 C 
HETATM   29  C18 UNL     1      -4.109  -0.550  13.193  1.00  0.00     0.006 C 
ENDBRANCH   8  25
ENDBRANCH   3   5
TORSDOF 7
ENDMDL
MODEL 2
REMARK VINA RESULT: -7.399701818      2.212      6.814
REMARK  7 active torsions:
REMARK  status: ('A' for Active; 'I' for Inactive)
REMARK    1  A    between atoms: C3_3  and  N1_5 
REMARK    2  A    between atoms: C7_8  and  C8_9 
REMARK    3  A    between atoms: C7_8  and  C14_20 
REMARK       I    between atoms: C8_9  and  N2_11 
REMARK    4  A    between atoms: N2_11  and  C9_13 
REMARK    5  A    between atoms: C9_13  and  C10_14 
REMARK    6  A    between atoms: C9_13  and  C11_17 
REMARK    7  A    between atoms: C10_14  and  O2_15 
ROOT
HETATM    1  C1  UNL     1      -7.163   1.226  17.243  1.00  0.00     0.014 C 
HETATM    2  C2  UNL     1      -6.283   0.826  16.510  1.00  0.00    -0.082 C 
HETATM    3  C3  UNL     1      -5.207   0.352  15.637  1.00  0.00     0.299 C 
HETATM    4  C4  UNL     1      -4.093  -0.277  16.404  1.00  0.00     0.057 C 
ENDROOT
BRANCH   3   5
HETATM    5  N1  UNL     1      -4.807   1.419  14.766  1.00  0.00     0.132 N 
HETATM    6  C5  UNL     1      -4.360   2.600  15.464  1.00  0.00     0.279 C 
HETATM    7  C6  UNL     1      -4.675   3.943  14.967  1.00  0.00     0.052 C 
HETATM    8  C7  UNL     1      -4.421   4.207  13.462  1.00  0.00     0.072 C 
HETATM    9  C19 UNL     1      -4.467   2.917  12.906  1.00  0.00     0.142 C 
HETATM   10  C20 UNL     1      -4.424   2.245  11.634  1.00  0.00     0.038 C 
HETATM   11  O3  UNL     1      -3.338   2.257  13.424  1.00  0.00    -0.350 OA
HETATM   12  C21 UNL     1      -4.541   0.819  12.302  1.00  0.00     0.067 C 
HETATM   13  C22 UNL     1      -3.955   1.011  13.685  1.00  0.00     0.360 C 
BRANCH   8  14
HETATM   14  C8  UNL     1      -5.614   4.995  12.971  1.00  0.00     0.229 C 
HETATM   15  O1  UNL     1      -6.686   5.019  13.625  1.00  0.00    -0.273 OA
HETATM   16  N2  UNL     1      -5.595   5.742  11.767  1.00  0.00    -0.353 N 
ATOM     17  H2  UNL     1      -4.735   5.738  11.219  1.00  0.00     0.163 HD
BRANCH  16  18
HETATM   18  C9  UNL     1      -6.701   6.501  11.269  1.00  0.00     0.112 C 
BRANCH  18  19
HETATM   19  C10 UNL     1      -6.951   6.269   9.793  1.00  0.00     0.189 C 
BRANCH  19  20
HETATM   20  O2  UNL     1      -6.768   4.925   9.528  1.00  0.00    -0.399 OA
ATOM     21  H2  UNL     1      -7.320   4.688   8.792  1.00  0.00     0.209 HD
ENDBRANCH  19  20
ENDBRANCH  18  19
BRANCH  18  22
HETATM   22  C11 UNL     1      -6.524   7.996  11.432  1.00  0.00     0.010 A 
HETATM   23  C12 UNL     1      -6.518   8.823  10.159  1.00  0.00     0.007 A 
HETATM   24  C13 UNL     1      -5.301   8.707  11.059  1.00  0.00     0.007 A 
ENDBRANCH  18  22
ENDBRANCH  16  18
ENDBRANCH   8  14
BRANCH   8  25
HETATM   25  C14 UNL     1      -3.250   5.088  13.332  1.00  0.00     0.006 C 
HETATM   26  C15 UNL     1      -1.916   4.421  13.264  1.00  0.00     0.006 C 
HETATM   27  C16 UNL     1      -0.998   5.645  13.116  1.00  0.00     0.000 C 
HETATM   28  C17 UNL     1      -1.737   6.789  13.815  1.00  0.00     0.000 C 
HETATM   29  C18 UNL     1      -3.041   6.157  14.340  1.00  0.00     0.006 C 
ENDBRANCH   8  25
ENDBRANCH   3   5
TORSDOF 7
ENDMDL
MODEL 3
REMARK VINA RESULT: -7.048474899      2.577      6.921
REMARK  7 active torsions:
REMARK  status: ('A' for Active; 'I' for Inactive)
REMARK    1  A    between atoms: C3_3  and  N1_5 
REMARK    2  A    between atoms: C7_8  and  C8_9 
REMARK    3  A    between atoms: C7_8  and  C14_20 
REMARK       I    between atoms: C8_9  and  N2_11 
REMARK    4  A    between atoms: N2_11  and  C9_13 
REMARK    5  A    between atoms: C9_13  and  C10_14 
REMARK    6  A    between atoms: C9_13  and  C11_17 
REMARK    7  A    between atoms: C10_14  and  O2_15 
ROOT
HETATM    1  C1  UNL     1      -4.313   0.227  16.407  1.00  0.00     0.014 C 
HETATM    2  C2  UNL     1      -4.562   0.360  15.228  1.00  0.00    -0.082 C 
HETATM    3  C3  UNL     1      -4.842   0.520  13.799  1.00  0.00     0.299 C 
HETATM    4  C4  UNL     1      -4.155  -0.512  12.970  1.00  0.00     0.057 C 
ENDROOT
BRANCH   3   5
HETATM    5  N1  UNL     1      -4.569   1.875  13.417  1.00  0.00     0.132 N 
HETATM    6  C5  UNL     1      -4.677   2.816  14.506  1.00  0.00     0.279 C 
HETATM    7  C6  UNL     1      -5.238   4.156  14.300  1.00  0.00     0.052 C 
HETATM    8  C7  UNL     1      -4.706   4.956  13.086  1.00  0.00     0.072 C 
HETATM    9  C19 UNL     1      -4.232   3.948  12.230  1.00  0.00     0.142 C 
HETATM   10  C20 UNL     1      -3.678   3.767  10.914  1.00  0.00     0.038 C 
HETATM   11  O3  UNL     1      -3.124   3.394  12.899  1.00  0.00    -0.350 OA
HETATM   12  C21 UNL     1      -3.534   2.207  11.111  1.00  0.00     0.067 C 
HETATM   13  C22 UNL     1      -3.393   2.036  12.609  1.00  0.00     0.360 C 
BRANCH   8  14
HETATM   14  C8  UNL     1      -5.916   5.606  12.455  1.00  0.00     0.229 C 
HETATM   15  O1  UNL     1      -7.016   5.648  13.060  1.00  0.00    -0.273 OA
HETATM   16  N2  UNL     1      -5.883   6.196  11.167  1.00  0.00    -0.353 N 
ATOM     17  H2  UNL     1      -5.001   6.174  10.656  1.00  0.00     0.163 HD
BRANCH  16  18
HETATM   18  C9  UNL     1      -7.006   6.821  10.536  1.00  0.00     0.112 C 
BRANCH  18  19
HETATM   19  C10 UNL     1      -7.458   6.087   9.290  1.00  0.00     0.189 C 
BRANCH  19  20
HETATM   20  O2  UNL     1      -6.817   4.863   9.251  1.00  0.00    -0.399 OA
ATOM     21  H2  UNL     1      -6.964   4.477   8.395  1.00  0.00     0.209 HD
ENDBRANCH  19  20
ENDBRANCH  18  19
BRANCH  18  22
HETATM   22  C11 UNL     1      -6.732   8.247  10.103  1.00  0.00     0.010 A 
HETATM   23  C12 UNL     1      -5.276   8.671  10.038  1.00  0.00     0.007 A 
HETATM   24  C13 UNL     1      -6.261   9.288  11.015  1.00  0.00     0.007 A 
ENDBRANCH  18  22
ENDBRANCH  16  18
ENDBRANCH   8  14
BRANCH   8  25
HETATM   25  C14 UNL     1      -3.851   6.046  13.582  1.00  0.00     0.006 C 
HETATM   26  C15 UNL     1      -2.789   6.537  12.654  1.00  0.00     0.006 C 
HETATM   27  C16 UNL     1      -2.159   7.647  13.511  1.00  0.00     0.000 C 
HETATM   28  C17 UNL     1      -2.384   7.210  14.962  1.00  0.00     0.000 C 
HETATM   29  C18 UNL     1      -3.123   5.861  14.861  1.00  0.00     0.006 C 
ENDBRANCH   8  25
ENDBRANCH   3   5
TORSDOF 7
ENDMDL
MODEL 4
REMARK VINA RESULT: -7.035236445      2.966      7.082
REMARK  7 active torsions:
REMARK  status: ('A' for Active; 'I' for Inactive)
REMARK    1  A    between atoms: C3_3  and  N1_5 
REMARK    2  A    between atoms: C7_8  and  C8_9 
REMARK    3  A    between atoms: C7_8  and  C14_20 
REMARK       I    between atoms: C8_9  and  N2_11 
REMARK    4  A    between atoms: N2_11  and  C9_13 
REMARK    5  A    between atoms: C9_13  and  C10_14 
REMARK    6  A    between atoms: C9_13  and  C11_17 
REMARK    7  A    between atoms: C10_14  and  O2_15 
ROOT
HETATM    1  C1  UNL     1      -4.969   0.592  11.573  1.00  0.00     0.014 C 
HETATM    2  C2  UNL     1      -4.637   1.062  12.640  1.00  0.00    -0.082 C 
HETATM    3  C3  UNL     1      -4.252   1.643  13.928  1.00  0.00     0.299 C 
HETATM    4  C4  UNL     1      -5.411   1.775  14.858  1.00  0.00     0.057 C 
ENDROOT
BRANCH   3   5
HETATM    5  N1  UNL     1      -3.529   2.860  13.695  1.00  0.00     0.132 N 
HETATM    6  C5  UNL     1      -3.935   3.947  14.552  1.00  0.00     0.279 C 
HETATM    7  C6  UNL     1      -4.005   5.324  14.052  1.00  0.00     0.052 C 
HETATM    8  C7  UNL     1      -2.786   5.838  13.247  1.00  0.00     0.072 C 
HETATM    9  C19 UNL     1      -2.198   4.651  12.779  1.00  0.00     0.142 C 
HETATM   10  C20 UNL     1      -1.133   4.191  11.926  1.00  0.00     0.038 C 
HETATM   11  O3  UNL     1      -1.713   4.005  13.930  1.00  0.00    -0.350 OA
HETATM   12  C21 UNL     1      -1.460   2.674  12.216  1.00  0.00     0.067 C 
HETATM   13  C22 UNL     1      -2.107   2.691  13.585  1.00  0.00     0.360 C 
BRANCH   8  14
HETATM   14  C8  UNL     1      -3.354   6.602  12.074  1.00  0.00     0.229 C 
HETATM   15  O1  UNL     1      -2.698   6.734  11.010  1.00  0.00    -0.273 OA
HETATM   16  N2  UNL     1      -4.637   7.203  12.100  1.00  0.00    -0.353 N 
ATOM     17  H2  UNL     1      -5.188   7.110  12.953  1.00  0.00     0.163 HD
BRANCH  16  18
HETATM   18  C9  UNL     1      -5.210   7.933  11.011  1.00  0.00     0.112 C 
BRANCH  18  19
HETATM   19  C10 UNL     1      -4.790   9.389  10.998  1.00  0.00     0.189 C 
BRANCH  19  20
HETATM   20  O2  UNL     1      -3.679   9.513  10.185  1.00  0.00    -0.399 OA
ATOM     21  H2  UNL     1      -3.194  10.283  10.458  1.00  0.00     0.209 HD
ENDBRANCH  19  20
ENDBRANCH  18  19
BRANCH  18  22
HETATM   22  C11 UNL     1      -6.725   7.937  11.023  1.00  0.00     0.010 A 
HETATM   23  C12 UNL     1      -7.400   6.918  11.924  1.00  0.00     0.007 A 
HETATM   24  C13 UNL     1      -7.536   6.885  10.412  1.00  0.00     0.007 A 
ENDBRANCH  18  22
ENDBRANCH  16  18
ENDBRANCH   8  14
BRANCH   8  25
HETATM   25  C14 UNL     1      -2.057   6.814  14.073  1.00  0.00     0.006 C 
HETATM   26  C15 UNL     1      -2.603   7.074  15.439  1.00  0.00     0.006 C 
HETATM   27  C16 UNL     1      -1.581   8.096  15.960  1.00  0.00     0.000 C 
HETATM   28  C17 UNL     1      -1.064   8.819  14.713  1.00  0.00     0.000 C 
HETATM   29  C18 UNL     1      -1.829   8.179  13.537  1.00  0.00     0.006 C 
ENDBRANCH   8  25
ENDBRANCH   3   5
TORSDOF 7
ENDMDL
MODEL 5
REMARK VINA RESULT: -7.030035068      2.588      6.863
REMARK  7 active torsions:
REMARK  status: ('A' for Active; 'I' for Inactive)
REMARK    1  A    between atoms: C3_3  and  N1_5 
REMARK    2  A    between atoms: C7_8  and  C8_9 
REMARK    3  A    between atoms: C7_8  and  C14_20 
REMARK       I    between atoms: C8_9  and  N2_11 
REMARK    4  A    between atoms: N2_11  and  C9_13 
REMARK    5  A    between atoms: C9_13  and  C10_14 
REMARK    6  A    between atoms: C9_13  and  C11_17 
REMARK    7  A    between atoms: C10_14  and  O2_15 
ROOT
HETATM    1  C1  UNL     1      -4.977  -0.730  11.415  1.00  0.00     0.014 C 
HETATM    2  C2  UNL     1      -4.496  -0.170  12.378  1.00  0.00    -0.082 C 
HETATM    3  C3  UNL     1      -3.936   0.512  13.546  1.00  0.00     0.299 C 
HETATM    4  C4  UNL     1      -4.665   0.173  14.803  1.00  0.00     0.057 C 
ENDROOT
BRANCH   3   5
HETATM    5  N1  UNL     1      -3.842   1.916  13.268  1.00  0.00     0.132 N 
HETATM    6  C5  UNL     1      -4.001   2.749  14.435  1.00  0.00     0.279 C 
HETATM    7  C6  UNL     1      -4.723   4.024  14.367  1.00  0.00     0.052 C 
HETATM    8  C7  UNL     1      -4.352   4.975  13.203  1.00  0.00     0.072 C 
HETATM    9  C19 UNL     1      -3.809   4.101  12.246  1.00  0.00     0.142 C 
HETATM   10  C20 UNL     1      -3.308   4.091  10.896  1.00  0.00     0.038 C 
HETATM   11  O3  UNL     1      -2.612   3.633  12.817  1.00  0.00    -0.350 OA
HETATM   12  C21 UNL     1      -2.975   2.549  10.955  1.00  0.00     0.067 C 
HETATM   13  C22 UNL     1      -2.737   2.279  12.426  1.00  0.00     0.360 C 
BRANCH   8  14
HETATM   14  C8  UNL     1      -5.660   5.523  12.681  1.00  0.00     0.229 C 
HETATM   15  O1  UNL     1      -6.734   5.339  13.307  1.00  0.00    -0.273 OA
HETATM   16  N2  UNL     1      -5.753   6.265  11.477  1.00  0.00    -0.353 N 
ATOM     17  H2  UNL     1      -4.895   6.427  10.951  1.00  0.00     0.163 HD
BRANCH  16  18
HETATM   18  C9  UNL     1      -6.971   6.800  10.950  1.00  0.00     0.112 C 
BRANCH  18  19
HETATM   19  C10 UNL     1      -7.297   6.263   9.571  1.00  0.00     0.189 C 
BRANCH  19  20
HETATM   20  O2  UNL     1      -6.778   4.986   9.470  1.00  0.00    -0.399 OA
ATOM     21  H2  UNL     1      -5.830   5.050   9.463  1.00  0.00     0.209 HD
ENDBRANCH  19  20
ENDBRANCH  18  19
BRANCH  18  22
HETATM   22  C11 UNL     1      -6.954   8.309  10.816  1.00  0.00     0.010 A 
HETATM   23  C12 UNL     1      -6.301   8.874   9.567  1.00  0.00     0.007 A 
HETATM   24  C13 UNL     1      -5.743   9.115  10.958  1.00  0.00     0.007 A 
ENDBRANCH  18  22
ENDBRANCH  16  18
ENDBRANCH   8  14
BRANCH   8  25
HETATM   25  C14 UNL     1      -3.604   6.118  13.751  1.00  0.00     0.006 C 
HETATM   26  C15 UNL     1      -2.654   6.802  12.824  1.00  0.00     0.006 C 
HETATM   27  C16 UNL     1      -2.113   7.909  13.743  1.00  0.00     0.000 C 
HETATM   28  C17 UNL     1      -2.211   7.337  15.161  1.00  0.00     0.000 C 
HETATM   29  C18 UNL     1      -2.794   5.922  14.979  1.00  0.00     0.006 C 
ENDBRANCH   8  25
ENDBRANCH   3   5
TORSDOF 7
ENDMDL
