MODEL 1
REMARK VINA RESULT: -7.379350079      0.000      0.000
REMARK  8 active torsions:
REMARK  status: ('A' for Active; 'I' for Inactive)
REMARK    1  A    between atoms: N1_2  and  C3_4 
REMARK    2  A    between atoms: C3_4  and  C4_5 
REMARK    3  A    between atoms: C4_5  and  C5_6 
REMARK    4  A    between atoms: C5_6  and  C6_7 
REMARK    5  A    between atoms: C10_11  and  O1_12 
REMARK    6  A    between atoms: N2_19  and  C16_20 
REMARK    7  A    between atoms: C16_20  and  C17_21 
REMARK    8  A    between atoms: C21_26  and  O3_27 
ROOT
HETATM    1  C6  UNL     1      -4.143   3.776  14.329  1.00  0.00     0.027 C 
HETATM    2  C7  UNL     1      -4.431   4.647  13.174  1.00  0.00    -0.043 A 
HETATM    3  C8  UNL     1      -5.015   5.874  12.754  1.00  0.00     0.011 A 
HETATM    4  C9  UNL     1      -5.272   6.107  11.386  1.00  0.00     0.040 A 
HETATM    5  C10 UNL     1      -4.971   5.144  10.388  1.00  0.00     0.099 A 
HETATM    6  C11 UNL     1      -4.407   3.961  10.797  1.00  0.00     0.112 A 
HETATM    7  C12 UNL     1      -4.226   3.921  12.108  1.00  0.00    -0.003 A 
HETATM    8  C13 UNL     1      -3.304   2.807  12.571  1.00  0.00     0.035 A 
HETATM    9  C14 UNL     1      -2.035   2.469  12.042  1.00  0.00     0.048 C 
HETATM   10  C15 UNL     1      -1.888   0.971  11.702  1.00  0.00     0.277 C 
HETATM   11  N2  UNL     1      -2.938   0.756  10.759  1.00  0.00     0.121 N 
HETATM   12  C20 UNL     1      -4.124   1.539  11.029  1.00  0.00     0.401 C 
HETATM   13  O2  UNL     1      -3.996   2.772  10.215  1.00  0.00    -0.310 OA
HETATM   14  C21 UNL     1      -4.406   1.745  12.468  1.00  0.00     0.130 A 
HETATM   15  C22 UNL     1      -3.918   2.325  13.702  1.00  0.00     0.050 A 
ENDROOT
BRANCH   1  16
HETATM   16  C5  UNL     1      -5.261   3.533  15.266  1.00  0.00     0.011 C 
BRANCH  16  17
HETATM   17  C4  UNL     1      -5.309   2.250  16.005  1.00  0.00     0.031 C 
BRANCH  17  18
HETATM   18  C3  UNL     1      -6.724   2.124  16.576  1.00  0.00     0.271 C 
BRANCH  18  19
HETATM   19  N1  UNL     1      -6.826   1.199  17.632  1.00  0.00     0.080 N 
HETATM   20  C1  UNL     1      -6.123  -0.022  17.349  1.00  0.00     0.309 C 
HETATM   21  C2  UNL     1      -6.625   1.609  18.960  1.00  0.00     0.309 C 
ENDBRANCH  18  19
ENDBRANCH  17  18
ENDBRANCH  16  17
ENDBRANCH   1  16
BRANCH  14  22
HETATM   22  O3  UNL     1      -5.775   2.050  12.523  1.00  0.00    -0.384 OA
ATOM     23  H3  UNL     1      -6.414   1.495  12.953  1.00  0.00     0.210 HD
ENDBRANCH  14  22
BRANCH   5  24
HETATM   24  O1  UNL     1      -5.197   5.309   9.062  1.00  0.00    -0.358 OA
ATOM     25  H1  UNL     1      -5.116   4.624   8.409  1.00  0.00     0.217 HD
ENDBRANCH   5  24
BRANCH  11  26
HETATM   26  C16 UNL     1      -3.169  -0.621  10.537  1.00  0.00     0.280 C 
BRANCH  26  27
HETATM   27  C17 UNL     1      -3.053  -1.461  11.766  1.00  0.00     0.014 A 
HETATM   28  C18 UNL     1      -4.335  -2.223  12.147  1.00  0.00     0.007 A 
HETATM   29  C19 UNL     1      -3.176  -2.985  11.608  1.00  0.00     0.007 A 
ENDBRANCH  26  27
ENDBRANCH  11  26
TORSDOF 8
ENDMDL
MODEL 2
REMARK VINA RESULT: -7.217092274      2.682      5.397
REMARK  8 active torsions:
REMARK  status: ('A' for Active; 'I' for Inactive)
REMARK    1  A    between atoms: N1_2  and  C3_4 
REMARK    2  A    between atoms: C3_4  and  C4_5 
REMARK    3  A    between atoms: C4_5  and  C5_6 
REMARK    4  A    between atoms: C5_6  and  C6_7 
REMARK    5  A    between atoms: C10_11  and  O1_12 
REMARK    6  A    between atoms: N2_19  and  C16_20 
REMARK    7  A    between atoms: C16_20  and  C17_21 
REMARK    8  A    between atoms: C21_26  and  O3_27 
ROOT
HETATM    1  C6  UNL     1      -4.782   2.425  14.859  1.00  0.00     0.027 C 
HETATM    2  C7  UNL     1      -4.244   1.875  13.601  1.00  0.00    -0.043 A 
HETATM    3  C8  UNL     1      -4.051   0.696  12.831  1.00  0.00     0.011 A 
HETATM    4  C9  UNL     1      -3.167   0.703  11.730  1.00  0.00     0.040 A 
HETATM    5  C10 UNL     1      -2.442   1.864  11.353  1.00  0.00     0.099 A 
HETATM    6  C11 UNL     1      -2.632   3.001  12.098  1.00  0.00     0.112 A 
HETATM    7  C12 UNL     1      -3.501   2.815  13.080  1.00  0.00    -0.003 A 
HETATM    8  C13 UNL     1      -4.008   4.100  13.708  1.00  0.00     0.035 A 
HETATM    9  C14 UNL     1      -4.492   5.250  13.038  1.00  0.00     0.048 C 
HETATM   10  C15 UNL     1      -3.830   6.562  13.507  1.00  0.00     0.277 C 
HETATM   11  N2  UNL     1      -2.446   6.330  13.243  1.00  0.00     0.121 N 
HETATM   12  C20 UNL     1      -2.043   4.956  13.451  1.00  0.00     0.401 C 
HETATM   13  O2  UNL     1      -2.140   4.296  12.126  1.00  0.00    -0.310 OA
HETATM   14  C21 UNL     1      -2.745   4.273  14.561  1.00  0.00     0.130 A 
HETATM   15  C22 UNL     1      -4.030   3.820  15.053  1.00  0.00     0.050 A 
ENDROOT
BRANCH   1  16
HETATM   16  C5  UNL     1      -4.420   1.708  16.101  1.00  0.00     0.011 C 
BRANCH  16  17
HETATM   17  C4  UNL     1      -4.785   0.279  16.234  1.00  0.00     0.031 C 
BRANCH  17  18
HETATM   18  C3  UNL     1      -5.473   0.127  17.594  1.00  0.00     0.271 C 
BRANCH  18  19
HETATM   19  N1  UNL     1      -6.384   1.160  17.883  1.00  0.00     0.080 N 
HETATM   20  C1  UNL     1      -7.694   0.887  17.359  1.00  0.00     0.309 C 
HETATM   21  C2  UNL     1      -6.455   1.707  19.174  1.00  0.00     0.309 C 
ENDBRANCH  18  19
ENDBRANCH  17  18
ENDBRANCH  16  17
ENDBRANCH   1  16
BRANCH  14  22
HETATM   22  O3  UNL     1      -1.904   3.207  14.914  1.00  0.00    -0.384 OA
ATOM     23  H3  UNL     1      -1.168   2.927  14.382  1.00  0.00     0.210 HD
ENDBRANCH  14  22
BRANCH   5  24
HETATM   24  O1  UNL     1      -1.580   1.930  10.309  1.00  0.00    -0.358 OA
ATOM     25  H1  UNL     1      -1.809   2.227   9.436  1.00  0.00     0.217 HD
ENDBRANCH   5  24
BRANCH  11  26
HETATM   26  C16 UNL     1      -1.625   7.294  13.871  1.00  0.00     0.280 C 
BRANCH  26  27
HETATM   27  C17 UNL     1      -2.312   8.070  14.945  1.00  0.00     0.014 A 
HETATM   28  C18 UNL     1      -1.580   8.083  16.299  1.00  0.00     0.007 A 
HETATM   29  C19 UNL     1      -1.610   9.327  15.484  1.00  0.00     0.007 A 
ENDBRANCH  26  27
ENDBRANCH  11  26
TORSDOF 8
ENDMDL
MODEL 3
REMARK VINA RESULT: -7.081534240      2.678      5.387
REMARK  8 active torsions:
REMARK  status: ('A' for Active; 'I' for Inactive)
REMARK    1  A    between atoms: N1_2  and  C3_4 
REMARK    2  A    between atoms: C3_4  and  C4_5 
REMARK    3  A    between atoms: C4_5  and  C5_6 
REMARK    4  A    between atoms: C5_6  and  C6_7 
REMARK    5  A    between atoms: C10_11  and  O1_12 
REMARK    6  A    between atoms: N2_19  and  C16_20 
REMARK    7  A    between atoms: C16_20  and  C17_21 
REMARK    8  A    between atoms: C21_26  and  O3_27 
ROOT
HETATM    1  C6  UNL     1      -5.494   2.941  14.431  1.00  0.00     0.027 C 
HETATM    2  C7  UNL     1      -4.728   2.205  13.408  1.00  0.00    -0.043 A 
HETATM    3  C8  UNL     1      -4.525   0.943  12.785  1.00  0.00     0.011 A 
HETATM    4  C9  UNL     1      -3.385   0.722  11.982  1.00  0.00     0.040 A 
HETATM    5  C10 UNL     1      -2.407   1.728  11.769  1.00  0.00     0.099 A 
HETATM    6  C11 UNL     1      -2.607   2.946  12.370  1.00  0.00     0.112 A 
HETATM    7  C12 UNL     1      -3.729   2.978  13.072  1.00  0.00    -0.003 A 
HETATM    8  C13 UNL     1      -4.174   4.375  13.464  1.00  0.00     0.035 A 
HETATM    9  C14 UNL     1      -4.264   5.513  12.627  1.00  0.00     0.048 C 
HETATM   10  C15 UNL     1      -3.552   6.757  13.197  1.00  0.00     0.277 C 
HETATM   11  N2  UNL     1      -2.205   6.309  13.351  1.00  0.00     0.121 N 
HETATM   12  C20 UNL     1      -2.101   4.917  13.734  1.00  0.00     0.401 C 
HETATM   13  O2  UNL     1      -1.938   4.156  12.472  1.00  0.00    -0.310 OA
HETATM   14  C21 UNL     1      -3.181   4.448  14.632  1.00  0.00     0.130 A 
HETATM   15  C22 UNL     1      -4.607   4.228  14.760  1.00  0.00     0.050 A 
ENDROOT
BRANCH   1  16
HETATM   16  C5  UNL     1      -5.605   2.300  15.759  1.00  0.00     0.011 C 
BRANCH  16  17
HETATM   17  C4  UNL     1      -6.720   2.691  16.651  1.00  0.00     0.031 C 
BRANCH  17  18
HETATM   18  C3  UNL     1      -7.463   1.402  17.017  1.00  0.00     0.271 C 
BRANCH  18  19
HETATM   19  N1  UNL     1      -6.986   0.792  18.192  1.00  0.00     0.080 N 
HETATM   20  C1  UNL     1      -6.135  -0.331  17.910  1.00  0.00     0.309 C 
HETATM   21  C2  UNL     1      -6.473   1.570  19.243  1.00  0.00     0.309 C 
ENDBRANCH  18  19
ENDBRANCH  17  18
ENDBRANCH  16  17
ENDBRANCH   1  16
BRANCH  14  22
HETATM   22  O3  UNL     1      -2.652   3.312  15.263  1.00  0.00    -0.384 OA
ATOM     23  H3  UNL     1      -2.079   3.356  16.019  1.00  0.00     0.210 HD
ENDBRANCH  14  22
BRANCH   5  24
HETATM   24  O1  UNL     1      -1.294   1.574  11.011  1.00  0.00    -0.358 OA
ATOM     25  H1  UNL     1      -0.426   1.399  11.355  1.00  0.00     0.217 HD
ENDBRANCH   5  24
BRANCH  11  26
HETATM   26  C16 UNL     1      -1.442   7.202  14.136  1.00  0.00     0.280 C 
BRANCH  26  27
HETATM   27  C17 UNL     1      -2.261   8.111  14.991  1.00  0.00     0.014 A 
HETATM   28  C18 UNL     1      -1.861   8.132  16.477  1.00  0.00     0.007 A 
HETATM   29  C19 UNL     1      -1.561   9.319  15.632  1.00  0.00     0.007 A 
ENDBRANCH  26  27
ENDBRANCH  11  26
TORSDOF 8
ENDMDL
MODEL 4
REMARK VINA RESULT: -6.926182580      0.983      1.290
REMARK  8 active torsions:
REMARK  status: ('A' for Active; 'I' for Inactive)
REMARK    1  A    between atoms: N1_2  and  C3_4 
REMARK    2  A    between atoms: C3_4  and  C4_5 
REMARK    3  A    between atoms: C4_5  and  C5_6 
REMARK    4  A    between atoms: C5_6  and  C6_7 
REMARK    5  A    between atoms: C10_11  and  O1_12 
REMARK    6  A    between atoms: N2_19  and  C16_20 
REMARK    7  A    between atoms: C16_20  and  C17_21 
REMARK    8  A    between atoms: C21_26  and  O3_27 
ROOT
HETATM    1  C6  UNL     1      -4.230   5.129  13.848  1.00  0.00     0.027 C 
HETATM    2  C7  UNL     1      -4.621   5.597  12.505  1.00  0.00    -0.043 A 
HETATM    3  C8  UNL     1      -5.415   6.526  11.777  1.00  0.00     0.011 A 
HETATM    4  C9  UNL     1      -5.635   6.343  10.395  1.00  0.00     0.040 A 
HETATM    5  C10 UNL     1      -5.089   5.241   9.684  1.00  0.00     0.099 A 
HETATM    6  C11 UNL     1      -4.323   4.347  10.389  1.00  0.00     0.112 A 
HETATM    7  C12 UNL     1      -4.213   4.682  11.666  1.00  0.00    -0.003 A 
HETATM    8  C13 UNL     1      -3.114   3.943  12.407  1.00  0.00     0.035 A 
HETATM    9  C14 UNL     1      -1.774   3.754  11.988  1.00  0.00     0.048 C 
HETATM   10  C15 UNL     1      -1.309   2.284  12.052  1.00  0.00     0.277 C 
HETATM   11  N2  UNL     1      -2.238   1.621  11.195  1.00  0.00     0.121 N 
HETATM   12  C20 UNL     1      -3.572   2.179  11.248  1.00  0.00     0.401 C 
HETATM   13  O2  UNL     1      -3.648   3.162  10.140  1.00  0.00    -0.310 OA
HETATM   14  C21 UNL     1      -3.972   2.683  12.582  1.00  0.00     0.130 A 
HETATM   15  C22 UNL     1      -3.681   3.647  13.623  1.00  0.00     0.050 A 
ENDROOT
BRANCH   1  16
HETATM   16  C5  UNL     1      -5.328   4.905  14.813  1.00  0.00     0.011 C 
BRANCH  16  17
HETATM   17  C4  UNL     1      -5.183   3.832  15.824  1.00  0.00     0.031 C 
BRANCH  17  18
HETATM   18  C3  UNL     1      -6.529   3.103  15.887  1.00  0.00     0.271 C 
BRANCH  18  19
HETATM   19  N1  UNL     1      -6.431   1.778  16.351  1.00  0.00     0.080 N 
HETATM   20  C1  UNL     1      -5.065   1.371  16.535  1.00  0.00     0.309 C 
HETATM   21  C2  UNL     1      -7.244   1.330  17.404  1.00  0.00     0.309 C 
ENDBRANCH  18  19
ENDBRANCH  17  18
ENDBRANCH  16  17
ENDBRANCH   1  16
BRANCH  14  22
HETATM   22  O3  UNL     1      -5.374   2.697  12.552  1.00  0.00    -0.384 OA
ATOM     23  H3  UNL     1      -5.907   1.941  12.764  1.00  0.00     0.210 HD
ENDBRANCH  14  22
BRANCH   5  24
HETATM   24  O1  UNL     1      -5.268   5.012   8.361  1.00  0.00    -0.358 OA
ATOM     25  H1  UNL     1      -4.584   4.737   7.762  1.00  0.00     0.217 HD
ENDBRANCH   5  24
BRANCH  11  26
HETATM   26  C16 UNL     1      -2.174   0.216  11.341  1.00  0.00     0.280 C 
BRANCH  26  27
HETATM   27  C17 UNL     1      -3.486  -0.473  11.164  1.00  0.00     0.014 A 
HETATM   28  C18 UNL     1      -3.474  -1.976  11.498  1.00  0.00     0.007 A 
HETATM   29  C19 UNL     1      -4.175  -1.039  12.416  1.00  0.00     0.007 A 
ENDBRANCH  26  27
ENDBRANCH  11  26
TORSDOF 8
ENDMDL
MODEL 5
REMARK VINA RESULT: -6.894598217      3.074      6.979
REMARK  8 active torsions:
REMARK  status: ('A' for Active; 'I' for Inactive)
REMARK    1  A    between atoms: N1_2  and  C3_4 
REMARK    2  A    between atoms: C3_4  and  C4_5 
REMARK    3  A    between atoms: C4_5  and  C5_6 
REMARK    4  A    between atoms: C5_6  and  C6_7 
REMARK    5  A    between atoms: C10_11  and  O1_12 
REMARK    6  A    between atoms: N2_19  and  C16_20 
REMARK    7  A    between atoms: C16_20  and  C17_21 
REMARK    8  A    between atoms: C21_26  and  O3_27 
ROOT
HETATM    1  C6  UNL     1      -0.826   2.927  11.962  1.00  0.00     0.027 C 
HETATM    2  C7  UNL     1      -1.862   1.901  11.743  1.00  0.00    -0.043 A 
HETATM    3  C8  UNL     1      -2.117   0.578  11.287  1.00  0.00     0.011 A 
HETATM    4  C9  UNL     1      -3.439   0.160  11.023  1.00  0.00     0.040 A 
HETATM    5  C10 UNL     1      -4.552   1.026  11.192  1.00  0.00     0.099 A 
HETATM    6  C11 UNL     1      -4.302   2.301  11.634  1.00  0.00     0.112 A 
HETATM    7  C12 UNL     1      -3.012   2.514  11.841  1.00  0.00    -0.003 A 
HETATM    8  C13 UNL     1      -2.713   3.765  12.647  1.00  0.00     0.035 A 
HETATM    9  C14 UNL     1      -3.324   4.171  13.858  1.00  0.00     0.048 C 
HETATM   10  C15 UNL     1      -3.838   5.626  13.833  1.00  0.00     0.277 C 
HETATM   11  N2  UNL     1      -4.760   5.616  12.743  1.00  0.00     0.121 N 
HETATM   12  C20 UNL     1      -4.359   4.750  11.656  1.00  0.00     0.401 C 
HETATM   13  O2  UNL     1      -5.031   3.450  11.898  1.00  0.00    -0.310 OA
HETATM   14  C21 UNL     1      -2.896   4.685  11.433  1.00  0.00     0.130 A 
HETATM   15  C22 UNL     1      -1.622   4.310  12.013  1.00  0.00     0.050 A 
ENDROOT
BRANCH   1  16
HETATM   16  C5  UNL     1       0.118   3.159  10.848  1.00  0.00     0.011 C 
BRANCH  16  17
HETATM   17  C4  UNL     1       0.759   4.488  10.719  1.00  0.00     0.031 C 
BRANCH  17  18
HETATM   18  C3  UNL     1       2.138   4.377  11.376  1.00  0.00     0.271 C 
BRANCH  18  19
HETATM   19  N1  UNL     1       2.287   5.192  12.514  1.00  0.00     0.080 N 
HETATM   20  C1  UNL     1       3.601   5.085  13.085  1.00  0.00     0.309 C 
HETATM   21  C2  UNL     1       1.843   6.524  12.499  1.00  0.00     0.309 C 
ENDBRANCH  18  19
ENDBRANCH  17  18
ENDBRANCH  16  17
ENDBRANCH   1  16
BRANCH  14  22
HETATM   22  O3  UNL     1      -2.756   4.247  10.108  1.00  0.00    -0.384 OA
ATOM     23  H3  UNL     1      -3.320   4.537   9.402  1.00  0.00     0.210 HD
ENDBRANCH  14  22
BRANCH   5  24
HETATM   24  O1  UNL     1      -5.841   0.682  10.953  1.00  0.00    -0.358 OA
ATOM     25  H1  UNL     1      -6.399   1.093  10.303  1.00  0.00     0.217 HD
ENDBRANCH   5  24
BRANCH  11  26
HETATM   26  C16 UNL     1      -5.129   6.925  12.358  1.00  0.00     0.280 C 
BRANCH  26  27
HETATM   27  C17 UNL     1      -6.358   6.987  11.514  1.00  0.00     0.014 A 
HETATM   28  C18 UNL     1      -7.623   7.461  12.253  1.00  0.00     0.007 A 
HETATM   29  C19 UNL     1      -6.986   8.366  11.259  1.00  0.00     0.007 A 
ENDBRANCH  26  27
ENDBRANCH  11  26
TORSDOF 8
ENDMDL
