MODEL 1
REMARK VINA RESULT: -6.990254182      0.000      0.000
REMARK  6 active torsions:
REMARK  status: ('A' for Active; 'I' for Inactive)
REMARK    1  A    between atoms: N1_8  and  C8_9 
REMARK    2  A    between atoms: C8_9  and  C9_10 
REMARK    3  A    between atoms: C9_10  and  C10_11 
REMARK    4  A    between atoms: C10_11  and  N2_12 
REMARK       I    between atoms: N2_12  and  C11_14 
REMARK    5  A    between atoms: C11_14  and  C12_16 
REMARK    6  A    between atoms: C14_19  and  C15_20 
ROOT
HETATM    1  N2  UNL     1      -2.711   3.236  11.195  1.00  0.00    -0.359 N 
ATOM      2  H2  UNL     1      -3.436   3.941  11.057  1.00  0.00     0.162 HD
HETATM    3  C11 UNL     1      -3.015   2.075  11.964  1.00  0.00     0.242 C 
HETATM    4  O1  UNL     1      -2.091   1.234  12.106  1.00  0.00    -0.271 OA
ENDROOT
BRANCH   3   5
HETATM    5  C12 UNL     1      -4.318   1.821  12.581  1.00  0.00     0.200 C 
HETATM    6  C13 UNL     1      -4.292   0.686  13.575  1.00  0.00     0.203 C 
HETATM    7  O2  UNL     1      -4.258   1.087  14.896  1.00  0.00    -0.373 OA
HETATM    8  C14 UNL     1      -5.469   1.775  15.169  1.00  0.00     0.217 C 
HETATM    9  C20 UNL     1      -5.269   3.109  14.529  1.00  0.00     0.247 C 
HETATM   10  O3  UNL     1      -5.441   4.204  15.107  1.00  0.00    -0.271 OA
HETATM   11  N3  UNL     1      -4.848   3.044  13.149  1.00  0.00    -0.344 N 
ATOM     12  H3  UNL     1      -4.926   3.875  12.563  1.00  0.00     0.163 HD
BRANCH   8  13
HETATM   13  C15 UNL     1      -5.661   1.880  16.666  1.00  0.00     0.024 C 
HETATM   14  C16 UNL     1      -5.216   0.638  17.370  1.00  0.00     0.007 C 
HETATM   15  C17 UNL     1      -6.421   0.162  18.181  1.00  0.00     0.000 C 
HETATM   16  C18 UNL     1      -7.590   0.674  17.384  1.00  0.00     0.000 C 
HETATM   17  C19 UNL     1      -7.132   2.039  16.941  1.00  0.00     0.007 C 
ENDBRANCH   8  13
ENDBRANCH   3   5
BRANCH   1  18
HETATM   18  C10 UNL     1      -1.413   3.444  10.606  1.00  0.00     0.124 C 
BRANCH  18  19
HETATM   19  C9  UNL     1      -0.913   4.804  11.015  1.00  0.00     0.050 C 
BRANCH  19  20
HETATM   20  C8  UNL     1      -0.487   4.769  12.437  1.00  0.00     0.275 C 
BRANCH  20  21
HETATM   21  N1  UNL     1      -0.902   5.928  13.203  1.00  0.00     0.097 N 
HETATM   22  C2  UNL     1      -1.345   7.027  12.365  1.00  0.00     0.219 C 
HETATM   23  C1  UNL     1      -0.293   8.062  12.136  1.00  0.00     0.043 C 
HETATM   24  C3  UNL     1      -2.554   7.742  12.969  1.00  0.00     0.035 C 
HETATM   25  C4  UNL     1      -2.300   7.929  14.443  1.00  0.00     0.004 C 
HETATM   26  C5  UNL     1      -2.343   6.582  15.092  1.00  0.00     0.035 C 
HETATM   27  C6  UNL     1      -2.056   5.545  13.998  1.00  0.00     0.219 C 
HETATM   28  C7  UNL     1      -1.855   4.237  14.719  1.00  0.00     0.043 C 
ENDBRANCH  20  21
ENDBRANCH  19  20
ENDBRANCH  18  19
ENDBRANCH   1  18
TORSDOF 6
ENDMDL
MODEL 2
REMARK VINA RESULT: -6.897639215      1.100      1.245
REMARK  6 active torsions:
REMARK  status: ('A' for Active; 'I' for Inactive)
REMARK    1  A    between atoms: N1_8  and  C8_9 
REMARK    2  A    between atoms: C8_9  and  C9_10 
REMARK    3  A    between atoms: C9_10  and  C10_11 
REMARK    4  A    between atoms: C10_11  and  N2_12 
REMARK       I    between atoms: N2_12  and  C11_14 
REMARK    5  A    between atoms: C11_14  and  C12_16 
REMARK    6  A    between atoms: C14_19  and  C15_20 
ROOT
HETATM    1  N2  UNL     1      -1.854   2.351  12.484  1.00  0.00    -0.359 N 
ATOM      2  H2  UNL     1      -1.915   2.598  13.472  1.00  0.00     0.162 HD
HETATM    3  C11 UNL     1      -3.011   1.842  11.826  1.00  0.00     0.242 C 
HETATM    4  O1  UNL     1      -2.887   1.554  10.609  1.00  0.00    -0.271 OA
ENDROOT
BRANCH   3   5
HETATM    5  C12 UNL     1      -4.304   1.645  12.483  1.00  0.00     0.200 C 
HETATM    6  C13 UNL     1      -4.304   0.494  13.459  1.00  0.00     0.203 C 
HETATM    7  O2  UNL     1      -4.205   0.872  14.784  1.00  0.00    -0.373 OA
HETATM    8  C14 UNL     1      -5.370   1.617  15.108  1.00  0.00     0.217 C 
HETATM    9  C20 UNL     1      -5.122   2.949  14.480  1.00  0.00     0.247 C 
HETATM   10  O3  UNL     1      -5.219   4.042  15.080  1.00  0.00    -0.271 OA
HETATM   11  N3  UNL     1      -4.752   2.884  13.086  1.00  0.00    -0.344 N 
ATOM     12  H3  UNL     1      -4.807   3.727  12.515  1.00  0.00     0.163 HD
BRANCH   8  13
HETATM   13  C15 UNL     1      -5.506   1.708  16.612  1.00  0.00     0.024 C 
HETATM   14  C16 UNL     1      -5.218   0.398  17.274  1.00  0.00     0.007 C 
HETATM   15  C17 UNL     1      -6.455   0.070  18.109  1.00  0.00     0.000 C 
HETATM   16  C18 UNL     1      -7.563   0.757  17.359  1.00  0.00     0.000 C 
HETATM   17  C19 UNL     1      -6.933   2.058  16.933  1.00  0.00     0.007 C 
ENDBRANCH   8  13
ENDBRANCH   3   5
BRANCH   1  18
HETATM   18  C10 UNL     1      -0.600   2.529  11.796  1.00  0.00     0.124 C 
BRANCH  18  19
HETATM   19  C9  UNL     1      -0.519   3.951  11.307  1.00  0.00     0.050 C 
BRANCH  19  20
HETATM   20  C8  UNL     1      -0.501   4.875  12.469  1.00  0.00     0.275 C 
BRANCH  20  21
HETATM   21  N1  UNL     1      -1.516   5.908  12.413  1.00  0.00     0.097 N 
HETATM   22  C2  UNL     1      -2.198   5.957  11.132  1.00  0.00     0.219 C 
HETATM   23  C1  UNL     1      -1.661   7.002  10.210  1.00  0.00     0.043 C 
HETATM   24  C3  UNL     1      -3.692   6.234  11.302  1.00  0.00     0.035 C 
HETATM   25  C4  UNL     1      -3.852   7.333  12.322  1.00  0.00     0.004 C 
HETATM   26  C5  UNL     1      -3.455   6.785  13.656  1.00  0.00     0.035 C 
HETATM   27  C6  UNL     1      -2.536   5.583  13.394  1.00  0.00     0.219 C 
HETATM   28  C7  UNL     1      -1.955   5.214  14.734  1.00  0.00     0.043 C 
ENDBRANCH  20  21
ENDBRANCH  19  20
ENDBRANCH  18  19
ENDBRANCH   1  18
TORSDOF 6
ENDMDL
MODEL 3
REMARK VINA RESULT: -6.869302524      1.670      2.340
REMARK  6 active torsions:
REMARK  status: ('A' for Active; 'I' for Inactive)
REMARK    1  A    between atoms: N1_8  and  C8_9 
REMARK    2  A    between atoms: C8_9  and  C9_10 
REMARK    3  A    between atoms: C9_10  and  C10_11 
REMARK    4  A    between atoms: C10_11  and  N2_12 
REMARK       I    between atoms: N2_12  and  C11_14 
REMARK    5  A    between atoms: C11_14  and  C12_16 
REMARK    6  A    between atoms: C14_19  and  C15_20 
ROOT
HETATM    1  N2  UNL     1      -2.120   2.803  11.225  1.00  0.00    -0.359 N 
ATOM      2  H2  UNL     1      -2.649   3.668  11.115  1.00  0.00     0.162 HD
HETATM    3  C11 UNL     1      -2.712   1.716  11.933  1.00  0.00     0.242 C 
HETATM    4  O1  UNL     1      -2.022   0.671  12.041  1.00  0.00    -0.271 OA
ENDROOT
BRANCH   3   5
HETATM    5  C12 UNL     1      -4.050   1.759  12.524  1.00  0.00     0.200 C 
HETATM    6  C13 UNL     1      -4.348   0.569  13.404  1.00  0.00     0.203 C 
HETATM    7  O2  UNL     1      -4.241   0.822  14.757  1.00  0.00    -0.373 OA
HETATM    8  C14 UNL     1      -5.235   1.777  15.097  1.00  0.00     0.217 C 
HETATM    9  C20 UNL     1      -4.676   3.064  14.588  1.00  0.00     0.247 C 
HETATM   10  O3  UNL     1      -4.568   4.107  15.270  1.00  0.00    -0.271 OA
HETATM   11  N3  UNL     1      -4.254   3.020  13.208  1.00  0.00    -0.344 N 
ATOM     12  H3  UNL     1      -4.097   3.893  12.705  1.00  0.00     0.163 HD
BRANCH   8  13
HETATM   13  C15 UNL     1      -5.429   1.789  16.598  1.00  0.00     0.024 C 
HETATM   14  C16 UNL     1      -5.174   0.444  17.200  1.00  0.00     0.007 C 
HETATM   15  C17 UNL     1      -6.444   0.081  17.968  1.00  0.00     0.000 C 
HETATM   16  C18 UNL     1      -7.518   0.816  17.214  1.00  0.00     0.000 C 
HETATM   17  C19 UNL     1      -6.865   2.133  16.883  1.00  0.00     0.007 C 
ENDBRANCH   8  13
ENDBRANCH   3   5
BRANCH   1  18
HETATM   18  C10 UNL     1      -0.797   2.715  10.659  1.00  0.00     0.124 C 
BRANCH  18  19
HETATM   19  C9  UNL     1       0.184   3.295  11.644  1.00  0.00     0.050 C 
BRANCH  19  20
HETATM   20  C8  UNL     1       1.262   4.005  10.910  1.00  0.00     0.275 C 
BRANCH  20  21
HETATM   21  N1  UNL     1       1.389   5.405  11.263  1.00  0.00     0.097 N 
HETATM   22  C2  UNL     1       0.115   6.022  11.581  1.00  0.00     0.219 C 
HETATM   23  C1  UNL     1      -0.480   6.783  10.442  1.00  0.00     0.043 C 
HETATM   24  C3  UNL     1       0.239   6.996  12.753  1.00  0.00     0.035 C 
HETATM   25  C4  UNL     1       1.484   7.821  12.547  1.00  0.00     0.004 C 
HETATM   26  C5  UNL     1       2.667   6.923  12.725  1.00  0.00     0.035 C 
HETATM   27  C6  UNL     1       2.184   5.487  12.476  1.00  0.00     0.219 C 
HETATM   28  C7  UNL     1       3.430   4.643  12.411  1.00  0.00     0.043 C 
ENDBRANCH  20  21
ENDBRANCH  19  20
ENDBRANCH  18  19
ENDBRANCH   1  18
TORSDOF 6
ENDMDL
MODEL 4
REMARK VINA RESULT: -6.855601420      2.054      3.237
REMARK  6 active torsions:
REMARK  status: ('A' for Active; 'I' for Inactive)
REMARK    1  A    between atoms: N1_8  and  C8_9 
REMARK    2  A    between atoms: C8_9  and  C9_10 
REMARK    3  A    between atoms: C9_10  and  C10_11 
REMARK    4  A    between atoms: C10_11  and  N2_12 
REMARK       I    between atoms: N2_12  and  C11_14 
REMARK    5  A    between atoms: C11_14  and  C12_16 
REMARK    6  A    between atoms: C14_19  and  C15_20 
ROOT
HETATM    1  N2  UNL     1      -2.483   2.614  10.931  1.00  0.00    -0.359 N 
ATOM      2  H2  UNL     1      -3.133   3.365  10.701  1.00  0.00     0.162 HD
HETATM    3  C11 UNL     1      -2.897   1.597  11.840  1.00  0.00     0.242 C 
HETATM    4  O1  UNL     1      -2.062   0.692  12.092  1.00  0.00    -0.271 OA
ENDROOT
BRANCH   3   5
HETATM    5  C12 UNL     1      -4.214   1.557  12.477  1.00  0.00     0.200 C 
HETATM    6  C13 UNL     1      -4.373   0.405  13.439  1.00  0.00     0.203 C 
HETATM    7  O2  UNL     1      -4.248   0.754  14.769  1.00  0.00    -0.373 OA
HETATM    8  C14 UNL     1      -5.314   1.636  15.086  1.00  0.00     0.217 C 
HETATM    9  C20 UNL     1      -4.892   2.933  14.478  1.00  0.00     0.247 C 
HETATM   10  O3  UNL     1      -4.859   4.023  15.090  1.00  0.00    -0.271 OA
HETATM   11  N3  UNL     1      -4.512   2.837  13.089  1.00  0.00    -0.344 N 
ATOM     12  H3  UNL     1      -4.451   3.686  12.527  1.00  0.00     0.163 HD
BRANCH   8  13
HETATM   13  C15 UNL     1      -5.461   1.727  16.589  1.00  0.00     0.024 C 
HETATM   14  C16 UNL     1      -5.181   0.417  17.254  1.00  0.00     0.007 C 
HETATM   15  C17 UNL     1      -6.426   0.093  18.080  1.00  0.00     0.000 C 
HETATM   16  C18 UNL     1      -7.526   0.784  17.322  1.00  0.00     0.000 C 
HETATM   17  C19 UNL     1      -6.889   2.083  16.901  1.00  0.00     0.007 C 
ENDBRANCH   8  13
ENDBRANCH   3   5
BRANCH   1  18
HETATM   18  C10 UNL     1      -1.174   2.612  10.328  1.00  0.00     0.124 C 
BRANCH  18  19
HETATM   19  C9  UNL     1      -0.287   3.550  11.104  1.00  0.00     0.050 C 
BRANCH  19  20
HETATM   20  C8  UNL     1       0.137   4.671  10.228  1.00  0.00     0.275 C 
BRANCH  20  21
HETATM   21  N1  UNL     1       1.349   5.334  10.667  1.00  0.00     0.097 N 
HETATM   22  C2  UNL     1       1.453   5.412  12.113  1.00  0.00     0.219 C 
HETATM   23  C1  UNL     1       1.016   6.726  12.672  1.00  0.00     0.043 C 
HETATM   24  C3  UNL     1       2.889   5.180  12.585  1.00  0.00     0.035 C 
HETATM   25  C4  UNL     1       3.811   5.964  11.685  1.00  0.00     0.004 C 
HETATM   26  C5  UNL     1       3.790   5.322  10.334  1.00  0.00     0.035 C 
HETATM   27  C6  UNL     1       2.478   4.533  10.230  1.00  0.00     0.219 C 
HETATM   28  C7  UNL     1       2.367   4.114   8.787  1.00  0.00     0.043 C 
ENDBRANCH  20  21
ENDBRANCH  19  20
ENDBRANCH  18  19
ENDBRANCH   1  18
TORSDOF 6
ENDMDL
MODEL 5
REMARK VINA RESULT: -6.819034190      1.064      1.713
REMARK  6 active torsions:
REMARK  status: ('A' for Active; 'I' for Inactive)
REMARK    1  A    between atoms: N1_8  and  C8_9 
REMARK    2  A    between atoms: C8_9  and  C9_10 
REMARK    3  A    between atoms: C9_10  and  C10_11 
REMARK    4  A    between atoms: C10_11  and  N2_12 
REMARK       I    between atoms: N2_12  and  C11_14 
REMARK    5  A    between atoms: C11_14  and  C12_16 
REMARK    6  A    between atoms: C14_19  and  C15_20 
ROOT
HETATM    1  N2  UNL     1      -2.394   2.622  10.914  1.00  0.00    -0.359 N 
ATOM      2  H2  UNL     1      -3.023   3.390  10.681  1.00  0.00     0.162 HD
HETATM    3  C11 UNL     1      -2.839   1.615  11.819  1.00  0.00     0.242 C 
HETATM    4  O1  UNL     1      -2.028   0.689  12.075  1.00  0.00    -0.271 OA
ENDROOT
BRANCH   3   5
HETATM    5  C12 UNL     1      -4.160   1.608  12.449  1.00  0.00     0.200 C 
HETATM    6  C13 UNL     1      -4.352   0.461  13.410  1.00  0.00     0.203 C 
HETATM    7  O2  UNL     1      -4.226   0.807  14.741  1.00  0.00    -0.373 OA
HETATM    8  C14 UNL     1      -5.272   1.715  15.052  1.00  0.00     0.217 C 
HETATM    9  C20 UNL     1      -4.815   3.001  14.446  1.00  0.00     0.247 C 
HETATM   10  O3  UNL     1      -4.759   4.090  15.057  1.00  0.00    -0.271 OA
HETATM   11  N3  UNL     1      -4.429   2.894  13.059  1.00  0.00    -0.344 N 
ATOM     12  H3  UNL     1      -4.345   3.741  12.497  1.00  0.00     0.163 HD
BRANCH   8  13
HETATM   13  C15 UNL     1      -5.425   1.811  16.554  1.00  0.00     0.024 C 
HETATM   14  C16 UNL     1      -5.090   0.519  17.229  1.00  0.00     0.007 C 
HETATM   15  C17 UNL     1      -6.320   0.148  18.056  1.00  0.00     0.000 C 
HETATM   16  C18 UNL     1      -7.448   0.785  17.292  1.00  0.00     0.000 C 
HETATM   17  C19 UNL     1      -6.868   2.107  16.861  1.00  0.00     0.007 C 
ENDBRANCH   8  13
ENDBRANCH   3   5
BRANCH   1  18
HETATM   18  C10 UNL     1      -1.082   2.588  10.318  1.00  0.00     0.124 C 
BRANCH  18  19
HETATM   19  C9  UNL     1      -0.335   3.828  10.733  1.00  0.00     0.050 C 
BRANCH  19  20
HETATM   20  C8  UNL     1      -0.482   4.030  12.196  1.00  0.00     0.275 C 
BRANCH  20  21
HETATM   21  N1  UNL     1       0.069   5.282  12.674  1.00  0.00     0.097 N 
HETATM   22  C2  UNL     1       1.219   5.720  11.905  1.00  0.00     0.219 C 
HETATM   23  C1  UNL     1       2.527   5.372  12.536  1.00  0.00     0.043 C 
HETATM   24  C3  UNL     1       1.212   7.235  11.697  1.00  0.00     0.035 C 
HETATM   25  C4  UNL     1       0.847   7.886  13.006  1.00  0.00     0.004 C 
HETATM   26  C5  UNL     1      -0.588   7.576  13.291  1.00  0.00     0.035 C 
HETATM   27  C6  UNL     1      -0.941   6.310  12.498  1.00  0.00     0.219 C 
HETATM   28  C7  UNL     1      -2.297   5.881  12.996  1.00  0.00     0.043 C 
ENDBRANCH  20  21
ENDBRANCH  19  20
ENDBRANCH  18  19
ENDBRANCH   1  18
TORSDOF 6
ENDMDL
