MODEL 1
REMARK VINA RESULT: -7.502378537      0.000      0.000
REMARK  6 active torsions:
REMARK  status: ('A' for Active; 'I' for Inactive)
REMARK    1  A    between atoms: C6_10  and  S1_11 
REMARK    2  A    between atoms: S1_11  and  C7_12 
REMARK    3  A    between atoms: C7_12  and  C8_13 
REMARK       I    between atoms: C8_13  and  N3_15 
REMARK    4  A    between atoms: N3_15  and  C10_17 
REMARK    5  A    between atoms: C10_17  and  C11_18 
REMARK       I    between atoms: C11_18  and  N4_20 
REMARK    6  A    between atoms: N4_20  and  C12_22 
ROOT
HETATM    1  C8  UNL     1      -1.535   4.546  13.394  1.00  0.00     0.229 C 
HETATM    2  O1  UNL     1      -1.687   3.696  14.307  1.00  0.00    -0.273 OA
HETATM    3  N3  UNL     1      -2.442   5.625  13.302  1.00  0.00    -0.347 N 
HETATM    4  C9  UNL     1      -2.280   6.602  12.264  1.00  0.00     0.153 C 
ENDROOT
BRANCH   1   5
HETATM    5  C7  UNL     1      -0.398   4.358  12.459  1.00  0.00     0.183 C 
BRANCH   5   6
HETATM    6  S1  UNL     1      -0.752   3.117  11.204  1.00  0.00    -0.101 SA
BRANCH   6   7
HETATM    7  C6  UNL     1      -2.486   2.867  10.982  1.00  0.00     0.093 A 
HETATM    8  N2  UNL     1      -3.431   3.645  10.432  1.00  0.00    -0.293 N 
HETATM    9  N1  UNL     1      -4.623   3.044  10.481  1.00  0.00    -0.303 N 
ATOM     10  H2  UNL     1      -3.263   4.569  10.032  1.00  0.00     0.187 HD
HETATM   11  C5  UNL     1      -4.502   1.856  11.063  1.00  0.00     0.035 A 
ATOM     12  H1  UNL     1      -5.494   3.438  10.126  1.00  0.00     0.186 HD
HETATM   13  C4  UNL     1      -5.371   0.710  11.431  1.00  0.00     0.059 C 
HETATM   14  C18 UNL     1      -3.152   1.727  11.386  1.00  0.00     0.001 A 
HETATM   15  C3  UNL     1      -4.761  -0.579  10.933  1.00  0.00     0.010 C 
HETATM   16  C2  UNL     1      -3.283  -0.657  11.152  1.00  0.00    -0.014 C 
HETATM   17  C1  UNL     1      -2.878  -2.029  11.628  1.00  0.00     0.010 C 
HETATM   18  C19 UNL     1      -2.777   0.449  12.059  1.00  0.00     0.047 C 
ENDBRANCH   6   7
ENDBRANCH   5   6
ENDBRANCH   1   5
BRANCH   3  19
HETATM   19  C10 UNL     1      -3.537   5.764  14.234  1.00  0.00     0.227 C 
BRANCH  19  20
HETATM   20  C11 UNL     1      -4.496   4.658  14.160  1.00  0.00     0.235 C 
HETATM   21  O2  UNL     1      -5.190   4.548  13.117  1.00  0.00    -0.272 OA
HETATM   22  N4  UNL     1      -4.691   3.702  15.186  1.00  0.00    -0.355 N 
ATOM     23  H4  UNL     1      -4.138   3.774  16.040  1.00  0.00     0.162 HD
BRANCH  22  24
HETATM   24  C12 UNL     1      -5.658   2.619  15.062  1.00  0.00     0.084 C 
HETATM   25  C13 UNL     1      -6.749   2.760  16.063  1.00  0.00     0.025 C 
HETATM   26  C14 UNL     1      -6.816   1.531  16.917  1.00  0.00     0.002 C 
HETATM   27  C15 UNL     1      -5.445   1.302  17.524  1.00  0.00     0.000 C 
HETATM   28  C16 UNL     1      -4.433   0.941  16.455  1.00  0.00     0.002 C 
HETATM   29  C17 UNL     1      -4.963   1.273  15.074  1.00  0.00     0.025 C 
ENDBRANCH  22  24
ENDBRANCH  19  20
ENDBRANCH   3  19
TORSDOF 6
ENDMDL
MODEL 2
REMARK VINA RESULT: -7.336943757      1.816      5.242
REMARK  6 active torsions:
REMARK  status: ('A' for Active; 'I' for Inactive)
REMARK    1  A    between atoms: C6_10  and  S1_11 
REMARK    2  A    between atoms: S1_11  and  C7_12 
REMARK    3  A    between atoms: C7_12  and  C8_13 
REMARK       I    between atoms: C8_13  and  N3_15 
REMARK    4  A    between atoms: N3_15  and  C10_17 
REMARK    5  A    between atoms: C10_17  and  C11_18 
REMARK       I    between atoms: C11_18  and  N4_20 
REMARK    6  A    between atoms: N4_20  and  C12_22 
ROOT
HETATM    1  C8  UNL     1      -4.517   5.272  12.163  1.00  0.00     0.229 C 
HETATM    2  O1  UNL     1      -4.947   4.243  11.586  1.00  0.00    -0.273 OA
HETATM    3  N3  UNL     1      -3.133   5.551  12.130  1.00  0.00    -0.347 N 
HETATM    4  C9  UNL     1      -2.628   6.724  12.785  1.00  0.00     0.153 C 
ENDROOT
BRANCH   1   5
HETATM    5  C7  UNL     1      -5.504   6.139  12.852  1.00  0.00     0.183 C 
BRANCH   5   6
HETATM    6  S1  UNL     1      -6.005   5.462  14.444  1.00  0.00    -0.101 SA
BRANCH   6   7
HETATM    7  C6  UNL     1      -4.851   4.274  15.057  1.00  0.00     0.093 A 
HETATM    8  N2  UNL     1      -3.522   4.335  15.228  1.00  0.00    -0.293 N 
HETATM    9  N1  UNL     1      -3.058   3.186  15.726  1.00  0.00    -0.303 N 
ATOM     10  H2  UNL     1      -2.945   5.147  15.008  1.00  0.00     0.187 HD
HETATM   11  C5  UNL     1      -4.062   2.334  15.898  1.00  0.00     0.035 A 
ATOM     12  H1  UNL     1      -2.080   2.991  15.941  1.00  0.00     0.186 HD
HETATM   13  C4  UNL     1      -4.267   0.947  16.387  1.00  0.00     0.059 C 
HETATM   14  C18 UNL     1      -5.209   3.009  15.479  1.00  0.00     0.001 A 
HETATM   15  C3  UNL     1      -5.379   0.921  17.409  1.00  0.00     0.010 C 
HETATM   16  C2  UNL     1      -6.555   1.762  17.024  1.00  0.00    -0.014 C 
HETATM   17  C1  UNL     1      -7.851   1.057  17.336  1.00  0.00     0.010 C 
HETATM   18  C19 UNL     1      -6.479   2.233  15.584  1.00  0.00     0.047 C 
ENDBRANCH   6   7
ENDBRANCH   5   6
ENDBRANCH   1   5
BRANCH   3  19
HETATM   19  C10 UNL     1      -2.209   4.674  11.447  1.00  0.00     0.227 C 
BRANCH  19  20
HETATM   20  C11 UNL     1      -2.175   3.325  12.017  1.00  0.00     0.235 C 
HETATM   21  O2  UNL     1      -1.582   3.163  13.115  1.00  0.00    -0.272 OA
HETATM   22  N4  UNL     1      -2.767   2.189  11.413  1.00  0.00    -0.355 N 
ATOM     23  H4  UNL     1      -3.252   2.300  10.523  1.00  0.00     0.162 HD
BRANCH  22  24
HETATM   24  C12 UNL     1      -2.705   0.867  12.024  1.00  0.00     0.084 C 
HETATM   25  C13 UNL     1      -2.303  -0.162  11.028  1.00  0.00     0.025 C 
HETATM   26  C14 UNL     1      -3.355  -1.226  10.944  1.00  0.00     0.002 C 
HETATM   27  C15 UNL     1      -4.681  -0.555  10.640  1.00  0.00     0.000 C 
HETATM   28  C16 UNL     1      -5.133   0.304  11.805  1.00  0.00     0.002 C 
HETATM   29  C17 UNL     1      -3.989   0.556  12.766  1.00  0.00     0.025 C 
ENDBRANCH  22  24
ENDBRANCH  19  20
ENDBRANCH   3  19
TORSDOF 6
ENDMDL
MODEL 3
REMARK VINA RESULT: -7.022912882      2.347      5.110
REMARK  6 active torsions:
REMARK  status: ('A' for Active; 'I' for Inactive)
REMARK    1  A    between atoms: C6_10  and  S1_11 
REMARK    2  A    between atoms: S1_11  and  C7_12 
REMARK    3  A    between atoms: C7_12  and  C8_13 
REMARK       I    between atoms: C8_13  and  N3_15 
REMARK    4  A    between atoms: N3_15  and  C10_17 
REMARK    5  A    between atoms: C10_17  and  C11_18 
REMARK       I    between atoms: C11_18  and  N4_20 
REMARK    6  A    between atoms: N4_20  and  C12_22 
ROOT
HETATM    1  C8  UNL     1      -3.815   3.398  15.604  1.00  0.00     0.229 C 
HETATM    2  O1  UNL     1      -2.704   2.878  15.875  1.00  0.00    -0.273 OA
HETATM    3  N3  UNL     1      -4.986   2.618  15.725  1.00  0.00    -0.347 N 
HETATM    4  C9  UNL     1      -6.262   3.200  15.420  1.00  0.00     0.153 C 
ENDROOT
BRANCH   1   5
HETATM    5  C7  UNL     1      -3.825   4.817  15.170  1.00  0.00     0.183 C 
BRANCH   5   6
HETATM    6  S1  UNL     1      -3.595   4.982  13.392  1.00  0.00    -0.101 SA
BRANCH   6   7
HETATM    7  C6  UNL     1      -2.174   4.103  12.818  1.00  0.00     0.093 A 
HETATM    8  N2  UNL     1      -1.424   3.153  13.398  1.00  0.00    -0.293 N 
HETATM    9  N1  UNL     1      -0.436   2.771  12.585  1.00  0.00    -0.303 N 
ATOM     10  H2  UNL     1      -1.586   2.776  14.332  1.00  0.00     0.187 HD
HETATM   11  C5  UNL     1      -0.503   3.455  11.448  1.00  0.00     0.035 A 
ATOM     12  H1  UNL     1       0.263   2.063  12.803  1.00  0.00     0.186 HD
HETATM   13  C4  UNL     1       0.237   3.542  10.163  1.00  0.00     0.059 C 
HETATM   14  C18 UNL     1      -1.601   4.304  11.578  1.00  0.00     0.001 A 
HETATM   15  C3  UNL     1      -0.730   3.447   9.006  1.00  0.00     0.010 C 
HETATM   16  C2  UNL     1      -1.976   4.248   9.209  1.00  0.00    -0.014 C 
HETATM   17  C1  UNL     1      -2.371   4.966   7.944  1.00  0.00     0.010 C 
HETATM   18  C19 UNL     1      -1.872   5.181  10.401  1.00  0.00     0.047 C 
ENDBRANCH   6   7
ENDBRANCH   5   6
ENDBRANCH   1   5
BRANCH   3  19
HETATM   19  C10 UNL     1      -4.926   1.238  16.150  1.00  0.00     0.227 C 
BRANCH  19  20
HETATM   20  C11 UNL     1      -4.648   0.313  15.048  1.00  0.00     0.235 C 
HETATM   21  O2  UNL     1      -4.940  -0.901  15.209  1.00  0.00    -0.272 OA
HETATM   22  N4  UNL     1      -4.074   0.695  13.812  1.00  0.00    -0.355 N 
ATOM     23  H4  UNL     1      -3.831   1.673  13.662  1.00  0.00     0.162 HD
BRANCH  22  24
HETATM   24  C12 UNL     1      -3.818  -0.267  12.747  1.00  0.00     0.084 C 
HETATM   25  C13 UNL     1      -2.482  -0.041  12.133  1.00  0.00     0.025 C 
HETATM   26  C14 UNL     1      -2.634   0.206  10.663  1.00  0.00     0.002 C 
HETATM   27  C15 UNL     1      -3.605   1.356  10.475  1.00  0.00     0.000 C 
HETATM   28  C16 UNL     1      -5.000   0.965  10.918  1.00  0.00     0.002 C 
HETATM   29  C17 UNL     1      -4.967  -0.295  11.760  1.00  0.00     0.025 C 
ENDBRANCH  22  24
ENDBRANCH  19  20
ENDBRANCH   3  19
TORSDOF 6
ENDMDL
MODEL 4
REMARK VINA RESULT: -6.979958144      2.208      5.178
REMARK  6 active torsions:
REMARK  status: ('A' for Active; 'I' for Inactive)
REMARK    1  A    between atoms: C6_10  and  S1_11 
REMARK    2  A    between atoms: S1_11  and  C7_12 
REMARK    3  A    between atoms: C7_12  and  C8_13 
REMARK       I    between atoms: C8_13  and  N3_15 
REMARK    4  A    between atoms: N3_15  and  C10_17 
REMARK    5  A    between atoms: C10_17  and  C11_18 
REMARK       I    between atoms: C11_18  and  N4_20 
REMARK    6  A    between atoms: N4_20  and  C12_22 
ROOT
HETATM    1  C8  UNL     1      -0.662   5.363  11.811  1.00  0.00     0.229 C 
HETATM    2  O1  UNL     1       0.459   5.023  12.262  1.00  0.00    -0.273 OA
HETATM    3  N3  UNL     1      -1.385   4.453  11.008  1.00  0.00    -0.347 N 
HETATM    4  C9  UNL     1      -2.668   4.828  10.487  1.00  0.00     0.153 C 
ENDROOT
BRANCH   1   5
HETATM    5  C7  UNL     1      -1.163   6.717  12.156  1.00  0.00     0.183 C 
BRANCH   5   6
HETATM    6  S1  UNL     1      -1.786   6.798  13.843  1.00  0.00    -0.101 SA
BRANCH   6   7
HETATM    7  C6  UNL     1      -2.408   5.242  14.401  1.00  0.00     0.093 A 
HETATM    8  N2  UNL     1      -1.826   4.254  15.098  1.00  0.00    -0.293 N 
HETATM    9  N1  UNL     1      -2.685   3.250  15.297  1.00  0.00    -0.303 N 
ATOM     10  H2  UNL     1      -0.861   4.266  15.430  1.00  0.00     0.187 HD
HETATM   11  C5  UNL     1      -3.855   3.544  14.740  1.00  0.00     0.035 A 
ATOM     12  H1  UNL     1      -2.475   2.389  15.801  1.00  0.00     0.186 HD
HETATM   13  C4  UNL     1      -5.193   2.922  14.581  1.00  0.00     0.059 C 
HETATM   14  C18 UNL     1      -3.697   4.806  14.168  1.00  0.00     0.001 A 
HETATM   15  C3  UNL     1      -6.268   3.901  14.992  1.00  0.00     0.010 C 
HETATM   16  C2  UNL     1      -6.023   5.290  14.496  1.00  0.00    -0.014 C 
HETATM   17  C1  UNL     1      -7.298   5.918  13.993  1.00  0.00     0.010 C 
HETATM   18  C19 UNL     1      -4.902   5.347  13.475  1.00  0.00     0.047 C 
ENDBRANCH   6   7
ENDBRANCH   5   6
ENDBRANCH   1   5
BRANCH   3  19
HETATM   19  C10 UNL     1      -0.855   3.145  10.697  1.00  0.00     0.227 C 
BRANCH  19  20
HETATM   20  C11 UNL     1      -1.369   2.095  11.581  1.00  0.00     0.235 C 
HETATM   21  O2  UNL     1      -1.157   2.207  12.816  1.00  0.00    -0.272 OA
HETATM   22  N4  UNL     1      -2.091   0.961  11.136  1.00  0.00    -0.355 N 
ATOM     23  H4  UNL     1      -2.273   0.852  10.139  1.00  0.00     0.162 HD
BRANCH  22  24
HETATM   24  C12 UNL     1      -2.582  -0.055  12.058  1.00  0.00     0.084 C 
HETATM   25  C13 UNL     1      -2.679  -1.380  11.390  1.00  0.00     0.025 C 
HETATM   26  C14 UNL     1      -4.085  -1.891  11.477  1.00  0.00     0.002 C 
HETATM   27  C15 UNL     1      -5.008  -0.835  10.897  1.00  0.00     0.000 C 
HETATM   28  C16 UNL     1      -5.023   0.407  11.766  1.00  0.00     0.002 C 
HETATM   29  C17 UNL     1      -3.858   0.404  12.735  1.00  0.00     0.025 C 
ENDBRANCH  22  24
ENDBRANCH  19  20
ENDBRANCH   3  19
TORSDOF 6
ENDMDL
MODEL 5
REMARK VINA RESULT: -6.733877095      1.805      5.046
REMARK  6 active torsions:
REMARK  status: ('A' for Active; 'I' for Inactive)
REMARK    1  A    between atoms: C6_10  and  S1_11 
REMARK    2  A    between atoms: S1_11  and  C7_12 
REMARK    3  A    between atoms: C7_12  and  C8_13 
REMARK       I    between atoms: C8_13  and  N3_15 
REMARK    4  A    between atoms: N3_15  and  C10_17 
REMARK    5  A    between atoms: C10_17  and  C11_18 
REMARK       I    between atoms: C11_18  and  N4_20 
REMARK    6  A    between atoms: N4_20  and  C12_22 
ROOT
HETATM    1  C8  UNL     1      -2.532   1.405  11.549  1.00  0.00     0.229 C 
HETATM    2  O1  UNL     1      -1.683   0.690  12.136  1.00  0.00    -0.273 OA
HETATM    3  N3  UNL     1      -3.898   1.261  11.879  1.00  0.00    -0.347 N 
HETATM    4  C9  UNL     1      -4.879   2.072  11.217  1.00  0.00     0.153 C 
ENDROOT
BRANCH   1   5
HETATM    5  C7  UNL     1      -2.040   2.369  10.535  1.00  0.00     0.183 C 
BRANCH   5   6
HETATM    6  S1  UNL     1      -1.046   3.678  11.271  1.00  0.00    -0.101 SA
BRANCH   6   7
HETATM    7  C6  UNL     1      -1.522   4.021  12.936  1.00  0.00     0.093 A 
HETATM    8  N2  UNL     1      -1.361   3.318  14.068  1.00  0.00    -0.293 N 
HETATM    9  N1  UNL     1      -1.886   3.972  15.108  1.00  0.00    -0.303 N 
ATOM     10  H2  UNL     1      -0.900   2.409  14.127  1.00  0.00     0.187 HD
HETATM   11  C5  UNL     1      -2.409   5.121  14.696  1.00  0.00     0.035 A 
ATOM     12  H1  UNL     1      -1.886   3.639  16.071  1.00  0.00     0.186 HD
HETATM   13  C4  UNL     1      -3.119   6.287  15.280  1.00  0.00     0.059 C 
HETATM   14  C18 UNL     1      -2.186   5.169  13.320  1.00  0.00     0.001 A 
HETATM   15  C3  UNL     1      -2.460   7.569  14.829  1.00  0.00     0.010 C 
HETATM   16  C2  UNL     1      -2.090   7.566  13.379  1.00  0.00    -0.014 C 
HETATM   17  C1  UNL     1      -2.411   8.891  12.735  1.00  0.00     0.010 C 
HETATM   18  C19 UNL     1      -2.697   6.392  12.634  1.00  0.00     0.047 C 
ENDBRANCH   6   7
ENDBRANCH   5   6
ENDBRANCH   1   5
BRANCH   3  19
HETATM   19  C10 UNL     1      -4.331   0.305  12.873  1.00  0.00     0.227 C 
BRANCH  19  20
HETATM   20  C11 UNL     1      -4.337   0.857  14.231  1.00  0.00     0.235 C 
HETATM   21  O2  UNL     1      -3.804   1.982  14.413  1.00  0.00    -0.272 OA
HETATM   22  N4  UNL     1      -4.906   0.207  15.353  1.00  0.00    -0.355 N 
ATOM     23  H4  UNL     1      -5.343  -0.705  15.226  1.00  0.00     0.162 HD
BRANCH  22  24
HETATM   24  C12 UNL     1      -4.886   0.801  16.684  1.00  0.00     0.084 C 
HETATM   25  C13 UNL     1      -5.674  -0.016  17.645  1.00  0.00     0.025 C 
HETATM   26  C14 UNL     1      -6.755   0.821  18.257  1.00  0.00     0.002 C 
HETATM   27  C15 UNL     1      -7.579   1.422  17.134  1.00  0.00     0.000 C 
HETATM   28  C16 UNL     1      -6.762   2.419  16.336  1.00  0.00     0.002 C 
HETATM   29  C17 UNL     1      -5.283   2.262  16.627  1.00  0.00     0.025 C 
ENDBRANCH  22  24
ENDBRANCH  19  20
ENDBRANCH   3  19
TORSDOF 6
ENDMDL
