MODEL 1
REMARK VINA RESULT: -9.604916184      0.000      0.000
REMARK  6 active torsions:
REMARK  status: ('A' for Active; 'I' for Inactive)
REMARK    1  A    between atoms: C3_3  and  O1_4 
REMARK    2  A    between atoms: C4_6  and  C5_7 
REMARK    3  A    between atoms: C12_21  and  O4_22 
REMARK    4  A    between atoms: C15_26  and  S2_27 
REMARK    5  A    between atoms: S2_27  and  N3_30 
REMARK    6  A    between atoms: N3_30  and  C16_32 
ROOT
HETATM    1  C1  UNL     1     -16.223  28.469  30.424  1.00  0.00     0.052 C 
HETATM    2  C2  UNL     1     -15.857  27.054  30.668  1.00  0.00    -0.017 A 
HETATM    3  C3  UNL     1     -16.290  26.334  31.737  1.00  0.00     0.089 A 
HETATM    4  C4  UNL     1     -15.918  24.995  31.916  1.00  0.00     0.076 A 
HETATM    5  C12 UNL     1     -15.099  24.361  31.016  1.00  0.00     0.093 A 
HETATM    6  C13 UNL     1     -14.639  25.086  29.905  1.00  0.00     0.010 A 
HETATM    7  C14 UNL     1     -13.815  24.521  28.961  1.00  0.00     0.040 A 
HETATM    8  C15 UNL     1     -13.351  25.215  27.865  1.00  0.00     0.081 A 
HETATM    9  C20 UNL     1     -13.741  26.529  27.727  1.00  0.00     0.026 A 
HETATM   10  C21 UNL     1     -14.567  27.103  28.668  1.00  0.00     0.014 A 
HETATM   11  C22 UNL     1     -15.020  26.396  29.754  1.00  0.00    -0.014 A 
ENDROOT
BRANCH   4  12
HETATM   12  C5  UNL     1     -16.424  24.250  33.088  1.00  0.00     0.131 A 
HETATM   13  N1  UNL     1     -17.667  23.855  32.968  1.00  0.00    -0.265 N 
HETATM   14  S1  UNL     1     -18.462  22.971  34.208  1.00  0.00     0.266 S 
ATOM     15  H1  UNL     1     -18.177  24.079  32.114  1.00  0.00     0.180 HD
HETATM   16  O2  UNL     1     -19.598  23.827  34.748  1.00  0.00    -0.200 OA
HETATM   17  O3  UNL     1     -18.975  21.652  33.720  1.00  0.00    -0.200 OA
HETATM   18  C6  UNL     1     -17.317  22.785  35.510  1.00  0.00     0.106 A 
HETATM   19  C7  UNL     1     -17.706  22.126  36.620  1.00  0.00     0.027 A 
HETATM   20  C11 UNL     1     -16.061  23.301  35.387  1.00  0.00     0.057 A 
HETATM   21  C8  UNL     1     -16.844  21.947  37.676  1.00  0.00     0.002 A 
HETATM   22  C9  UNL     1     -15.571  22.451  37.590  1.00  0.00     0.002 A 
HETATM   23  C10 UNL     1     -15.197  23.119  36.453  1.00  0.00     0.031 A 
HETATM   24  N2  UNL     1     -15.641  24.002  34.222  1.00  0.00    -0.340 N 
ATOM     25  H2  UNL     1     -14.684  24.355  34.212  1.00  0.00     0.167 HD
ENDBRANCH   4  12
BRANCH   3  26
HETATM   26  O1  UNL     1     -17.107  26.867  32.693  1.00  0.00    -0.359 OA
ATOM     27  H1  UNL     1     -17.360  26.383  33.470  1.00  0.00     0.217 HD
ENDBRANCH   3  26
BRANCH   5  28
HETATM   28  O4  UNL     1     -14.743  23.051  31.200  1.00  0.00    -0.359 OA
ATOM     29  H4  UNL     1     -13.848  22.768  31.055  1.00  0.00     0.217 HD
ENDBRANCH   5  28
BRANCH   8  30
HETATM   30  S2  UNL     1     -12.304  24.506  26.661  1.00  0.00     0.276 S 
HETATM   31  O5  UNL     1     -12.488  23.033  26.626  1.00  0.00    -0.200 OA
HETATM   32  O6  UNL     1     -12.683  25.093  25.308  1.00  0.00    -0.200 OA
BRANCH  30  33
HETATM   33  N3  UNL     1     -10.669  24.963  26.946  1.00  0.00    -0.112 N 
ATOM     34  H3  UNL     1     -10.019  24.239  27.253  1.00  0.00     0.197 HD
BRANCH  33  35
HETATM   35  C16 UNL     1     -10.216  26.142  26.799  1.00  0.00     0.691 A 
HETATM   36  N4  UNL     1     -10.469  26.933  25.734  1.00  0.00    -0.201 N 
HETATM   37  C17 UNL     1      -9.962  28.176  25.630  1.00  0.00     0.107 A 
ATOM     38  H4  UNL     1     -11.062  26.577  24.984  1.00  0.00     0.183 HD
HETATM   39  C18 UNL     1      -9.156  28.680  26.632  1.00  0.00     0.035 A 
HETATM   40  C19 UNL     1      -8.897  27.871  27.725  1.00  0.00     0.107 A 
HETATM   41  N5  UNL     1      -9.429  26.637  27.777  1.00  0.00    -0.201 N 
ATOM     42  H5  UNL     1      -9.230  26.052  28.588  1.00  0.00     0.183 HD
ENDBRANCH  33  35
ENDBRANCH  30  33
ENDBRANCH   8  30
TORSDOF 6
ENDMDL
MODEL 2
REMARK VINA RESULT: -9.604514353      3.826      6.721
REMARK  6 active torsions:
REMARK  status: ('A' for Active; 'I' for Inactive)
REMARK    1  A    between atoms: C3_3  and  O1_4 
REMARK    2  A    between atoms: C4_6  and  C5_7 
REMARK    3  A    between atoms: C12_21  and  O4_22 
REMARK    4  A    between atoms: C15_26  and  S2_27 
REMARK    5  A    between atoms: S2_27  and  N3_30 
REMARK    6  A    between atoms: N3_30  and  C16_32 
ROOT
HETATM    1  C1  UNL     1     -16.111  24.693  31.571  1.00  0.00     0.052 C 
HETATM    2  C2  UNL     1     -15.505  25.687  30.655  1.00  0.00    -0.017 A 
HETATM    3  C3  UNL     1     -15.857  27.000  30.624  1.00  0.00     0.089 A 
HETATM    4  C4  UNL     1     -15.247  27.900  29.741  1.00  0.00     0.076 A 
HETATM    5  C12 UNL     1     -14.268  27.487  28.872  1.00  0.00     0.093 A 
HETATM    6  C13 UNL     1     -13.889  26.136  28.885  1.00  0.00     0.010 A 
HETATM    7  C14 UNL     1     -12.919  25.646  28.045  1.00  0.00     0.040 A 
HETATM    8  C15 UNL     1     -12.533  24.323  28.042  1.00  0.00     0.081 A 
HETATM    9  C20 UNL     1     -13.159  23.472  28.926  1.00  0.00     0.026 A 
HETATM   10  C21 UNL     1     -14.132  23.954  29.772  1.00  0.00     0.014 A 
HETATM   11  C22 UNL     1     -14.503  25.275  29.762  1.00  0.00    -0.014 A 
ENDROOT
BRANCH   4  12
HETATM   12  C5  UNL     1     -15.655  29.321  29.752  1.00  0.00     0.131 A 
HETATM   13  N1  UNL     1     -14.657  30.160  29.633  1.00  0.00    -0.265 N 
HETATM   14  S1  UNL     1     -14.896  31.861  29.621  1.00  0.00     0.266 S 
ATOM     15  H1  UNL     1     -13.709  29.793  29.545  1.00  0.00     0.180 HD
HETATM   16  O2  UNL     1     -14.229  32.444  30.858  1.00  0.00    -0.200 OA
HETATM   17  O3  UNL     1     -14.361  32.497  28.376  1.00  0.00    -0.200 OA
HETATM   18  C6  UNL     1     -16.610  32.131  29.807  1.00  0.00     0.106 A 
HETATM   19  C7  UNL     1     -17.061  33.401  29.838  1.00  0.00     0.027 A 
HETATM   20  C11 UNL     1     -17.456  31.068  29.915  1.00  0.00     0.057 A 
HETATM   21  C8  UNL     1     -18.402  33.673  29.980  1.00  0.00     0.002 A 
HETATM   22  C9  UNL     1     -19.285  32.629  30.091  1.00  0.00     0.002 A 
HETATM   23  C10 UNL     1     -18.804  31.346  30.059  1.00  0.00     0.031 A 
HETATM   24  N2  UNL     1     -16.989  29.723  29.888  1.00  0.00    -0.340 N 
ATOM     25  H2  UNL     1     -17.690  28.986  29.975  1.00  0.00     0.167 HD
ENDBRANCH   4  12
BRANCH   3  26
HETATM   26  O1  UNL     1     -16.819  27.517  31.444  1.00  0.00    -0.359 OA
ATOM     27  H1  UNL     1     -17.623  27.050  31.639  1.00  0.00     0.217 HD
ENDBRANCH   3  26
BRANCH   5  28
HETATM   28  O4  UNL     1     -13.677  28.377  28.013  1.00  0.00    -0.359 OA
ATOM     29  H4  UNL     1     -12.830  28.756  28.217  1.00  0.00     0.217 HD
ENDBRANCH   5  28
BRANCH   8  30
HETATM   30  S2  UNL     1     -11.302  23.692  26.978  1.00  0.00     0.276 S 
HETATM   31  O5  UNL     1     -11.180  22.222  27.152  1.00  0.00    -0.200 OA
HETATM   32  O6  UNL     1     -11.720  23.995  25.546  1.00  0.00    -0.200 OA
BRANCH  30  33
HETATM   33  N3  UNL     1      -9.811  24.515  27.231  1.00  0.00    -0.112 N 
ATOM     34  H3  UNL     1      -9.009  23.964  27.539  1.00  0.00     0.197 HD
BRANCH  33  35
HETATM   35  C16 UNL     1      -9.642  25.764  27.061  1.00  0.00     0.691 A 
HETATM   36  N4  UNL     1      -8.912  26.556  27.875  1.00  0.00    -0.201 N 
HETATM   37  C17 UNL     1      -8.766  27.875  27.646  1.00  0.00     0.107 A 
ATOM     38  H4  UNL     1      -8.456  26.143  28.688  1.00  0.00     0.183 HD
HETATM   39  C18 UNL     1      -9.373  28.458  26.551  1.00  0.00     0.035 A 
HETATM   40  C19 UNL     1     -10.121  27.647  25.715  1.00  0.00     0.107 A 
HETATM   41  N5  UNL     1     -10.233  26.335  25.991  1.00  0.00    -0.201 N 
ATOM     42  H5  UNL     1     -10.787  25.749  25.366  1.00  0.00     0.183 HD
ENDBRANCH  33  35
ENDBRANCH  30  33
ENDBRANCH   8  30
TORSDOF 6
ENDMDL
MODEL 3
REMARK VINA RESULT: -9.537264278      1.529      2.123
REMARK  6 active torsions:
REMARK  status: ('A' for Active; 'I' for Inactive)
REMARK    1  A    between atoms: C3_3  and  O1_4 
REMARK    2  A    between atoms: C4_6  and  C5_7 
REMARK    3  A    between atoms: C12_21  and  O4_22 
REMARK    4  A    between atoms: C15_26  and  S2_27 
REMARK    5  A    between atoms: S2_27  and  N3_30 
REMARK    6  A    between atoms: N3_30  and  C16_32 
ROOT
HETATM    1  C1  UNL     1     -16.099  28.466  30.402  1.00  0.00     0.052 C 
HETATM    2  C2  UNL     1     -15.862  27.034  30.698  1.00  0.00    -0.017 A 
HETATM    3  C3  UNL     1     -16.375  26.391  31.781  1.00  0.00     0.089 A 
HETATM    4  C4  UNL     1     -16.124  25.032  32.012  1.00  0.00     0.076 A 
HETATM    5  C12 UNL     1     -15.349  24.298  31.149  1.00  0.00     0.093 A 
HETATM    6  C13 UNL     1     -14.809  24.942  30.024  1.00  0.00     0.010 A 
HETATM    7  C14 UNL     1     -14.022  24.276  29.115  1.00  0.00     0.040 A 
HETATM    8  C15 UNL     1     -13.482  24.889  28.007  1.00  0.00     0.081 A 
HETATM    9  C20 UNL     1     -13.752  26.226  27.818  1.00  0.00     0.026 A 
HETATM   10  C21 UNL     1     -14.540  26.902  28.723  1.00  0.00     0.014 A 
HETATM   11  C22 UNL     1     -15.071  26.275  29.823  1.00  0.00    -0.014 A 
ENDROOT
BRANCH   4  12
HETATM   12  C5  UNL     1     -16.713  24.374  33.197  1.00  0.00     0.131 A 
HETATM   13  N1  UNL     1     -15.964  24.446  34.269  1.00  0.00    -0.265 N 
HETATM   14  S1  UNL     1     -16.449  23.751  35.763  1.00  0.00     0.266 S 
ATOM     15  H1  UNL     1     -15.067  24.928  34.215  1.00  0.00     0.180 HD
HETATM   16  O2  UNL     1     -15.480  22.628  36.102  1.00  0.00    -0.200 OA
HETATM   17  O3  UNL     1     -16.499  24.762  36.866  1.00  0.00    -0.200 OA
HETATM   18  C6  UNL     1     -18.001  23.002  35.493  1.00  0.00     0.106 A 
HETATM   19  C7  UNL     1     -18.599  22.372  36.523  1.00  0.00     0.027 A 
HETATM   20  C11 UNL     1     -18.579  23.067  34.260  1.00  0.00     0.057 A 
HETATM   21  C8  UNL     1     -19.825  21.767  36.367  1.00  0.00     0.002 A 
HETATM   22  C9  UNL     1     -20.439  21.811  35.142  1.00  0.00     0.002 A 
HETATM   23  C10 UNL     1     -19.812  22.457  34.108  1.00  0.00     0.031 A 
HETATM   24  N2  UNL     1     -17.955  23.728  33.164  1.00  0.00    -0.340 N 
ATOM     25  H2  UNL     1     -18.456  23.730  32.276  1.00  0.00     0.167 HD
ENDBRANCH   4  12
BRANCH   3  26
HETATM   26  O1  UNL     1     -17.157  27.026  32.704  1.00  0.00    -0.359 OA
ATOM     27  H1  UNL     1     -17.284  26.685  33.581  1.00  0.00     0.217 HD
ENDBRANCH   3  26
BRANCH   5  28
HETATM   28  O4  UNL     1     -15.112  22.969  31.383  1.00  0.00    -0.359 OA
ATOM     29  H4  UNL     1     -14.938  22.375  30.663  1.00  0.00     0.217 HD
ENDBRANCH   5  28
BRANCH   8  30
HETATM   30  S2  UNL     1     -12.481  24.051  26.847  1.00  0.00     0.276 S 
HETATM   31  O5  UNL     1     -11.631  23.047  27.536  1.00  0.00    -0.200 OA
HETATM   32  O6  UNL     1     -13.400  23.340  25.863  1.00  0.00    -0.200 OA
BRANCH  30  33
HETATM   33  N3  UNL     1     -11.561  25.177  25.924  1.00  0.00    -0.112 N 
ATOM     34  H3  UNL     1     -11.695  25.185  24.913  1.00  0.00     0.197 HD
BRANCH  33  35
HETATM   35  C16 UNL     1     -10.726  25.998  26.419  1.00  0.00     0.691 A 
HETATM   36  N4  UNL     1     -10.547  27.264  25.984  1.00  0.00    -0.201 N 
HETATM   37  C17 UNL     1      -9.647  28.092  26.545  1.00  0.00     0.107 A 
ATOM     38  H4  UNL     1     -11.111  27.603  25.205  1.00  0.00     0.183 HD
HETATM   39  C18 UNL     1      -8.870  27.656  27.602  1.00  0.00     0.035 A 
HETATM   40  C19 UNL     1      -9.053  26.360  28.050  1.00  0.00     0.107 A 
HETATM   41  N5  UNL     1      -9.968  25.575  27.452  1.00  0.00    -0.201 N 
ATOM     42  H5  UNL     1     -10.093  24.622  27.793  1.00  0.00     0.183 HD
ENDBRANCH  33  35
ENDBRANCH  30  33
ENDBRANCH   8  30
TORSDOF 6
ENDMDL
MODEL 4
REMARK VINA RESULT: -9.322206181      1.835      2.170
REMARK  6 active torsions:
REMARK  status: ('A' for Active; 'I' for Inactive)
REMARK    1  A    between atoms: C3_3  and  O1_4 
REMARK    2  A    between atoms: C4_6  and  C5_7 
REMARK    3  A    between atoms: C12_21  and  O4_22 
REMARK    4  A    between atoms: C15_26  and  S2_27 
REMARK    5  A    between atoms: S2_27  and  N3_30 
REMARK    6  A    between atoms: N3_30  and  C16_32 
ROOT
HETATM    1  C1  UNL     1     -16.218  28.826  30.929  1.00  0.00     0.052 C 
HETATM    2  C2  UNL     1     -15.955  27.371  31.021  1.00  0.00    -0.017 A 
HETATM    3  C3  UNL     1     -16.348  26.596  32.067  1.00  0.00     0.089 A 
HETATM    4  C4  UNL     1     -16.077  25.222  32.101  1.00  0.00     0.076 A 
HETATM    5  C12 UNL     1     -15.402  24.607  31.076  1.00  0.00     0.093 A 
HETATM    6  C13 UNL     1     -14.986  25.388  29.987  1.00  0.00     0.010 A 
HETATM    7  C14 UNL     1     -14.304  24.846  28.924  1.00  0.00     0.040 A 
HETATM    8  C15 UNL     1     -13.886  25.595  27.846  1.00  0.00     0.081 A 
HETATM    9  C20 UNL     1     -14.172  26.942  27.852  1.00  0.00     0.026 A 
HETATM   10  C21 UNL     1     -14.855  27.495  28.913  1.00  0.00     0.014 A 
HETATM   11  C22 UNL     1     -15.265  26.733  29.979  1.00  0.00    -0.014 A 
ENDROOT
BRANCH   4  12
HETATM   12  C5  UNL     1     -16.535  24.419  33.254  1.00  0.00     0.131 A 
HETATM   13  N1  UNL     1     -17.759  23.969  33.134  1.00  0.00    -0.265 N 
HETATM   14  S1  UNL     1     -18.499  23.011  34.353  1.00  0.00     0.266 S 
ATOM     15  H1  UNL     1     -18.288  24.194  32.292  1.00  0.00     0.180 HD
HETATM   16  O2  UNL     1     -19.667  23.796  34.930  1.00  0.00    -0.200 OA
HETATM   17  O3  UNL     1     -18.954  21.685  33.830  1.00  0.00    -0.200 OA
HETATM   18  C6  UNL     1     -17.332  22.841  35.639  1.00  0.00     0.106 A 
HETATM   19  C7  UNL     1     -17.678  22.131  36.731  1.00  0.00     0.027 A 
HETATM   20  C11 UNL     1     -16.103  23.419  35.520  1.00  0.00     0.057 A 
HETATM   21  C8  UNL     1     -16.797  21.961  37.774  1.00  0.00     0.002 A 
HETATM   22  C9  UNL     1     -15.550  22.528  37.692  1.00  0.00     0.002 A 
HETATM   23  C10 UNL     1     -15.221  23.247  36.572  1.00  0.00     0.031 A 
HETATM   24  N2  UNL     1     -15.729  24.174  34.373  1.00  0.00    -0.340 N 
ATOM     25  H2  UNL     1     -14.790  24.573  34.365  1.00  0.00     0.167 HD
ENDBRANCH   4  12
BRANCH   3  26
HETATM   26  O1  UNL     1     -17.024  27.106  33.139  1.00  0.00    -0.359 OA
ATOM     27  H1  UNL     1     -16.928  28.009  33.416  1.00  0.00     0.217 HD
ENDBRANCH   3  26
BRANCH   5  28
HETATM   28  O4  UNL     1     -15.145  23.262  31.120  1.00  0.00    -0.359 OA
ATOM     29  H4  UNL     1     -15.030  22.818  31.951  1.00  0.00     0.217 HD
ENDBRANCH   5  28
BRANCH   8  30
HETATM   30  S2  UNL     1     -13.020  24.915  26.492  1.00  0.00     0.276 S 
HETATM   31  O5  UNL     1     -13.976  24.409  25.474  1.00  0.00    -0.200 OA
HETATM   32  O6  UNL     1     -12.170  26.020  25.878  1.00  0.00    -0.200 OA
BRANCH  30  33
HETATM   33  N3  UNL     1     -11.922  23.703  27.030  1.00  0.00    -0.112 N 
ATOM     34  H3  UNL     1     -12.103  23.263  27.932  1.00  0.00     0.197 HD
BRANCH  33  35
HETATM   35  C16 UNL     1     -10.900  23.318  26.378  1.00  0.00     0.691 A 
HETATM   36  N4  UNL     1     -10.142  24.119  25.599  1.00  0.00    -0.201 N 
HETATM   37  C17 UNL     1      -9.069  23.658  24.930  1.00  0.00     0.107 A 
ATOM     38  H4  UNL     1     -10.389  25.105  25.515  1.00  0.00     0.183 HD
HETATM   39  C18 UNL     1      -8.713  22.327  25.027  1.00  0.00     0.035 A 
HETATM   40  C19 UNL     1      -9.488  21.504  25.825  1.00  0.00     0.107 A 
HETATM   41  N5  UNL     1     -10.550  22.018  26.472  1.00  0.00    -0.201 N 
ATOM     42  H5  UNL     1     -11.113  21.401  27.057  1.00  0.00     0.183 HD
ENDBRANCH  33  35
ENDBRANCH  30  33
ENDBRANCH   8  30
TORSDOF 6
ENDMDL
MODEL 5
REMARK VINA RESULT: -9.293394113      2.320      2.931
REMARK  6 active torsions:
REMARK  status: ('A' for Active; 'I' for Inactive)
REMARK    1  A    between atoms: C3_3  and  O1_4 
REMARK    2  A    between atoms: C4_6  and  C5_7 
REMARK    3  A    between atoms: C12_21  and  O4_22 
REMARK    4  A    between atoms: C15_26  and  S2_27 
REMARK    5  A    between atoms: S2_27  and  N3_30 
REMARK    6  A    between atoms: N3_30  and  C16_32 
ROOT
HETATM    1  C1  UNL     1     -16.164  28.969  30.872  1.00  0.00     0.052 C 
HETATM    2  C2  UNL     1     -15.938  27.507  30.964  1.00  0.00    -0.017 A 
HETATM    3  C3  UNL     1     -16.368  26.739  32.001  1.00  0.00     0.089 A 
HETATM    4  C4  UNL     1     -16.132  25.359  32.036  1.00  0.00     0.076 A 
HETATM    5  C12 UNL     1     -15.455  24.730  31.020  1.00  0.00     0.093 A 
HETATM    6  C13 UNL     1     -15.002  25.503  29.940  1.00  0.00     0.010 A 
HETATM    7  C14 UNL     1     -14.316  24.947  28.887  1.00  0.00     0.040 A 
HETATM    8  C15 UNL     1     -13.862  25.688  27.819  1.00  0.00     0.081 A 
HETATM    9  C20 UNL     1     -14.114  27.042  27.824  1.00  0.00     0.026 A 
HETATM   10  C21 UNL     1     -14.801  27.609  28.875  1.00  0.00     0.014 A 
HETATM   11  C22 UNL     1     -15.247  26.855  29.932  1.00  0.00    -0.014 A 
ENDROOT
BRANCH   4  12
HETATM   12  C5  UNL     1     -16.629  24.564  33.179  1.00  0.00     0.131 A 
HETATM   13  N1  UNL     1     -15.939  24.730  34.279  1.00  0.00    -0.265 N 
HETATM   14  S1  UNL     1     -16.336  23.907  35.733  1.00  0.00     0.266 S 
ATOM     15  H1  UNL     1     -15.142  25.367  34.272  1.00  0.00     0.180 HD
HETATM   16  O2  UNL     1     -15.191  22.965  36.074  1.00  0.00    -0.200 OA
HETATM   17  O3  UNL     1     -16.602  24.852  36.863  1.00  0.00    -0.200 OA
HETATM   18  C6  UNL     1     -17.718  22.902  35.383  1.00  0.00     0.106 A 
HETATM   19  C7  UNL     1     -18.225  22.138  36.371  1.00  0.00     0.027 A 
HETATM   20  C11 UNL     1     -18.260  22.906  34.132  1.00  0.00     0.057 A 
HETATM   21  C8  UNL     1     -19.316  21.329  36.153  1.00  0.00     0.002 A 
HETATM   22  C9  UNL     1     -19.889  21.306  34.907  1.00  0.00     0.002 A 
HETATM   23  C10 UNL     1     -19.357  22.090  33.917  1.00  0.00     0.031 A 
HETATM   24  N2  UNL     1     -17.731  23.707  33.080  1.00  0.00    -0.340 N 
ATOM     25  H2  UNL     1     -18.197  23.650  32.175  1.00  0.00     0.167 HD
ENDBRANCH   4  12
BRANCH   3  26
HETATM   26  O1  UNL     1     -17.049  27.262  33.063  1.00  0.00    -0.359 OA
ATOM     27  H1  UNL     1     -16.605  27.631  33.818  1.00  0.00     0.217 HD
ENDBRANCH   3  26
BRANCH   5  28
HETATM   28  O4  UNL     1     -15.232  23.379  31.064  1.00  0.00    -0.359 OA
ATOM     29  H4  UNL     1     -14.760  22.944  30.364  1.00  0.00     0.217 HD
ENDBRANCH   5  28
BRANCH   8  30
HETATM   30  S2  UNL     1     -12.990  24.991  26.477  1.00  0.00     0.276 S 
HETATM   31  O5  UNL     1     -13.941  24.492  25.452  1.00  0.00    -0.200 OA
HETATM   32  O6  UNL     1     -12.119  26.081  25.867  1.00  0.00    -0.200 OA
BRANCH  30  33
HETATM   33  N3  UNL     1     -11.913  23.767  27.032  1.00  0.00    -0.112 N 
ATOM     34  H3  UNL     1     -12.096  23.351  27.945  1.00  0.00     0.197 HD
BRANCH  33  35
HETATM   35  C16 UNL     1     -10.905  23.347  26.381  1.00  0.00     0.691 A 
HETATM   36  N4  UNL     1     -10.148  24.111  25.564  1.00  0.00    -0.201 N 
HETATM   37  C17 UNL     1      -9.090  23.613  24.897  1.00  0.00     0.107 A 
ATOM     38  H4  UNL     1     -10.385  25.096  25.448  1.00  0.00     0.183 HD
HETATM   39  C18 UNL     1      -8.748  22.282  25.037  1.00  0.00     0.035 A 
HETATM   40  C19 UNL     1      -9.522  21.498  25.874  1.00  0.00     0.107 A 
HETATM   41  N5  UNL     1     -10.569  22.047  26.517  1.00  0.00    -0.201 N 
ATOM     42  H5  UNL     1     -11.131  21.458  27.131  1.00  0.00     0.183 HD
ENDBRANCH  33  35
ENDBRANCH  30  33
ENDBRANCH   8  30
TORSDOF 6
ENDMDL
