MODEL 1
REMARK VINA RESULT: -11.124045987      0.000      0.000
REMARK  4 active torsions:
REMARK  status: ('A' for Active; 'I' for Inactive)
REMARK    1  A    between atoms: C5_5  and  S1_6 
REMARK    2  A    between atoms: S1_6  and  N1_9 
REMARK    3  A    between atoms: N1_9  and  C6_11 
REMARK    4  A    between atoms: C14_21  and  N3_22 
ROOT
HETATM    1  C6  UNL     1     -13.760  24.298  27.835  1.00  0.00     0.043 A 
HETATM    2  C7  UNL     1     -14.168  23.450  28.829  1.00  0.00     0.031 A 
HETATM    3  C8  UNL     1     -14.828  23.986  29.934  1.00  0.00     0.017 A 
HETATM    4  C9  UNL     1     -15.090  25.342  30.068  1.00  0.00     0.003 A 
HETATM    5  C10 UNL     1     -14.685  26.203  29.079  1.00  0.00     0.007 A 
HETATM    6  C11 UNL     1     -14.031  25.673  27.984  1.00  0.00     0.044 A 
HETATM    7  C12 UNL     1     -14.855  27.672  29.081  1.00  0.00     0.059 A 
HETATM    8  C13 UNL     1     -13.921  28.447  28.375  1.00  0.00     0.120 A 
HETATM    9  N2  UNL     1     -14.072  29.783  28.392  1.00  0.00    -0.348 N 
ATOM     10  H2  UNL     1     -13.397  30.349  27.879  1.00  0.00     0.167 HD
HETATM   11  C14 UNL     1     -15.052  30.411  29.039  1.00  0.00     0.131 A 
HETATM   12  C15 UNL     1     -15.984  29.624  29.747  1.00  0.00     0.146 A 
HETATM   13  N4  UNL     1     -15.801  28.336  29.701  1.00  0.00    -0.347 N 
ATOM     14  H4  UNL     1     -16.479  27.771  30.213  1.00  0.00     0.166 HD
HETATM   15  C16 UNL     1     -17.063  30.281  30.496  1.00  0.00     0.285 C 
HETATM   16  O3  UNL     1     -17.498  31.353  29.918  1.00  0.00    -0.265 OA
HETATM   17  N5  UNL     1     -17.659  29.918  31.706  1.00  0.00    -0.243 N 
ATOM     18  H5  UNL     1     -17.587  30.617  32.446  1.00  0.00     0.182 HD
HETATM   19  S2  UNL     1     -18.494  28.484  32.147  1.00  0.00     0.281 S 
HETATM   20  O4  UNL     1     -19.583  28.107  31.166  1.00  0.00    -0.199 OA
HETATM   21  O5  UNL     1     -19.210  28.620  33.474  1.00  0.00    -0.199 OA
HETATM   22  C17 UNL     1     -17.385  27.107  32.340  1.00  0.00     0.149 A 
HETATM   23  C18 UNL     1     -17.192  26.489  33.546  1.00  0.00     0.044 A 
HETATM   24  C19 UNL     1     -16.282  25.430  33.665  1.00  0.00     0.005 A 
HETATM   25  C20 UNL     1     -15.612  25.064  32.516  1.00  0.00     0.030 A 
HETATM   26  C21 UNL     1     -15.824  25.709  31.296  1.00  0.00     0.044 A 
HETATM   27  N6  UNL     1     -16.701  26.679  31.320  1.00  0.00    -0.345 N 
ATOM     28  H6  UNL     1     -16.869  27.157  30.435  1.00  0.00     0.167 HD
ENDROOT
BRANCH   1  29
HETATM   29  N1  UNL     1     -13.064  23.828  26.705  1.00  0.00    -0.281 N 
ATOM     30  H1  UNL     1     -13.619  23.440  25.943  1.00  0.00     0.179 HD
BRANCH  29  31
HETATM   31  S1  UNL     1     -11.384  23.853  26.503  1.00  0.00     0.263 S 
HETATM   32  O1  UNL     1     -11.085  23.559  25.048  1.00  0.00    -0.200 OA
HETATM   33  O2  UNL     1     -10.788  22.719  27.347  1.00  0.00    -0.200 OA
BRANCH  31  34
HETATM   34  C5  UNL     1     -10.584  25.305  26.936  1.00  0.00     0.079 A 
HETATM   35  C4  UNL     1      -9.729  25.349  28.020  1.00  0.00     0.026 A 
HETATM   36  C3  UNL     1      -9.142  26.548  28.340  1.00  0.00     0.008 A 
HETATM   37  C2  UNL     1      -9.386  27.686  27.612  1.00  0.00    -0.062 A 
HETATM   38  C1  UNL     1      -8.700  28.932  28.043  1.00  0.00     0.048 C 
HETATM   39  C23 UNL     1     -10.234  27.663  26.528  1.00  0.00     0.008 A 
HETATM   40  C22 UNL     1     -10.825  26.465  26.202  1.00  0.00     0.026 A 
ENDBRANCH  31  34
ENDBRANCH  29  31
ENDBRANCH   1  29
BRANCH  11  41
HETATM   41  N3  UNL     1     -15.171  31.713  29.035  1.00  0.00    -0.383 N 
ATOM     42  H32 UNL     1     -14.908  32.243  28.204  1.00  0.00     0.157 HD
ATOM     43  H31 UNL     1     -15.521  32.232  29.840  1.00  0.00     0.157 HD
ENDBRANCH  11  41
TORSDOF 4
ENDMDL
MODEL 2
REMARK VINA RESULT: -10.680743061      4.138      6.782
REMARK  4 active torsions:
REMARK  status: ('A' for Active; 'I' for Inactive)
REMARK    1  A    between atoms: C5_5  and  S1_6 
REMARK    2  A    between atoms: S1_6  and  N1_9 
REMARK    3  A    between atoms: N1_9  and  C6_11 
REMARK    4  A    between atoms: C14_21  and  N3_22 
ROOT
HETATM    1  C6  UNL     1      -9.657  26.317  27.233  1.00  0.00     0.043 A 
HETATM    2  C7  UNL     1      -9.537  26.439  28.592  1.00  0.00     0.031 A 
HETATM    3  C8  UNL     1      -9.596  27.713  29.155  1.00  0.00     0.017 A 
HETATM    4  C9  UNL     1      -9.772  28.862  28.397  1.00  0.00     0.003 A 
HETATM    5  C10 UNL     1      -9.891  28.753  27.035  1.00  0.00     0.007 A 
HETATM    6  C11 UNL     1      -9.834  27.491  26.476  1.00  0.00     0.044 A 
HETATM    7  C12 UNL     1     -10.050  29.875  26.083  1.00  0.00     0.059 A 
HETATM    8  C13 UNL     1      -9.569  29.704  24.775  1.00  0.00     0.120 A 
HETATM    9  N2  UNL     1      -9.702  30.732  23.918  1.00  0.00    -0.348 N 
ATOM     10  H2  UNL     1      -9.356  30.612  22.967  1.00  0.00     0.167 HD
HETATM   11  C14 UNL     1     -10.261  31.897  24.238  1.00  0.00     0.131 A 
HETATM   12  C15 UNL     1     -10.740  32.059  25.555  1.00  0.00     0.146 A 
HETATM   13  N4  UNL     1     -10.591  31.039  26.349  1.00  0.00    -0.347 N 
ATOM     14  H4  UNL     1     -10.941  31.160  27.300  1.00  0.00     0.166 HD
HETATM   15  C16 UNL     1     -11.337  33.340  25.955  1.00  0.00     0.285 C 
HETATM   16  O3  UNL     1     -12.002  33.906  25.000  1.00  0.00    -0.265 OA
HETATM   17  N5  UNL     1     -11.284  34.006  27.181  1.00  0.00    -0.243 N 
ATOM     18  H5  UNL     1     -10.874  34.939  27.145  1.00  0.00     0.182 HD
HETATM   19  S2  UNL     1     -11.800  33.504  28.740  1.00  0.00     0.281 S 
HETATM   20  O4  UNL     1     -13.221  32.986  28.755  1.00  0.00    -0.199 OA
HETATM   21  O5  UNL     1     -11.800  34.642  29.740  1.00  0.00    -0.199 OA
HETATM   22  C17 UNL     1     -10.723  32.265  29.425  1.00  0.00     0.149 A 
HETATM   23  C18 UNL     1      -9.976  32.489  30.550  1.00  0.00     0.044 A 
HETATM   24  C19 UNL     1      -9.112  31.499  31.038  1.00  0.00     0.005 A 
HETATM   25  C20 UNL     1      -9.066  30.318  30.326  1.00  0.00     0.030 A 
HETATM   26  C21 UNL     1      -9.837  30.112  29.181  1.00  0.00     0.044 A 
HETATM   27  N6  UNL     1     -10.603  31.114  28.834  1.00  0.00    -0.345 N 
ATOM     28  H6  UNL     1     -11.175  30.975  28.000  1.00  0.00     0.167 HD
ENDROOT
BRANCH   1  29
HETATM   29  N1  UNL     1      -9.578  25.064  26.596  1.00  0.00    -0.281 N 
ATOM     30  H1  UNL     1      -8.705  24.837  26.120  1.00  0.00     0.179 HD
BRANCH  29  31
HETATM   31  S1  UNL     1     -10.806  23.901  26.553  1.00  0.00     0.263 S 
HETATM   32  O1  UNL     1     -10.206  22.574  26.968  1.00  0.00    -0.200 OA
HETATM   33  O2  UNL     1     -11.286  23.771  25.103  1.00  0.00    -0.200 OA
BRANCH  31  34
HETATM   34  C5  UNL     1     -12.177  24.203  27.535  1.00  0.00     0.079 A 
HETATM   35  C4  UNL     1     -12.970  25.315  27.325  1.00  0.00     0.026 A 
HETATM   36  C3  UNL     1     -14.037  25.524  28.163  1.00  0.00     0.008 A 
HETATM   37  C2  UNL     1     -14.325  24.661  29.191  1.00  0.00    -0.062 A 
HETATM   38  C1  UNL     1     -15.502  24.980  30.040  1.00  0.00     0.048 C 
HETATM   39  C23 UNL     1     -13.547  23.547  29.416  1.00  0.00     0.008 A 
HETATM   40  C22 UNL     1     -12.478  23.332  28.580  1.00  0.00     0.026 A 
ENDBRANCH  31  34
ENDBRANCH  29  31
ENDBRANCH   1  29
BRANCH  11  41
HETATM   41  N3  UNL     1     -10.377  32.877  23.380  1.00  0.00    -0.383 N 
ATOM     42  H32 UNL     1      -9.962  32.790  22.452  1.00  0.00     0.157 HD
ATOM     43  H31 UNL     1     -10.871  33.741  23.601  1.00  0.00     0.157 HD
ENDBRANCH  11  41
TORSDOF 4
ENDMDL
MODEL 3
REMARK VINA RESULT: -10.641063824      4.242      6.914
REMARK  4 active torsions:
REMARK  status: ('A' for Active; 'I' for Inactive)
REMARK    1  A    between atoms: C5_5  and  S1_6 
REMARK    2  A    between atoms: S1_6  and  N1_9 
REMARK    3  A    between atoms: N1_9  and  C6_11 
REMARK    4  A    between atoms: C14_21  and  N3_22 
ROOT
HETATM    1  C6  UNL     1     -10.427  26.379  27.390  1.00  0.00     0.043 A 
HETATM    2  C7  UNL     1     -10.298  26.524  28.745  1.00  0.00     0.031 A 
HETATM    3  C8  UNL     1     -10.178  27.809  29.270  1.00  0.00     0.017 A 
HETATM    4  C9  UNL     1     -10.183  28.949  28.478  1.00  0.00     0.003 A 
HETATM    5  C10 UNL     1     -10.309  28.817  27.118  1.00  0.00     0.007 A 
HETATM    6  C11 UNL     1     -10.429  27.544  26.597  1.00  0.00     0.044 A 
HETATM    7  C12 UNL     1     -10.300  29.920  26.133  1.00  0.00     0.059 A 
HETATM    8  C13 UNL     1      -9.841  29.644  24.835  1.00  0.00     0.120 A 
HETATM    9  N2  UNL     1      -9.821  30.654  23.948  1.00  0.00    -0.348 N 
ATOM     10  H2  UNL     1      -9.490  30.457  23.004  1.00  0.00     0.167 HD
HETATM   11  C14 UNL     1     -10.209  31.896  24.229  1.00  0.00     0.131 A 
HETATM   12  C15 UNL     1     -10.667  32.165  25.536  1.00  0.00     0.146 A 
HETATM   13  N4  UNL     1     -10.671  31.158  26.360  1.00  0.00    -0.347 N 
ATOM     14  H4  UNL     1     -11.005  31.356  27.304  1.00  0.00     0.166 HD
HETATM   15  C16 UNL     1     -11.077  33.529  25.892  1.00  0.00     0.285 C 
HETATM   16  O3  UNL     1     -11.649  34.155  24.915  1.00  0.00    -0.265 OA
HETATM   17  N5  UNL     1     -10.936  34.217  27.100  1.00  0.00    -0.243 N 
ATOM     18  H5  UNL     1     -10.396  35.080  27.041  1.00  0.00     0.182 HD
HETATM   19  S2  UNL     1     -11.527  33.841  28.667  1.00  0.00     0.281 S 
HETATM   20  O4  UNL     1     -13.008  33.532  28.683  1.00  0.00    -0.199 OA
HETATM   21  O5  UNL     1     -11.370  34.996  29.633  1.00  0.00    -0.199 OA
HETATM   22  C17 UNL     1     -10.643  32.481  29.398  1.00  0.00     0.149 A 
HETATM   23  C18 UNL     1      -9.877  32.630  30.524  1.00  0.00     0.044 A 
HETATM   24  C19 UNL     1      -9.167  31.542  31.048  1.00  0.00     0.005 A 
HETATM   25  C20 UNL     1      -9.287  30.346  30.371  1.00  0.00     0.030 A 
HETATM   26  C21 UNL     1     -10.073  30.217  29.225  1.00  0.00     0.044 A 
HETATM   27  N6  UNL     1     -10.686  31.308  28.841  1.00  0.00    -0.345 N 
ATOM     28  H6  UNL     1     -11.266  31.228  28.006  1.00  0.00     0.167 HD
ENDROOT
BRANCH   1  29
HETATM   29  N1  UNL     1     -10.524  25.109  26.790  1.00  0.00    -0.281 N 
ATOM     30  H1  UNL     1      -9.656  24.674  26.477  1.00  0.00     0.179 HD
BRANCH  29  31
HETATM   31  S1  UNL     1     -11.957  24.243  26.544  1.00  0.00     0.263 S 
HETATM   32  O1  UNL     1     -11.586  22.858  26.058  1.00  0.00    -0.200 OA
HETATM   33  O2  UNL     1     -12.746  24.940  25.429  1.00  0.00    -0.200 OA
BRANCH  31  34
HETATM   34  C5  UNL     1     -12.992  24.081  27.898  1.00  0.00     0.079 A 
HETATM   35  C4  UNL     1     -12.981  22.933  28.667  1.00  0.00     0.026 A 
HETATM   36  C3  UNL     1     -13.857  22.844  29.721  1.00  0.00     0.008 A 
HETATM   37  C2  UNL     1     -14.729  23.862  30.020  1.00  0.00    -0.062 A 
HETATM   38  C1  UNL     1     -15.635  23.665  31.182  1.00  0.00     0.048 C 
HETATM   39  C23 UNL     1     -14.755  25.014  29.266  1.00  0.00     0.008 A 
HETATM   40  C22 UNL     1     -13.880  25.108  28.210  1.00  0.00     0.026 A 
ENDBRANCH  31  34
ENDBRANCH  29  31
ENDBRANCH   1  29
BRANCH  11  41
HETATM   41  N3  UNL     1     -10.178  32.857  23.341  1.00  0.00    -0.383 N 
ATOM     42  H32 UNL     1      -9.951  32.642  22.371  1.00  0.00     0.157 HD
ATOM     43  H31 UNL     1     -10.374  33.828  23.581  1.00  0.00     0.157 HD
ENDBRANCH  11  41
TORSDOF 4
ENDMDL
MODEL 4
REMARK VINA RESULT: -10.451025740      1.814      2.105
REMARK  4 active torsions:
REMARK  status: ('A' for Active; 'I' for Inactive)
REMARK    1  A    between atoms: C5_5  and  S1_6 
REMARK    2  A    between atoms: S1_6  and  N1_9 
REMARK    3  A    between atoms: N1_9  and  C6_11 
REMARK    4  A    between atoms: C14_21  and  N3_22 
ROOT
HETATM    1  C6  UNL     1     -13.409  23.819  29.147  1.00  0.00     0.043 A 
HETATM    2  C7  UNL     1     -14.629  23.422  29.624  1.00  0.00     0.031 A 
HETATM    3  C8  UNL     1     -15.427  24.359  30.279  1.00  0.00     0.017 A 
HETATM    4  C9  UNL     1     -15.037  25.678  30.468  1.00  0.00     0.003 A 
HETATM    5  C10 UNL     1     -13.815  26.087  29.996  1.00  0.00     0.007 A 
HETATM    6  C11 UNL     1     -13.024  25.159  29.346  1.00  0.00     0.044 A 
HETATM    7  C12 UNL     1     -13.236  27.441  30.141  1.00  0.00     0.059 A 
HETATM    8  C13 UNL     1     -11.837  27.562  30.172  1.00  0.00     0.120 A 
HETATM    9  N2  UNL     1     -11.316  28.793  30.319  1.00  0.00    -0.348 N 
ATOM     10  H2  UNL     1     -10.301  28.885  30.340  1.00  0.00     0.167 HD
HETATM   11  C14 UNL     1     -12.048  29.898  30.438  1.00  0.00     0.131 A 
HETATM   12  C15 UNL     1     -13.452  29.767  30.408  1.00  0.00     0.146 A 
HETATM   13  N4  UNL     1     -13.912  28.558  30.262  1.00  0.00    -0.347 N 
ATOM     14  H4  UNL     1     -14.928  28.468  30.239  1.00  0.00     0.166 HD
HETATM   15  C16 UNL     1     -14.293  30.960  30.564  1.00  0.00     0.285 C 
HETATM   16  O3  UNL     1     -13.777  32.015  30.022  1.00  0.00    -0.265 OA
HETATM   17  N5  UNL     1     -15.530  31.104  31.197  1.00  0.00    -0.243 N 
ATOM     18  H5  UNL     1     -15.544  31.778  31.963  1.00  0.00     0.182 HD
HETATM   19  S2  UNL     1     -17.031  30.327  30.893  1.00  0.00     0.281 S 
HETATM   20  O4  UNL     1     -17.444  30.387  29.439  1.00  0.00    -0.199 OA
HETATM   21  O5  UNL     1     -18.176  30.977  31.640  1.00  0.00    -0.199 OA
HETATM   22  C17 UNL     1     -17.015  28.629  31.423  1.00  0.00     0.149 A 
HETATM   23  C18 UNL     1     -17.820  28.172  32.432  1.00  0.00     0.044 A 
HETATM   24  C19 UNL     1     -17.752  26.835  32.844  1.00  0.00     0.005 A 
HETATM   25  C20 UNL     1     -16.843  26.034  32.185  1.00  0.00     0.030 A 
HETATM   26  C21 UNL     1     -16.032  26.521  31.159  1.00  0.00     0.044 A 
HETATM   27  N6  UNL     1     -16.196  27.786  30.869  1.00  0.00    -0.345 N 
ATOM     28  H6  UNL     1     -15.611  28.155  30.119  1.00  0.00     0.167 HD
ENDROOT
BRANCH   1  29
HETATM   29  N1  UNL     1     -12.541  22.918  28.501  1.00  0.00    -0.281 N 
ATOM     30  H1  UNL     1     -12.465  21.980  28.896  1.00  0.00     0.179 HD
BRANCH  29  31
HETATM   31  S1  UNL     1     -11.614  23.256  27.127  1.00  0.00     0.263 S 
HETATM   32  O1  UNL     1     -12.534  23.219  25.924  1.00  0.00    -0.200 OA
HETATM   33  O2  UNL     1     -10.579  22.137  26.966  1.00  0.00    -0.200 OA
BRANCH  31  34
HETATM   34  C5  UNL     1     -10.778  24.751  27.120  1.00  0.00     0.079 A 
HETATM   35  C4  UNL     1      -9.709  24.971  27.968  1.00  0.00     0.026 A 
HETATM   36  C3  UNL     1      -9.098  26.199  27.943  1.00  0.00     0.008 A 
HETATM   37  C2  UNL     1      -9.522  27.198  27.102  1.00  0.00    -0.062 A 
HETATM   38  C1  UNL     1      -8.791  28.491  27.154  1.00  0.00     0.048 C 
HETATM   39  C23 UNL     1     -10.585  26.998  26.249  1.00  0.00     0.008 A 
HETATM   40  C22 UNL     1     -11.201  25.770  26.270  1.00  0.00     0.026 A 
ENDBRANCH  31  34
ENDBRANCH  29  31
ENDBRANCH   1  29
BRANCH  11  41
HETATM   41  N3  UNL     1     -11.510  31.082  30.578  1.00  0.00    -0.383 N 
ATOM     42  H32 UNL     1     -11.748  31.654  31.388  1.00  0.00     0.157 HD
ATOM     43  H31 UNL     1     -10.852  31.466  29.900  1.00  0.00     0.157 HD
ENDBRANCH  11  41
TORSDOF 4
ENDMDL
MODEL 5
REMARK VINA RESULT: -10.207375334      1.021      1.356
REMARK  4 active torsions:
REMARK  status: ('A' for Active; 'I' for Inactive)
REMARK    1  A    between atoms: C5_5  and  S1_6 
REMARK    2  A    between atoms: S1_6  and  N1_9 
REMARK    3  A    between atoms: N1_9  and  C6_11 
REMARK    4  A    between atoms: C14_21  and  N3_22 
ROOT
HETATM    1  C6  UNL     1     -13.705  23.459  28.993  1.00  0.00     0.043 A 
HETATM    2  C7  UNL     1     -14.299  22.663  29.935  1.00  0.00     0.031 A 
HETATM    3  C8  UNL     1     -15.116  23.259  30.894  1.00  0.00     0.017 A 
HETATM    4  C9  UNL     1     -15.353  24.626  30.935  1.00  0.00     0.003 A 
HETATM    5  C10 UNL     1     -14.761  25.435  29.998  1.00  0.00     0.007 A 
HETATM    6  C11 UNL     1     -13.952  24.845  29.046  1.00  0.00     0.044 A 
HETATM    7  C12 UNL     1     -14.882  26.907  29.920  1.00  0.00     0.059 A 
HETATM    8  C13 UNL     1     -13.818  27.629  29.353  1.00  0.00     0.120 A 
HETATM    9  N2  UNL     1     -13.927  28.968  29.297  1.00  0.00    -0.348 N 
ATOM     10  H2  UNL     1     -13.158  29.495  28.885  1.00  0.00     0.167 HD
HETATM   11  C14 UNL     1     -14.980  29.646  29.749  1.00  0.00     0.131 A 
HETATM   12  C15 UNL     1     -16.042  28.913  30.319  1.00  0.00     0.146 A 
HETATM   13  N4  UNL     1     -15.895  27.620  30.349  1.00  0.00    -0.347 N 
ATOM     14  H4  UNL     1     -16.667  27.094  30.760  1.00  0.00     0.166 HD
HETATM   15  C16 UNL     1     -17.208  29.627  30.853  1.00  0.00     0.285 C 
HETATM   16  O3  UNL     1     -17.506  30.687  30.173  1.00  0.00    -0.265 OA
HETATM   17  N5  UNL     1     -18.008  29.329  31.959  1.00  0.00    -0.243 N 
ATOM     18  H5  UNL     1     -18.038  30.054  32.675  1.00  0.00     0.182 HD
HETATM   19  S2  UNL     1     -18.951  27.936  32.304  1.00  0.00     0.281 S 
HETATM   20  O4  UNL     1     -19.873  27.549  31.168  1.00  0.00    -0.199 OA
HETATM   21  O5  UNL     1     -19.872  28.144  33.487  1.00  0.00    -0.199 OA
HETATM   22  C17 UNL     1     -17.934  26.539  32.728  1.00  0.00     0.149 A 
HETATM   23  C18 UNL     1     -17.964  25.965  33.970  1.00  0.00     0.044 A 
HETATM   24  C19 UNL     1     -17.121  24.889  34.276  1.00  0.00     0.005 A 
HETATM   25  C20 UNL     1     -16.282  24.460  33.269  1.00  0.00     0.030 A 
HETATM   26  C21 UNL     1     -16.268  25.060  32.009  1.00  0.00     0.044 A 
HETATM   27  N6  UNL     1     -17.105  26.053  31.852  1.00  0.00    -0.345 N 
ATOM     28  H6  UNL     1     -17.108  26.499  30.935  1.00  0.00     0.167 HD
ENDROOT
BRANCH   1  29
HETATM   29  N1  UNL     1     -12.846  22.926  28.013  1.00  0.00    -0.281 N 
ATOM     30  H1  UNL     1     -12.554  21.955  28.126  1.00  0.00     0.179 HD
BRANCH  29  31
HETATM   31  S1  UNL     1     -12.256  23.758  26.663  1.00  0.00     0.263 S 
HETATM   32  O1  UNL     1     -13.444  24.235  25.854  1.00  0.00    -0.200 OA
HETATM   33  O2  UNL     1     -11.465  22.766  25.803  1.00  0.00    -0.200 OA
BRANCH  31  34
HETATM   34  C5  UNL     1     -11.243  25.104  26.978  1.00  0.00     0.079 A 
HETATM   35  C4  UNL     1     -11.425  26.301  26.313  1.00  0.00     0.026 A 
HETATM   36  C3  UNL     1     -10.563  27.335  26.581  1.00  0.00     0.008 A 
HETATM   37  C2  UNL     1      -9.540  27.202  27.487  1.00  0.00    -0.062 A 
HETATM   38  C1  UNL     1      -8.663  28.383  27.703  1.00  0.00     0.048 C 
HETATM   39  C23 UNL     1      -9.342  26.018  28.160  1.00  0.00     0.008 A 
HETATM   40  C22 UNL     1     -10.203  24.979  27.896  1.00  0.00     0.026 A 
ENDBRANCH  31  34
ENDBRANCH  29  31
ENDBRANCH   1  29
BRANCH  11  41
HETATM   41  N3  UNL     1     -15.055  30.950  29.679  1.00  0.00    -0.383 N 
ATOM     42  H32 UNL     1     -15.063  31.408  28.768  1.00  0.00     0.157 HD
ATOM     43  H31 UNL     1     -15.104  31.540  30.510  1.00  0.00     0.157 HD
ENDBRANCH  11  41
TORSDOF 4
ENDMDL
