MODEL 1
REMARK VINA RESULT: -10.826703384      0.000      0.000
REMARK  6 active torsions:
REMARK  status: ('A' for Active; 'I' for Inactive)
REMARK    1  A    between atoms: C3_5  and  C4_6 
REMARK    2  A    between atoms: C14_16  and  C15_17 
REMARK    3  A    between atoms: C16_22  and  N4_23 
REMARK    4  A    between atoms: N4_23  and  C17_25 
REMARK    5  A    between atoms: C17_25  and  N5_27 
REMARK    6  A    between atoms: N5_27  and  C18_29 
ROOT
HETATM    1  C15 UNL     1     -13.898  28.696  30.744  1.00  0.00     0.113 A 
HETATM    2  N2  UNL     1     -12.774  27.952  30.910  1.00  0.00    -0.282 N 
ATOM      3  H2  UNL     1     -12.854  27.048  31.376  1.00  0.00     0.187 HD
HETATM    4  N3  UNL     1     -11.602  28.337  30.503  1.00  0.00    -0.129 N 
ATOM      5  H3  UNL     1     -10.804  27.722  30.664  1.00  0.00     0.205 HD
HETATM    6  C16 UNL     1     -11.387  29.545  29.859  1.00  0.00     0.723 A 
HETATM    7  N7  UNL     1     -12.489  30.309  29.679  1.00  0.00    -0.048 N 
HETATM    8  C24 UNL     1     -13.711  29.902  30.106  1.00  0.00     0.192 A 
HETATM    9  N8  UNL     1     -14.185  31.036  29.621  1.00  0.00    -0.264 N 
ATOM     10  H8  UNL     1     -15.117  31.449  29.583  1.00  0.00     0.190 HD
HETATM   11  N9  UNL     1     -13.003  31.431  29.206  1.00  0.00    -0.214 N 
HETATM   12  C25 UNL     1     -12.506  32.630  28.509  1.00  0.00     0.201 C 
ENDROOT
BRANCH   1  13
HETATM   13  C14 UNL     1     -15.181  28.193  31.209  1.00  0.00     0.081 A 
HETATM   14  C3  UNL     1     -15.702  26.999  31.133  1.00  0.00     0.061 A 
HETATM   15  C2  UNL     1     -17.049  26.985  31.764  1.00  0.00     0.262 A 
HETATM   16  N1  UNL     1     -17.304  28.283  32.235  1.00  0.00    -0.284 N 
HETATM   17  O1  UNL     1     -17.836  26.003  31.871  1.00  0.00    -0.267 OA
HETATM   18  C1  UNL     1     -18.511  28.747  32.928  1.00  0.00     0.163 C 
HETATM   19  C26 UNL     1     -16.169  29.049  31.906  1.00  0.00     0.263 A 
HETATM   20  O2  UNL     1     -16.032  30.267  32.170  1.00  0.00    -0.267 OA
BRANCH  14  21
HETATM   21  C4  UNL     1     -15.216  25.776  30.522  1.00  0.00    -0.008 A 
HETATM   22  C5  UNL     1     -15.291  24.610  31.232  1.00  0.00     0.013 A 
HETATM   23  C6  UNL     1     -14.856  23.441  30.674  1.00  0.00     0.002 A 
HETATM   24  C7  UNL     1     -14.342  23.432  29.398  1.00  0.00     0.012 A 
HETATM   25  C8  UNL     1     -14.255  24.587  28.658  1.00  0.00    -0.025 A 
HETATM   26  C9  UNL     1     -13.760  24.526  27.382  1.00  0.00     0.012 A 
HETATM   27  C13 UNL     1     -14.709  25.765  29.259  1.00  0.00    -0.015 A 
HETATM   28  C10 UNL     1     -13.691  25.663  26.612  1.00  0.00     0.001 A 
HETATM   29  C11 UNL     1     -14.132  26.855  27.160  1.00  0.00     0.001 A 
HETATM   30  C12 UNL     1     -14.629  26.888  28.458  1.00  0.00     0.013 A 
ENDBRANCH  14  21
ENDBRANCH   1  13
BRANCH   6  31
HETATM   31  N4  UNL     1     -10.261  29.853  29.490  1.00  0.00    -0.163 N 
ATOM     32  H4  UNL     1     -10.288  30.778  29.059  1.00  0.00     0.187 HD
BRANCH  31  33
HETATM   33  C17 UNL     1      -8.996  29.386  29.459  1.00  0.00     0.191 C 
HETATM   34  S1  UNL     1      -7.933  30.011  30.615  1.00  0.00    -0.040 SA
BRANCH  33  35
HETATM   35  N5  UNL     1      -8.399  28.412  28.626  1.00  0.00    -0.333 N 
ATOM     36  H5  UNL     1      -7.380  28.427  28.585  1.00  0.00     0.168 HD
BRANCH  35  37
HETATM   37  C18 UNL     1      -9.029  27.429  27.850  1.00  0.00     0.034 A 
HETATM   38  C19 UNL     1      -9.644  27.691  26.669  1.00  0.00     0.031 A 
HETATM   39  C20 UNL     1     -10.244  26.690  25.893  1.00  0.00     0.029 A 
HETATM   40  C21 UNL     1     -10.232  25.384  26.307  1.00  0.00     0.046 A 
HETATM   41  N6  UNL     1     -10.846  24.396  25.500  1.00  0.00    -0.102 NA
HETATM   42  C22 UNL     1      -9.613  25.108  27.503  1.00  0.00     0.029 A 
HETATM   43  C23 UNL     1      -9.030  26.084  28.254  1.00  0.00     0.031 A 
ENDBRANCH  35  37
ENDBRANCH  33  35
ENDBRANCH  31  33
ENDBRANCH   6  31
TORSDOF 6
ENDMDL
MODEL 2
REMARK VINA RESULT: -10.618583853      3.065      6.292
REMARK  6 active torsions:
REMARK  status: ('A' for Active; 'I' for Inactive)
REMARK    1  A    between atoms: C3_5  and  C4_6 
REMARK    2  A    between atoms: C14_16  and  C15_17 
REMARK    3  A    between atoms: C16_22  and  N4_23 
REMARK    4  A    between atoms: N4_23  and  C17_25 
REMARK    5  A    between atoms: C17_25  and  N5_27 
REMARK    6  A    between atoms: N5_27  and  C18_29 
ROOT
HETATM    1  C15 UNL     1     -12.573  29.291  29.213  1.00  0.00     0.113 A 
HETATM    2  N2  UNL     1     -12.146  28.603  30.304  1.00  0.00    -0.282 N 
ATOM      3  H2  UNL     1     -11.195  28.236  30.305  1.00  0.00     0.187 HD
HETATM    4  N3  UNL     1     -12.892  28.392  31.346  1.00  0.00    -0.129 N 
ATOM      5  H3  UNL     1     -12.500  27.867  32.128  1.00  0.00     0.205 HD
HETATM    6  C16 UNL     1     -14.197  28.849  31.444  1.00  0.00     0.723 A 
HETATM    7  N7  UNL     1     -14.652  29.538  30.373  1.00  0.00    -0.048 N 
HETATM    8  C24 UNL     1     -13.868  29.756  29.286  1.00  0.00     0.192 A 
HETATM    9  N8  UNL     1     -14.891  30.408  28.761  1.00  0.00    -0.264 N 
ATOM     10  H8  UNL     1     -15.036  30.891  27.875  1.00  0.00     0.190 HD
HETATM   11  N9  UNL     1     -15.651  30.198  29.812  1.00  0.00    -0.214 N 
HETATM   12  C25 UNL     1     -17.030  30.565  30.173  1.00  0.00     0.201 C 
ENDROOT
BRANCH   1  13
HETATM   13  C14 UNL     1     -11.677  29.506  28.089  1.00  0.00     0.081 A 
HETATM   14  C3  UNL     1     -10.909  28.670  27.445  1.00  0.00     0.061 A 
HETATM   15  C2  UNL     1     -10.180  29.377  26.357  1.00  0.00     0.262 A 
HETATM   16  N1  UNL     1     -10.575  30.723  26.395  1.00  0.00    -0.284 N 
HETATM   17  O1  UNL     1      -9.356  28.882  25.537  1.00  0.00    -0.267 OA
HETATM   18  C1  UNL     1     -10.117  31.801  25.510  1.00  0.00     0.163 C 
HETATM   19  C26 UNL     1     -11.498  30.832  27.453  1.00  0.00     0.263 A 
HETATM   20  O2  UNL     1     -12.070  31.895  27.793  1.00  0.00    -0.267 OA
BRANCH  14  21
HETATM   21  C4  UNL     1     -10.640  27.259  27.649  1.00  0.00    -0.008 A 
HETATM   22  C5  UNL     1      -9.439  26.889  28.187  1.00  0.00     0.013 A 
HETATM   23  C6  UNL     1      -9.167  25.567  28.405  1.00  0.00     0.002 A 
HETATM   24  C7  UNL     1     -10.098  24.607  28.084  1.00  0.00     0.012 A 
HETATM   25  C8  UNL     1     -11.314  24.947  27.544  1.00  0.00    -0.025 A 
HETATM   26  C9  UNL     1     -12.221  23.959  27.264  1.00  0.00     0.012 A 
HETATM   27  C13 UNL     1     -11.561  26.308  27.335  1.00  0.00    -0.015 A 
HETATM   28  C10 UNL     1     -13.456  24.278  26.751  1.00  0.00     0.001 A 
HETATM   29  C11 UNL     1     -13.750  25.612  26.529  1.00  0.00     0.001 A 
HETATM   30  C12 UNL     1     -12.811  26.595  26.820  1.00  0.00     0.013 A 
ENDBRANCH  14  21
ENDBRANCH   1  13
BRANCH   6  31
HETATM   31  N4  UNL     1     -14.852  28.627  32.456  1.00  0.00    -0.163 N 
ATOM     32  H4  UNL     1     -14.500  29.206  33.218  1.00  0.00     0.187 HD
BRANCH  31  33
HETATM   33  C17 UNL     1     -15.878  27.876  32.904  1.00  0.00     0.191 C 
HETATM   34  S1  UNL     1     -16.252  28.013  34.546  1.00  0.00    -0.040 SA
BRANCH  33  35
HETATM   35  N5  UNL     1     -16.741  26.997  32.211  1.00  0.00    -0.333 N 
ATOM     36  H5  UNL     1     -17.712  27.299  32.128  1.00  0.00     0.168 HD
BRANCH  35  37
HETATM   37  C18 UNL     1     -16.433  25.761  31.623  1.00  0.00     0.034 A 
HETATM   38  C19 UNL     1     -15.442  25.594  30.712  1.00  0.00     0.031 A 
HETATM   39  C20 UNL     1     -15.130  24.346  30.157  1.00  0.00     0.029 A 
HETATM   40  C21 UNL     1     -15.830  23.226  30.520  1.00  0.00     0.046 A 
HETATM   41  N6  UNL     1     -15.489  21.978  29.943  1.00  0.00    -0.102 NA
HETATM   42  C22 UNL     1     -16.838  23.383  31.442  1.00  0.00     0.029 A 
HETATM   43  C23 UNL     1     -17.137  24.599  31.980  1.00  0.00     0.031 A 
ENDBRANCH  35  37
ENDBRANCH  33  35
ENDBRANCH  31  33
ENDBRANCH   6  31
TORSDOF 6
ENDMDL
MODEL 3
REMARK VINA RESULT: -10.578465726      3.042      6.059
REMARK  6 active torsions:
REMARK  status: ('A' for Active; 'I' for Inactive)
REMARK    1  A    between atoms: C3_5  and  C4_6 
REMARK    2  A    between atoms: C14_16  and  C15_17 
REMARK    3  A    between atoms: C16_22  and  N4_23 
REMARK    4  A    between atoms: N4_23  and  C17_25 
REMARK    5  A    between atoms: C17_25  and  N5_27 
REMARK    6  A    between atoms: N5_27  and  C18_29 
ROOT
HETATM    1  C15 UNL     1     -12.492  28.619  30.903  1.00  0.00     0.113 A 
HETATM    2  N2  UNL     1     -12.161  27.394  30.418  1.00  0.00    -0.282 N 
ATOM      3  H2  UNL     1     -11.179  27.194  30.232  1.00  0.00     0.187 HD
HETATM    4  N3  UNL     1     -13.037  26.465  30.178  1.00  0.00    -0.129 N 
ATOM      5  H3  UNL     1     -12.712  25.570  29.814  1.00  0.00     0.205 HD
HETATM    6  C16 UNL     1     -14.396  26.636  30.397  1.00  0.00     0.723 A 
HETATM    7  N7  UNL     1     -14.756  27.847  30.881  1.00  0.00    -0.048 N 
HETATM    8  C24 UNL     1     -13.836  28.813  31.129  1.00  0.00     0.192 A 
HETATM    9  N8  UNL     1     -14.841  29.574  31.527  1.00  0.00    -0.264 N 
ATOM     10  H8  UNL     1     -14.901  30.528  31.885  1.00  0.00     0.190 HD
HETATM   11  N9  UNL     1     -15.733  28.640  31.288  1.00  0.00    -0.214 N 
HETATM   12  C25 UNL     1     -17.196  28.554  31.431  1.00  0.00     0.201 C 
ENDROOT
BRANCH   1  13
HETATM   13  C14 UNL     1     -11.455  29.603  31.165  1.00  0.00     0.081 A 
HETATM   14  C3  UNL     1     -10.440  29.981  30.437  1.00  0.00     0.061 A 
HETATM   15  C2  UNL     1      -9.663  31.032  31.146  1.00  0.00     0.262 A 
HETATM   16  N1  UNL     1     -10.297  31.265  32.376  1.00  0.00    -0.284 N 
HETATM   17  O1  UNL     1      -8.623  31.624  30.740  1.00  0.00    -0.267 OA
HETATM   18  C1  UNL     1      -9.887  32.218  33.413  1.00  0.00     0.163 C 
HETATM   19  C26 UNL     1     -11.406  30.397  32.415  1.00  0.00     0.263 A 
HETATM   20  O2  UNL     1     -12.217  30.321  33.369  1.00  0.00    -0.267 OA
BRANCH  14  21
HETATM   21  C4  UNL     1      -9.960  29.523  29.147  1.00  0.00    -0.008 A 
HETATM   22  C5  UNL     1      -9.309  28.323  29.074  1.00  0.00     0.013 A 
HETATM   23  C6  UNL     1      -8.862  27.861  27.868  1.00  0.00     0.002 A 
HETATM   24  C7  UNL     1      -9.064  28.599  26.726  1.00  0.00     0.012 A 
HETATM   25  C8  UNL     1      -9.716  29.807  26.766  1.00  0.00    -0.025 A 
HETATM   26  C9  UNL     1      -9.918  30.496  25.598  1.00  0.00     0.012 A 
HETATM   27  C13 UNL     1     -10.162  30.251  28.015  1.00  0.00    -0.015 A 
HETATM   28  C10 UNL     1     -10.595  31.693  25.609  1.00  0.00     0.001 A 
HETATM   29  C11 UNL     1     -11.060  32.173  26.821  1.00  0.00     0.001 A 
HETATM   30  C12 UNL     1     -10.840  31.455  27.991  1.00  0.00     0.013 A 
ENDBRANCH  14  21
ENDBRANCH   1  13
BRANCH   6  31
HETATM   31  N4  UNL     1     -15.176  25.722  30.160  1.00  0.00    -0.163 N 
ATOM     32  H4  UNL     1     -16.132  26.076  30.201  1.00  0.00     0.187 HD
BRANCH  31  33
HETATM   33  C17 UNL     1     -15.202  24.407  29.865  1.00  0.00     0.191 C 
HETATM   34  S1  UNL     1     -16.011  23.404  30.958  1.00  0.00    -0.040 SA
BRANCH  33  35
HETATM   35  N5  UNL     1     -14.684  23.708  28.750  1.00  0.00    -0.333 N 
ATOM     36  H5  UNL     1     -15.185  22.860  28.486  1.00  0.00     0.168 HD
BRANCH  35  37
HETATM   37  C18 UNL     1     -13.570  24.033  27.962  1.00  0.00     0.034 A 
HETATM   38  C19 UNL     1     -13.609  24.936  26.951  1.00  0.00     0.031 A 
HETATM   39  C20 UNL     1     -12.478  25.268  26.192  1.00  0.00     0.029 A 
HETATM   40  C21 UNL     1     -11.268  24.680  26.449  1.00  0.00     0.046 A 
HETATM   41  N6  UNL     1     -10.144  25.038  25.667  1.00  0.00    -0.102 NA
HETATM   42  C22 UNL     1     -11.217  23.762  27.472  1.00  0.00     0.029 A 
HETATM   43  C23 UNL     1     -12.320  23.443  28.207  1.00  0.00     0.031 A 
ENDBRANCH  35  37
ENDBRANCH  33  35
ENDBRANCH  31  33
ENDBRANCH   6  31
TORSDOF 6
ENDMDL
MODEL 4
REMARK VINA RESULT: -10.516198273      3.124      6.306
REMARK  6 active torsions:
REMARK  status: ('A' for Active; 'I' for Inactive)
REMARK    1  A    between atoms: C3_5  and  C4_6 
REMARK    2  A    between atoms: C14_16  and  C15_17 
REMARK    3  A    between atoms: C16_22  and  N4_23 
REMARK    4  A    between atoms: N4_23  and  C17_25 
REMARK    5  A    between atoms: C17_25  and  N5_27 
REMARK    6  A    between atoms: N5_27  and  C18_29 
ROOT
HETATM    1  C15 UNL     1     -12.322  29.382  29.458  1.00  0.00     0.113 A 
HETATM    2  N2  UNL     1     -13.510  28.723  29.431  1.00  0.00    -0.282 N 
ATOM      3  H2  UNL     1     -13.859  28.389  28.533  1.00  0.00     0.187 HD
HETATM    4  N3  UNL     1     -14.221  28.500  30.494  1.00  0.00    -0.129 N 
ATOM      5  H3  UNL     1     -15.104  27.999  30.394  1.00  0.00     0.205 HD
HETATM    6  C16 UNL     1     -13.835  28.913  31.760  1.00  0.00     0.723 A 
HETATM    7  N7  UNL     1     -12.655  29.572  31.819  1.00  0.00    -0.048 N 
HETATM    8  C24 UNL     1     -11.916  29.802  30.705  1.00  0.00     0.192 A 
HETATM    9  N8  UNL     1     -11.040  30.404  31.491  1.00  0.00    -0.264 N 
ATOM     10  H8  UNL     1     -10.146  30.866  31.323  1.00  0.00     0.190 HD
HETATM   11  N9  UNL     1     -11.754  30.181  32.571  1.00  0.00    -0.214 N 
HETATM   12  C25 UNL     1     -11.583  30.495  33.999  1.00  0.00     0.201 C 
ENDROOT
BRANCH   1  13
HETATM   13  C14 UNL     1     -11.569  29.579  28.230  1.00  0.00     0.081 A 
HETATM   14  C3  UNL     1     -10.893  28.731  27.503  1.00  0.00     0.061 A 
HETATM   15  C2  UNL     1     -10.299  29.422  26.327  1.00  0.00     0.262 A 
HETATM   16  N1  UNL     1     -10.674  30.772  26.401  1.00  0.00    -0.284 N 
HETATM   17  O1  UNL     1      -9.586  28.912  25.417  1.00  0.00    -0.267 OA
HETATM   18  C1  UNL     1     -10.320  31.838  25.457  1.00  0.00     0.163 C 
HETATM   19  C26 UNL     1     -11.458  30.898  27.564  1.00  0.00     0.263 A 
HETATM   20  O2  UNL     1     -11.975  31.969  27.962  1.00  0.00    -0.267 OA
BRANCH  14  21
HETATM   21  C4  UNL     1     -10.614  27.319  27.686  1.00  0.00    -0.008 A 
HETATM   22  C5  UNL     1      -9.409  26.950  28.215  1.00  0.00     0.013 A 
HETATM   23  C6  UNL     1      -9.127  25.627  28.413  1.00  0.00     0.002 A 
HETATM   24  C7  UNL     1     -10.051  24.665  28.080  1.00  0.00     0.012 A 
HETATM   25  C8  UNL     1     -11.271  25.004  27.548  1.00  0.00    -0.025 A 
HETATM   26  C9  UNL     1     -12.171  24.013  27.257  1.00  0.00     0.012 A 
HETATM   27  C13 UNL     1     -11.528  26.366  27.360  1.00  0.00    -0.015 A 
HETATM   28  C10 UNL     1     -13.410  24.330  26.752  1.00  0.00     0.001 A 
HETATM   29  C11 UNL     1     -13.715  25.665  26.550  1.00  0.00     0.001 A 
HETATM   30  C12 UNL     1     -12.782  26.651  26.854  1.00  0.00     0.013 A 
ENDBRANCH  14  21
ENDBRANCH   1  13
BRANCH   6  31
HETATM   31  N4  UNL     1     -14.543  28.668  32.729  1.00  0.00    -0.163 N 
ATOM     32  H4  UNL     1     -14.637  29.509  33.299  1.00  0.00     0.187 HD
BRANCH  31  33
HETATM   33  C17 UNL     1     -15.241  27.665  33.299  1.00  0.00     0.191 C 
HETATM   34  S1  UNL     1     -14.932  27.363  34.932  1.00  0.00    -0.040 SA
BRANCH  33  35
HETATM   35  N5  UNL     1     -16.240  26.822  32.759  1.00  0.00    -0.333 N 
ATOM     36  H5  UNL     1     -17.204  27.115  32.919  1.00  0.00     0.168 HD
BRANCH  35  37
HETATM   37  C18 UNL     1     -16.074  25.634  32.033  1.00  0.00     0.034 A 
HETATM   38  C19 UNL     1     -15.012  25.396  31.223  1.00  0.00     0.031 A 
HETATM   39  C20 UNL     1     -14.849  24.190  30.527  1.00  0.00     0.029 A 
HETATM   40  C21 UNL     1     -15.776  23.188  30.640  1.00  0.00     0.046 A 
HETATM   41  N6  UNL     1     -15.582  21.981  29.926  1.00  0.00    -0.102 NA
HETATM   42  C22 UNL     1     -16.858  23.419  31.457  1.00  0.00     0.029 A 
HETATM   43  C23 UNL     1     -17.011  24.592  32.133  1.00  0.00     0.031 A 
ENDBRANCH  35  37
ENDBRANCH  33  35
ENDBRANCH  31  33
ENDBRANCH   6  31
TORSDOF 6
ENDMDL
MODEL 5
REMARK VINA RESULT: -10.377616077      2.891      5.960
REMARK  6 active torsions:
REMARK  status: ('A' for Active; 'I' for Inactive)
REMARK    1  A    between atoms: C3_5  and  C4_6 
REMARK    2  A    between atoms: C14_16  and  C15_17 
REMARK    3  A    between atoms: C16_22  and  N4_23 
REMARK    4  A    between atoms: N4_23  and  C17_25 
REMARK    5  A    between atoms: C17_25  and  N5_27 
REMARK    6  A    between atoms: N5_27  and  C18_29 
ROOT
HETATM    1  C15 UNL     1     -14.185  29.538  29.603  1.00  0.00     0.113 A 
HETATM    2  N2  UNL     1     -14.628  28.684  28.644  1.00  0.00    -0.282 N 
ATOM      3  H2  UNL     1     -14.644  29.007  27.677  1.00  0.00     0.187 HD
HETATM    4  N3  UNL     1     -15.034  27.478  28.901  1.00  0.00    -0.129 N 
ATOM      5  H3  UNL     1     -15.353  26.896  28.126  1.00  0.00     0.205 HD
HETATM    6  C16 UNL     1     -15.052  26.944  30.180  1.00  0.00     0.723 A 
HETATM    7  N7  UNL     1     -14.615  27.771  31.158  1.00  0.00    -0.048 N 
HETATM    8  C24 UNL     1     -14.192  29.031  30.884  1.00  0.00     0.192 A 
HETATM    9  N8  UNL     1     -13.961  29.163  32.179  1.00  0.00    -0.264 N 
ATOM     10  H8  UNL     1     -13.601  29.925  32.754  1.00  0.00     0.190 HD
HETATM   11  N9  UNL     1     -14.369  27.944  32.445  1.00  0.00    -0.214 N 
HETATM   12  C25 UNL     1     -14.484  27.145  33.677  1.00  0.00     0.201 C 
ENDROOT
BRANCH   1  13
HETATM   13  C14 UNL     1     -13.728  30.869  29.241  1.00  0.00     0.081 A 
HETATM   14  C3  UNL     1     -12.526  31.378  29.224  1.00  0.00     0.061 A 
HETATM   15  C2  UNL     1     -12.575  32.794  28.769  1.00  0.00     0.262 A 
HETATM   16  N1  UNL     1     -13.919  33.104  28.508  1.00  0.00    -0.284 N 
HETATM   17  O1  UNL     1     -11.604  33.591  28.633  1.00  0.00    -0.267 OA
HETATM   18  C1  UNL     1     -14.451  34.388  28.038  1.00  0.00     0.163 C 
HETATM   19  C26 UNL     1     -14.653  31.936  28.791  1.00  0.00     0.263 A 
HETATM   20  O2  UNL     1     -15.897  31.831  28.674  1.00  0.00    -0.267 OA
BRANCH  14  21
HETATM   21  C4  UNL     1     -11.241  30.822  29.603  1.00  0.00    -0.008 A 
HETATM   22  C5  UNL     1     -10.741  31.106  30.843  1.00  0.00     0.013 A 
HETATM   23  C6  UNL     1      -9.541  30.581  31.232  1.00  0.00     0.002 A 
HETATM   24  C7  UNL     1      -8.833  29.766  30.380  1.00  0.00     0.012 A 
HETATM   25  C8  UNL     1      -9.310  29.460  29.128  1.00  0.00    -0.025 A 
HETATM   26  C9  UNL     1      -8.583  28.624  28.323  1.00  0.00     0.012 A 
HETATM   27  C13 UNL     1     -10.541  30.013  28.762  1.00  0.00    -0.015 A 
HETATM   28  C10 UNL     1      -9.054  28.279  27.078  1.00  0.00     0.001 A 
HETATM   29  C11 UNL     1     -10.271  28.798  26.670  1.00  0.00     0.001 A 
HETATM   30  C12 UNL     1     -10.987  29.645  27.507  1.00  0.00     0.013 A 
ENDBRANCH  14  21
ENDBRANCH   1  13
BRANCH   6  31
HETATM   31  N4  UNL     1     -15.438  25.796  30.362  1.00  0.00    -0.163 N 
ATOM     32  H4  UNL     1     -16.286  25.812  30.929  1.00  0.00     0.187 HD
BRANCH  31  33
HETATM   33  C17 UNL     1     -15.123  24.518  30.068  1.00  0.00     0.191 C 
HETATM   34  S1  UNL     1     -15.298  23.392  31.316  1.00  0.00    -0.040 SA
BRANCH  33  35
HETATM   35  N5  UNL     1     -14.693  23.937  28.854  1.00  0.00    -0.333 N 
ATOM     36  H5  UNL     1     -15.291  23.202  28.476  1.00  0.00     0.168 HD
BRANCH  35  37
HETATM   37  C18 UNL     1     -13.548  24.241  28.102  1.00  0.00     0.034 A 
HETATM   38  C19 UNL     1     -12.304  23.813  28.430  1.00  0.00     0.031 A 
HETATM   39  C20 UNL     1     -11.176  24.103  27.651  1.00  0.00     0.029 A 
HETATM   40  C21 UNL     1     -11.291  24.847  26.506  1.00  0.00     0.046 A 
HETATM   41  N6  UNL     1     -10.133  25.122  25.740  1.00  0.00    -0.102 NA
HETATM   42  C22 UNL     1     -12.548  25.288  26.165  1.00  0.00     0.029 A 
HETATM   43  C23 UNL     1     -13.642  25.002  26.925  1.00  0.00     0.031 A 
ENDBRANCH  35  37
ENDBRANCH  33  35
ENDBRANCH  31  33
ENDBRANCH   6  31
TORSDOF 6
ENDMDL
