MODEL 1
REMARK VINA RESULT: -10.257069611      0.000      0.000
REMARK  5 active torsions:
REMARK  status: ('A' for Active; 'I' for Inactive)
REMARK       I    between atoms: C1_2  and  N1_3 
REMARK    1  A    between atoms: C1_2  and  C8_17 
REMARK    2  A    between atoms: N1_3  and  C2_5 
REMARK    3  A    between atoms: C11_20  and  S2_21 
REMARK    4  A    between atoms: S2_21  and  N4_24 
REMARK    5  A    between atoms: N4_24  and  C12_26 
ROOT
HETATM    1  C8  UNL     1      -9.807  27.323  27.562  1.00  0.00     0.061 A 
HETATM    2  C9  UNL     1      -9.248  26.093  27.308  1.00  0.00     0.021 A 
HETATM    3  C10 UNL     1     -10.025  24.956  27.142  1.00  0.00     0.029 A 
HETATM    4  C11 UNL     1     -11.390  25.128  27.246  1.00  0.00     0.109 A 
HETATM    5  C19 UNL     1     -11.978  26.375  27.505  1.00  0.00     0.091 A 
HETATM    6  N7  UNL     1     -13.299  26.573  27.612  1.00  0.00    -0.309 N 
ATOM      7  H7  UNL     1     -14.044  25.882  27.527  1.00  0.00     0.176 HD
HETATM    8  S3  UNL     1     -13.451  28.217  27.919  1.00  0.00     0.068 SA
HETATM    9  N8  UNL     1     -11.826  28.618  27.906  1.00  0.00    -0.309 N 
ATOM     10  H8  UNL     1     -11.406  29.536  28.051  1.00  0.00     0.176 HD
HETATM   11  C20 UNL     1     -11.204  27.461  27.662  1.00  0.00     0.084 A 
ENDROOT
BRANCH   1  12
HETATM   12  C1  UNL     1      -8.921  28.466  27.723  1.00  0.00     0.260 C 
HETATM   13  O1  UNL     1      -8.929  29.416  26.907  1.00  0.00    -0.267 OA
HETATM   14  N1  UNL     1      -7.999  28.572  28.812  1.00  0.00    -0.303 N 
ATOM     15  H1  UNL     1      -7.198  27.947  28.904  1.00  0.00     0.171 HD
BRANCH  14  16
HETATM   16  C2  UNL     1      -8.247  29.525  29.692  1.00  0.00     0.154 A 
HETATM   17  N2  UNL     1      -7.373  30.385  30.208  1.00  0.00    -0.334 N 
HETATM   18  C3  UNL     1      -7.804  31.275  31.080  1.00  0.00     0.068 A 
ATOM     19  H2  UNL     1      -6.390  30.356  29.936  1.00  0.00     0.168 HD
HETATM   20  C4  UNL     1      -7.067  32.275  31.751  1.00  0.00     0.038 A 
HETATM   21  C7  UNL     1      -9.133  31.257  31.397  1.00  0.00     0.107 A 
HETATM   22  C5  UNL     1      -7.664  33.130  32.632  1.00  0.00     0.077 A 
HETATM   23  C6  UNL     1      -9.010  33.070  32.919  1.00  0.00     0.246 A 
HETATM   24  O2  UNL     1      -9.551  33.842  33.716  1.00  0.00    -0.268 OA
HETATM   25  N3  UNL     1      -9.710  32.128  32.288  1.00  0.00    -0.316 N 
ATOM     26  H3  UNL     1     -10.710  32.052  32.474  1.00  0.00     0.169 HD
HETATM   27  S1  UNL     1      -9.713  29.966  30.436  1.00  0.00    -0.034 SA
ENDBRANCH  14  16
ENDBRANCH   1  12
BRANCH   4  28
HETATM   28  S2  UNL     1     -12.416  23.709  27.043  1.00  0.00     0.279 S 
HETATM   29  O3  UNL     1     -13.636  24.149  26.246  1.00  0.00    -0.200 OA
HETATM   30  O4  UNL     1     -11.667  22.743  26.157  1.00  0.00    -0.200 OA
BRANCH  28  31
HETATM   31  N4  UNL     1     -12.833  23.020  28.541  1.00  0.00    -0.112 N 
ATOM     32  H4  UNL     1     -12.244  22.265  28.892  1.00  0.00     0.197 HD
BRANCH  31  33
HETATM   33  C12 UNL     1     -13.827  23.375  29.263  1.00  0.00     0.693 A 
HETATM   34  N5  UNL     1     -14.063  24.528  29.907  1.00  0.00    -0.189 N 
HETATM   35  C13 UNL     1     -15.240  24.467  30.547  1.00  0.00     0.076 A 
ATOM     36  H5  UNL     1     -13.438  25.334  29.909  1.00  0.00     0.184 HD
HETATM   37  C14 UNL     1     -15.906  25.385  31.333  1.00  0.00     0.032 A 
HETATM   38  C18 UNL     1     -15.760  23.220  30.288  1.00  0.00     0.076 A 
HETATM   39  C15 UNL     1     -17.139  25.052  31.884  1.00  0.00     0.002 A 
HETATM   40  C16 UNL     1     -17.681  23.809  31.639  1.00  0.00     0.002 A 
HETATM   41  C17 UNL     1     -16.985  22.924  30.851  1.00  0.00     0.032 A 
HETATM   42  N6  UNL     1     -14.883  22.565  29.501  1.00  0.00    -0.189 N 
ATOM     43  H6  UNL     1     -14.997  21.617  29.144  1.00  0.00     0.184 HD
ENDBRANCH  31  33
ENDBRANCH  28  31
ENDBRANCH   4  28
TORSDOF 5
ENDMDL
MODEL 2
REMARK VINA RESULT: -10.011264812      0.878      1.219
REMARK  5 active torsions:
REMARK  status: ('A' for Active; 'I' for Inactive)
REMARK       I    between atoms: C1_2  and  N1_3 
REMARK    1  A    between atoms: C1_2  and  C8_17 
REMARK    2  A    between atoms: N1_3  and  C2_5 
REMARK    3  A    between atoms: C11_20  and  S2_21 
REMARK    4  A    between atoms: S2_21  and  N4_24 
REMARK    5  A    between atoms: N4_24  and  C12_26 
ROOT
HETATM    1  C8  UNL     1      -9.969  27.239  27.736  1.00  0.00     0.061 A 
HETATM    2  C9  UNL     1      -9.290  26.049  27.608  1.00  0.00     0.021 A 
HETATM    3  C10 UNL     1      -9.953  24.844  27.433  1.00  0.00     0.029 A 
HETATM    4  C11 UNL     1     -11.331  24.903  27.395  1.00  0.00     0.109 A 
HETATM    5  C19 UNL     1     -12.039  26.106  27.524  1.00  0.00     0.091 A 
HETATM    6  N7  UNL     1     -13.377  26.196  27.492  1.00  0.00    -0.309 N 
ATOM      7  H7  UNL     1     -14.051  25.440  27.374  1.00  0.00     0.176 HD
HETATM    8  S3  UNL     1     -13.690  27.833  27.688  1.00  0.00     0.068 SA
HETATM    9  N8  UNL     1     -12.110  28.371  27.809  1.00  0.00    -0.309 N 
ATOM     10  H8  UNL     1     -11.782  29.328  27.942  1.00  0.00     0.176 HD
HETATM   11  C20 UNL     1     -11.375  27.261  27.692  1.00  0.00     0.084 A 
ENDROOT
BRANCH   1  12
HETATM   12  C1  UNL     1      -9.198  28.459  27.917  1.00  0.00     0.260 C 
HETATM   13  O1  UNL     1      -9.320  29.428  27.131  1.00  0.00    -0.267 OA
HETATM   14  N1  UNL     1      -8.268  28.625  28.990  1.00  0.00    -0.303 N 
ATOM     15  H1  UNL     1      -7.406  28.082  29.047  1.00  0.00     0.171 HD
BRANCH  14  16
HETATM   16  C2  UNL     1      -8.590  29.522  29.905  1.00  0.00     0.154 A 
HETATM   17  N2  UNL     1      -9.792  29.728  30.435  1.00  0.00    -0.334 N 
HETATM   18  C3  UNL     1      -9.928  30.675  31.342  1.00  0.00     0.068 A 
ATOM     19  H2  UNL     1     -10.593  29.165  30.146  1.00  0.00     0.168 HD
HETATM   20  C4  UNL     1     -11.094  31.069  32.033  1.00  0.00     0.038 A 
HETATM   21  C7  UNL     1      -8.814  31.388  31.682  1.00  0.00     0.107 A 
HETATM   22  C5  UNL     1     -11.072  32.077  32.953  1.00  0.00     0.077 A 
HETATM   23  C6  UNL     1      -9.920  32.767  33.260  1.00  0.00     0.246 A 
HETATM   24  O2  UNL     1      -9.899  33.680  34.092  1.00  0.00    -0.268 OA
HETATM   25  N3  UNL     1      -8.816  32.400  32.611  1.00  0.00    -0.316 N 
ATOM     26  H3  UNL     1      -7.943  32.888  32.810  1.00  0.00     0.169 HD
HETATM   27  S1  UNL     1      -7.616  30.676  30.689  1.00  0.00    -0.034 SA
ENDBRANCH  14  16
ENDBRANCH   1  12
BRANCH   4  28
HETATM   28  S2  UNL     1     -12.213  23.394  27.174  1.00  0.00     0.279 S 
HETATM   29  O3  UNL     1     -13.372  23.686  26.232  1.00  0.00    -0.200 OA
HETATM   30  O4  UNL     1     -11.299  22.449  26.431  1.00  0.00    -0.200 OA
BRANCH  28  31
HETATM   31  N4  UNL     1     -12.732  22.751  28.662  1.00  0.00    -0.112 N 
ATOM     32  H4  UNL     1     -12.211  21.961  29.041  1.00  0.00     0.197 HD
BRANCH  31  33
HETATM   33  C12 UNL     1     -13.727  23.182  29.342  1.00  0.00     0.693 A 
HETATM   34  N5  UNL     1     -13.916  24.363  29.948  1.00  0.00    -0.189 N 
HETATM   35  C13 UNL     1     -15.113  24.387  30.552  1.00  0.00     0.076 A 
ATOM     36  H5  UNL     1     -13.246  25.133  29.949  1.00  0.00     0.184 HD
HETATM   37  C14 UNL     1     -15.749  25.363  31.292  1.00  0.00     0.032 A 
HETATM   38  C18 UNL     1     -15.695  23.164  30.309  1.00  0.00     0.076 A 
HETATM   39  C15 UNL     1     -17.015  25.115  31.812  1.00  0.00     0.002 A 
HETATM   40  C16 UNL     1     -17.619  23.899  31.583  1.00  0.00     0.002 A 
HETATM   41  C17 UNL     1     -16.951  22.954  30.841  1.00  0.00     0.032 A 
HETATM   42  N6  UNL     1     -14.834  22.439  29.567  1.00  0.00    -0.189 N 
ATOM     43  H6  UNL     1     -14.991  21.489  29.232  1.00  0.00     0.184 HD
ENDBRANCH  31  33
ENDBRANCH  28  31
ENDBRANCH   4  28
TORSDOF 5
ENDMDL
MODEL 3
REMARK VINA RESULT: -9.958614219      6.009     10.423
REMARK  5 active torsions:
REMARK  status: ('A' for Active; 'I' for Inactive)
REMARK       I    between atoms: C1_2  and  N1_3 
REMARK    1  A    between atoms: C1_2  and  C8_17 
REMARK    2  A    between atoms: N1_3  and  C2_5 
REMARK    3  A    between atoms: C11_20  and  S2_21 
REMARK    4  A    between atoms: S2_21  and  N4_24 
REMARK    5  A    between atoms: N4_24  and  C12_26 
ROOT
HETATM    1  C8  UNL     1      -9.979  29.201  26.435  1.00  0.00     0.061 A 
HETATM    2  C9  UNL     1      -9.558  29.692  25.222  1.00  0.00     0.021 A 
HETATM    3  C10 UNL     1      -9.860  30.981  24.809  1.00  0.00     0.029 A 
HETATM    4  C11 UNL     1     -10.606  31.744  25.684  1.00  0.00     0.109 A 
HETATM    5  C19 UNL     1     -11.044  31.261  26.925  1.00  0.00     0.091 A 
HETATM    6  N7  UNL     1     -11.769  31.977  27.795  1.00  0.00    -0.309 N 
ATOM      7  H7  UNL     1     -12.099  32.937  27.693  1.00  0.00     0.176 HD
HETATM    8  S3  UNL     1     -12.012  30.938  29.091  1.00  0.00     0.068 SA
HETATM    9  N8  UNL     1     -11.185  29.610  28.497  1.00  0.00    -0.309 N 
ATOM     10  H8  UNL     1     -11.053  28.703  28.944  1.00  0.00     0.176 HD
HETATM   11  C20 UNL     1     -10.738  30.009  27.302  1.00  0.00     0.084 A 
ENDROOT
BRANCH   1  12
HETATM   12  C1  UNL     1      -9.619  27.838  26.793  1.00  0.00     0.260 C 
HETATM   13  O1  UNL     1      -8.812  27.599  27.722  1.00  0.00    -0.267 OA
HETATM   14  N1  UNL     1     -10.161  26.701  26.114  1.00  0.00    -0.303 N 
ATOM     15  H1  UNL     1      -9.937  26.496  25.140  1.00  0.00     0.171 HD
BRANCH  14  16
HETATM   16  C2  UNL     1     -10.967  25.932  26.823  1.00  0.00     0.154 A 
HETATM   17  N2  UNL     1     -12.195  26.230  27.241  1.00  0.00    -0.334 N 
HETATM   18  C3  UNL     1     -12.857  25.332  27.942  1.00  0.00     0.068 A 
ATOM     19  H2  UNL     1     -12.615  27.134  27.023  1.00  0.00     0.168 HD
HETATM   20  C4  UNL     1     -14.157  25.426  28.485  1.00  0.00     0.038 A 
HETATM   21  C7  UNL     1     -12.235  24.143  28.195  1.00  0.00     0.107 A 
HETATM   22  C5  UNL     1     -14.710  24.398  29.194  1.00  0.00     0.077 A 
HETATM   23  C6  UNL     1     -14.039  23.218  29.423  1.00  0.00     0.246 A 
HETATM   24  O2  UNL     1     -14.538  22.288  30.064  1.00  0.00    -0.268 OA
HETATM   25  N3  UNL     1     -12.812  23.123  28.913  1.00  0.00    -0.316 N 
ATOM     26  H3  UNL     1     -12.282  22.265  29.061  1.00  0.00     0.169 HD
HETATM   27  S1  UNL     1     -10.725  24.357  27.420  1.00  0.00    -0.034 SA
ENDBRANCH  14  16
ENDBRANCH   1  12
BRANCH   4  28
HETATM   28  S2  UNL     1     -11.013  33.389  25.199  1.00  0.00     0.279 S 
HETATM   29  O3  UNL     1     -12.520  33.541  25.352  1.00  0.00    -0.200 OA
HETATM   30  O4  UNL     1     -10.395  34.318  26.215  1.00  0.00    -0.200 OA
BRANCH  28  31
HETATM   31  N4  UNL     1     -10.485  33.722  23.616  1.00  0.00    -0.112 N 
ATOM     32  H4  UNL     1      -9.625  33.272  23.303  1.00  0.00     0.197 HD
BRANCH  31  33
HETATM   33  C12 UNL     1     -11.083  34.492  22.788  1.00  0.00     0.693 A 
HETATM   34  N5  UNL     1     -10.588  35.258  21.805  1.00  0.00    -0.189 N 
HETATM   35  C13 UNL     1     -11.581  35.907  21.179  1.00  0.00     0.076 A 
ATOM     36  H5  UNL     1      -9.599  35.335  21.566  1.00  0.00     0.184 HD
HETATM   37  C14 UNL     1     -11.575  36.796  20.124  1.00  0.00     0.032 A 
HETATM   38  C18 UNL     1     -12.747  35.526  21.803  1.00  0.00     0.076 A 
HETATM   39  C15 UNL     1     -12.777  37.328  19.667  1.00  0.00     0.002 A 
HETATM   40  C16 UNL     1     -13.958  36.962  20.274  1.00  0.00     0.002 A 
HETATM   41  C17 UNL     1     -13.919  36.075  21.323  1.00  0.00     0.032 A 
HETATM   42  N6  UNL     1     -12.424  34.661  22.784  1.00  0.00    -0.189 N 
ATOM     43  H6  UNL     1     -13.082  34.208  23.418  1.00  0.00     0.184 HD
ENDBRANCH  31  33
ENDBRANCH  28  31
ENDBRANCH   4  28
TORSDOF 5
ENDMDL
MODEL 4
REMARK VINA RESULT: -9.953868940      3.419      4.795
REMARK  5 active torsions:
REMARK  status: ('A' for Active; 'I' for Inactive)
REMARK       I    between atoms: C1_2  and  N1_3 
REMARK    1  A    between atoms: C1_2  and  C8_17 
REMARK    2  A    between atoms: N1_3  and  C2_5 
REMARK    3  A    between atoms: C11_20  and  S2_21 
REMARK    4  A    between atoms: S2_21  and  N4_24 
REMARK    5  A    between atoms: N4_24  and  C12_26 
ROOT
HETATM    1  C8  UNL     1     -10.885  26.153  28.621  1.00  0.00     0.061 A 
HETATM    2  C9  UNL     1     -11.830  26.503  29.557  1.00  0.00     0.021 A 
HETATM    3  C10 UNL     1     -12.850  25.639  29.926  1.00  0.00     0.029 A 
HETATM    4  C11 UNL     1     -12.865  24.408  29.302  1.00  0.00     0.109 A 
HETATM    5  C19 UNL     1     -11.910  24.034  28.345  1.00  0.00     0.091 A 
HETATM    6  N7  UNL     1     -11.898  22.847  27.722  1.00  0.00    -0.309 N 
ATOM      7  H7  UNL     1     -12.550  22.072  27.841  1.00  0.00     0.176 HD
HETATM    8  S3  UNL     1     -10.569  22.926  26.700  1.00  0.00     0.068 SA
HETATM    9  N8  UNL     1     -10.055  24.471  27.087  1.00  0.00    -0.309 N 
ATOM     10  H8  UNL     1      -9.255  24.978  26.709  1.00  0.00     0.176 HD
HETATM   11  C20 UNL     1     -10.932  24.889  28.005  1.00  0.00     0.084 A 
ENDROOT
BRANCH   1  12
HETATM   12  C1  UNL     1      -9.848  27.118  28.290  1.00  0.00     0.260 C 
HETATM   13  O1  UNL     1      -8.830  26.782  27.642  1.00  0.00    -0.267 OA
HETATM   14  N1  UNL     1      -9.929  28.492  28.679  1.00  0.00    -0.303 N 
ATOM     15  H1  UNL     1      -9.875  28.781  29.656  1.00  0.00     0.171 HD
BRANCH  14  16
HETATM   16  C2  UNL     1     -10.079  29.365  27.699  1.00  0.00     0.154 A 
HETATM   17  N2  UNL     1      -9.589  29.276  26.466  1.00  0.00    -0.334 N 
HETATM   18  C3  UNL     1      -9.842  30.250  25.615  1.00  0.00     0.068 A 
ATOM     19  H2  UNL     1      -9.028  28.471  26.185  1.00  0.00     0.168 HD
HETATM   20  C4  UNL     1      -9.430  30.370  24.270  1.00  0.00     0.038 A 
HETATM   21  C7  UNL     1     -10.599  31.296  26.059  1.00  0.00     0.107 A 
HETATM   22  C5  UNL     1      -9.778  31.450  23.511  1.00  0.00     0.077 A 
HETATM   23  C6  UNL     1     -10.545  32.481  24.007  1.00  0.00     0.246 A 
HETATM   24  O2  UNL     1     -10.860  33.459  23.322  1.00  0.00    -0.268 OA
HETATM   25  N3  UNL     1     -10.936  32.373  25.276  1.00  0.00    -0.316 N 
ATOM     26  H3  UNL     1     -11.505  33.117  25.680  1.00  0.00     0.169 HD
HETATM   27  S1  UNL     1     -10.919  30.845  27.678  1.00  0.00    -0.034 SA
ENDBRANCH  14  16
ENDBRANCH   1  12
BRANCH   4  28
HETATM   28  S2  UNL     1     -14.144  23.279  29.741  1.00  0.00     0.279 S 
HETATM   29  O3  UNL     1     -15.176  23.315  28.623  1.00  0.00    -0.200 OA
HETATM   30  O4  UNL     1     -13.544  21.893  29.710  1.00  0.00    -0.200 OA
BRANCH  28  31
HETATM   31  N4  UNL     1     -14.816  23.656  31.258  1.00  0.00    -0.112 N 
ATOM     32  H4  UNL     1     -14.281  23.397  32.087  1.00  0.00     0.197 HD
BRANCH  31  33
HETATM   33  C12 UNL     1     -15.941  24.238  31.440  1.00  0.00     0.693 A 
HETATM   34  N5  UNL     1     -17.171  23.722  31.580  1.00  0.00    -0.189 N 
HETATM   35  C13 UNL     1     -18.067  24.705  31.752  1.00  0.00     0.076 A 
ATOM     36  H5  UNL     1     -17.393  22.727  31.559  1.00  0.00     0.184 HD
HETATM   37  C14 UNL     1     -19.435  24.678  31.934  1.00  0.00     0.032 A 
HETATM   38  C18 UNL     1     -17.361  25.886  31.718  1.00  0.00     0.076 A 
HETATM   39  C15 UNL     1     -20.130  25.873  32.091  1.00  0.00     0.002 A 
HETATM   40  C16 UNL     1     -19.446  27.068  32.061  1.00  0.00     0.002 A 
HETATM   41  C17 UNL     1     -18.084  27.050  31.876  1.00  0.00     0.032 A 
HETATM   42  N6  UNL     1     -16.062  25.582  31.527  1.00  0.00    -0.189 N 
ATOM     43  H6  UNL     1     -15.298  26.253  31.458  1.00  0.00     0.184 HD
ENDBRANCH  31  33
ENDBRANCH  28  31
ENDBRANCH   4  28
TORSDOF 5
ENDMDL
MODEL 5
REMARK VINA RESULT: -9.802564327      3.133      8.686
REMARK  5 active torsions:
REMARK  status: ('A' for Active; 'I' for Inactive)
REMARK       I    between atoms: C1_2  and  N1_3 
REMARK    1  A    between atoms: C1_2  and  C8_17 
REMARK    2  A    between atoms: N1_3  and  C2_5 
REMARK    3  A    between atoms: C11_20  and  S2_21 
REMARK    4  A    between atoms: S2_21  and  N4_24 
REMARK    5  A    between atoms: N4_24  and  C12_26 
ROOT
HETATM    1  C8  UNL     1     -13.136  24.134  28.820  1.00  0.00     0.061 A 
HETATM    2  C9  UNL     1     -13.388  25.457  29.098  1.00  0.00     0.021 A 
HETATM    3  C10 UNL     1     -12.624  26.478  28.552  1.00  0.00     0.029 A 
HETATM    4  C11 UNL     1     -11.598  26.093  27.714  1.00  0.00     0.109 A 
HETATM    5  C19 UNL     1     -11.326  24.750  27.419  1.00  0.00     0.091 A 
HETATM    6  N7  UNL     1     -10.336  24.345  26.610  1.00  0.00    -0.309 N 
ATOM      7  H7  UNL     1      -9.662  24.923  26.110  1.00  0.00     0.176 HD
HETATM    8  S3  UNL     1     -10.459  22.671  26.607  1.00  0.00     0.068 SA
HETATM    9  N8  UNL     1     -11.768  22.520  27.638  1.00  0.00    -0.309 N 
ATOM     10  H8  UNL     1     -12.224  21.662  27.950  1.00  0.00     0.176 HD
HETATM   11  C20 UNL     1     -12.080  23.779  27.960  1.00  0.00     0.084 A 
ENDROOT
BRANCH   1  12
HETATM   12  C1  UNL     1     -13.984  23.124  29.433  1.00  0.00     0.260 C 
HETATM   13  O1  UNL     1     -13.505  22.053  29.875  1.00  0.00    -0.267 OA
HETATM   14  N1  UNL     1     -15.398  23.291  29.568  1.00  0.00    -0.303 N 
ATOM     15  H1  UNL     1     -16.019  23.310  28.759  1.00  0.00     0.171 HD
BRANCH  14  16
HETATM   16  C2  UNL     1     -15.852  23.420  30.801  1.00  0.00     0.154 A 
HETATM   17  N2  UNL     1     -15.131  23.595  31.906  1.00  0.00    -0.334 N 
HETATM   18  C3  UNL     1     -15.760  23.704  33.059  1.00  0.00     0.068 A 
ATOM     19  H2  UNL     1     -14.113  23.643  31.861  1.00  0.00     0.168 HD
HETATM   20  C4  UNL     1     -15.210  23.892  34.345  1.00  0.00     0.038 A 
HETATM   21  C7  UNL     1     -17.124  23.632  33.044  1.00  0.00     0.107 A 
HETATM   22  C5  UNL     1     -16.002  23.989  35.453  1.00  0.00     0.077 A 
HETATM   23  C6  UNL     1     -17.375  23.909  35.385  1.00  0.00     0.246 A 
HETATM   24  O2  UNL     1     -18.092  23.996  36.385  1.00  0.00    -0.268 OA
HETATM   25  N3  UNL     1     -17.900  23.732  34.173  1.00  0.00    -0.316 N 
ATOM     26  H3  UNL     1     -18.913  23.667  34.081  1.00  0.00     0.169 HD
HETATM   27  S1  UNL     1     -17.453  23.410  31.380  1.00  0.00    -0.034 SA
ENDBRANCH  14  16
ENDBRANCH   1  12
BRANCH   4  28
HETATM   28  S2  UNL     1     -10.601  27.359  26.999  1.00  0.00     0.279 S 
HETATM   29  O3  UNL     1     -10.312  26.944  25.564  1.00  0.00    -0.200 OA
HETATM   30  O4  UNL     1     -11.457  28.600  26.909  1.00  0.00    -0.200 OA
BRANCH  28  31
HETATM   31  N4  UNL     1      -9.181  27.619  27.898  1.00  0.00    -0.112 N 
ATOM     32  H4  UNL     1      -8.385  27.010  27.707  1.00  0.00     0.197 HD
BRANCH  31  33
HETATM   33  C12 UNL     1      -9.033  28.517  28.797  1.00  0.00     0.693 A 
HETATM   34  N5  UNL     1      -7.939  29.195  29.173  1.00  0.00    -0.189 N 
HETATM   35  C13 UNL     1      -8.240  30.049  30.162  1.00  0.00     0.076 A 
ATOM     36  H5  UNL     1      -7.011  29.078  28.765  1.00  0.00     0.184 HD
HETATM   37  C14 UNL     1      -7.466  30.946  30.868  1.00  0.00     0.032 A 
HETATM   38  C18 UNL     1      -9.585  29.896  30.412  1.00  0.00     0.076 A 
HETATM   39  C15 UNL     1      -8.050  31.724  31.862  1.00  0.00     0.002 A 
HETATM   40  C16 UNL     1      -9.394  31.589  32.132  1.00  0.00     0.002 A 
HETATM   41  C17 UNL     1     -10.130  30.683  31.405  1.00  0.00     0.032 A 
HETATM   42  N6  UNL     1     -10.054  28.955  29.568  1.00  0.00    -0.189 N 
ATOM     43  H6  UNL     1     -11.019  28.628  29.519  1.00  0.00     0.184 HD
ENDBRANCH  31  33
ENDBRANCH  28  31
ENDBRANCH   4  28
TORSDOF 5
ENDMDL
