MODEL 1
REMARK VINA RESULT: -5.524231108      0.000      0.000
REMARK  7 active torsions:
REMARK  status: ('A' for Active; 'I' for Inactive)
REMARK    1  A    between atoms: N1_1  and  C1_4 
REMARK    2  A    between atoms: N3_8  and  C3_9 
REMARK    3  A    between atoms: C3_9  and  C4_10 
REMARK    4  A    between atoms: C4_10  and  C5_11 
REMARK    5  A    between atoms: C5_11  and  C6_12 
REMARK    6  A    between atoms: C6_12  and  N4_13 
REMARK    7  A    between atoms: C7_17  and  N5_18 
ROOT
HETATM    1  C1  UNL     1      47.004  16.645 -15.134  1.00  0.00     0.691 A 
HETATM    2  N2  UNL     1      47.635  17.486 -14.285  1.00  0.00    -0.187 N 
ATOM      3  H2  UNL     1      47.858  18.435 -14.588  1.00  0.00     0.185 HD
HETATM    4  C2  UNL     1      47.977  17.084 -13.033  1.00  0.00     0.218 A 
HETATM    5  N3  UNL     1      47.693  15.837 -12.621  1.00  0.00    -0.179 N 
HETATM    6  C7  UNL     1      47.067  15.016 -13.476  1.00  0.00     0.693 A 
HETATM    7  N6  UNL     1      46.721  15.403 -14.721  1.00  0.00    -0.023 N 
ATOM      8  H6  UNL     1      46.246  14.752 -15.346  1.00  0.00     0.203 HD
ENDROOT
BRANCH   5   9
HETATM    9  C3  UNL     1      48.043  15.396 -11.311  1.00  0.00     0.148 C 
BRANCH   9  10
HETATM   10  C4  UNL     1      47.120  15.858 -10.229  1.00  0.00     0.022 C 
BRANCH  10  11
HETATM   11  C5  UNL     1      46.506  14.664  -9.528  1.00  0.00     0.029 C 
BRANCH  11  12
HETATM   12  C6  UNL     1      47.518  13.675  -9.049  1.00  0.00     0.229 C 
BRANCH  12  13
HETATM   13  N4  UNL     1      48.054  13.989  -7.749  1.00  0.00    -0.079 N 
ATOM     14  H43 UNL     1      48.036  14.996  -7.584  1.00  0.00     0.274 HD
ATOM     15  H42 UNL     1      47.418  13.685  -7.013  1.00  0.00     0.274 HD
ATOM     16  H41 UNL     1      48.990  13.615  -7.595  1.00  0.00     0.274 HD
ENDBRANCH  12  13
ENDBRANCH  11  12
ENDBRANCH  10  11
ENDBRANCH   9  10
ENDBRANCH   5   9
BRANCH   6  17
HETATM   17  N5  UNL     1      46.795  13.840 -13.093  1.00  0.00    -0.234 N 
ATOM     18  H52 UNL     1      45.849  13.623 -12.777  1.00  0.00     0.174 HD
ATOM     19  H51 UNL     1      47.535  13.139 -13.112  1.00  0.00     0.174 HD
ENDBRANCH   6  17
BRANCH   1  20
HETATM   20  N1  UNL     1      46.690  17.052 -16.316  1.00  0.00    -0.234 N 
ATOM     21  H12 UNL     1      46.734  18.039 -16.572  1.00  0.00     0.174 HD
ATOM     22  H11 UNL     1      46.389  16.376 -17.018  1.00  0.00     0.174 HD
ENDBRANCH   1  20
TORSDOF 7
ENDMDL
MODEL 2
REMARK VINA RESULT: -5.148711609      1.668      5.793
REMARK  7 active torsions:
REMARK  status: ('A' for Active; 'I' for Inactive)
REMARK    1  A    between atoms: N1_1  and  C1_4 
REMARK    2  A    between atoms: N3_8  and  C3_9 
REMARK    3  A    between atoms: C3_9  and  C4_10 
REMARK    4  A    between atoms: C4_10  and  C5_11 
REMARK    5  A    between atoms: C5_11  and  C6_12 
REMARK    6  A    between atoms: C6_12  and  N4_13 
REMARK    7  A    between atoms: C7_17  and  N5_18 
ROOT
HETATM    1  C1  UNL     1      47.189  14.503 -10.807  1.00  0.00     0.691 A 
HETATM    2  N2  UNL     1      46.950  14.079 -12.069  1.00  0.00    -0.187 N 
ATOM      3  H2  UNL     1      46.653  13.116 -12.229  1.00  0.00     0.185 HD
HETATM    4  C2  UNL     1      47.102  14.920 -13.126  1.00  0.00     0.218 A 
HETATM    5  N3  UNL     1      47.495  16.189 -12.930  1.00  0.00    -0.179 N 
HETATM    6  C7  UNL     1      47.728  16.594 -11.673  1.00  0.00     0.693 A 
HETATM    7  N6  UNL     1      47.580  15.769 -10.615  1.00  0.00    -0.023 N 
ATOM      8  H6  UNL     1      47.766  16.109  -9.672  1.00  0.00     0.203 HD
ENDROOT
BRANCH   5   9
HETATM    9  C3  UNL     1      47.661  17.087 -14.025  1.00  0.00     0.148 C 
BRANCH   9  10
HETATM   10  C4  UNL     1      46.987  16.658 -15.290  1.00  0.00     0.022 C 
BRANCH  10  11
HETATM   11  C5  UNL     1      47.054  17.772 -16.315  1.00  0.00     0.029 C 
BRANCH  11  12
HETATM   12  C6  UNL     1      48.224  17.656 -17.237  1.00  0.00     0.229 C 
BRANCH  12  13
HETATM   13  N4  UNL     1      48.073  16.621 -18.227  1.00  0.00    -0.079 N 
ATOM     14  H43 UNL     1      48.855  16.631 -18.882  1.00  0.00     0.274 HD
ATOM     15  H42 UNL     1      48.213  15.700 -17.811  1.00  0.00     0.274 HD
ATOM     16  H41 UNL     1      47.184  16.662 -18.725  1.00  0.00     0.274 HD
ENDBRANCH  12  13
ENDBRANCH  11  12
ENDBRANCH  10  11
ENDBRANCH   9  10
ENDBRANCH   5   9
BRANCH   6  17
HETATM   17  N5  UNL     1      48.097  17.789 -11.482  1.00  0.00    -0.234 N 
ATOM     18  H52 UNL     1      48.231  18.406 -12.283  1.00  0.00     0.174 HD
ATOM     19  H51 UNL     1      48.251  18.103 -10.524  1.00  0.00     0.174 HD
ENDBRANCH   6  17
BRANCH   1  20
HETATM   20  N1  UNL     1      47.037  13.686  -9.822  1.00  0.00    -0.234 N 
ATOM     21  H12 UNL     1      46.184  13.137  -9.709  1.00  0.00     0.174 HD
ATOM     22  H11 UNL     1      47.783  13.581  -9.136  1.00  0.00     0.174 HD
ENDBRANCH   1  20
TORSDOF 7
ENDMDL
MODEL 3
REMARK VINA RESULT: -5.120116006      0.722      1.835
REMARK  7 active torsions:
REMARK  status: ('A' for Active; 'I' for Inactive)
REMARK    1  A    between atoms: N1_1  and  C1_4 
REMARK    2  A    between atoms: N3_8  and  C3_9 
REMARK    3  A    between atoms: C3_9  and  C4_10 
REMARK    4  A    between atoms: C4_10  and  C5_11 
REMARK    5  A    between atoms: C5_11  and  C6_12 
REMARK    6  A    between atoms: C6_12  and  N4_13 
REMARK    7  A    between atoms: C7_17  and  N5_18 
ROOT
HETATM    1  C1  UNL     1      46.944  16.515 -14.977  1.00  0.00     0.691 A 
HETATM    2  N2  UNL     1      46.801  15.267 -14.477  1.00  0.00    -0.187 N 
ATOM      3  H2  UNL     1      46.423  14.527 -15.069  1.00  0.00     0.185 HD
HETATM    4  C2  UNL     1      47.157  14.985 -13.196  1.00  0.00     0.218 A 
HETATM    5  N3  UNL     1      47.655  15.950 -12.404  1.00  0.00    -0.179 N 
HETATM    6  C7  UNL     1      47.790  17.182 -12.916  1.00  0.00     0.693 A 
HETATM    7  N6  UNL     1      47.442  17.474 -14.187  1.00  0.00    -0.023 N 
ATOM      8  H6  UNL     1      47.557  18.422 -14.543  1.00  0.00     0.203 HD
ENDROOT
BRANCH   5   9
HETATM    9  C3  UNL     1      48.034  15.675 -11.058  1.00  0.00     0.148 C 
BRANCH   9  10
HETATM   10  C4  UNL     1      46.888  15.504 -10.111  1.00  0.00     0.022 C 
BRANCH  10  11
HETATM   11  C5  UNL     1      46.772  14.051  -9.697  1.00  0.00     0.029 C 
BRANCH  11  12
HETATM   12  C6  UNL     1      47.958  13.557  -8.935  1.00  0.00     0.229 C 
BRANCH  12  13
HETATM   13  N4  UNL     1      48.070  14.127  -7.617  1.00  0.00    -0.079 N 
ATOM     14  H43 UNL     1      47.777  15.104  -7.620  1.00  0.00     0.274 HD
ATOM     15  H42 UNL     1      47.362  13.739  -6.995  1.00  0.00     0.274 HD
ATOM     16  H41 UNL     1      49.001  14.030  -7.211  1.00  0.00     0.274 HD
ENDBRANCH  12  13
ENDBRANCH  11  12
ENDBRANCH  10  11
ENDBRANCH   9  10
ENDBRANCH   5   9
BRANCH   6  17
HETATM   17  N5  UNL     1      48.260  18.095 -12.176  1.00  0.00    -0.234 N 
ATOM     18  H52 UNL     1      48.932  18.757 -12.564  1.00  0.00     0.174 HD
ATOM     19  H51 UNL     1      47.952  18.141 -11.205  1.00  0.00     0.174 HD
ENDBRANCH   6  17
BRANCH   1  20
HETATM   20  N1  UNL     1      46.600  16.755 -16.196  1.00  0.00    -0.234 N 
ATOM     21  H12 UNL     1      46.606  16.023 -16.908  1.00  0.00     0.174 HD
ATOM     22  H11 UNL     1      46.314  17.696 -16.462  1.00  0.00     0.174 HD
ENDBRANCH   1  20
TORSDOF 7
ENDMDL
MODEL 4
REMARK VINA RESULT: -5.067535046      1.548      5.574
REMARK  7 active torsions:
REMARK  status: ('A' for Active; 'I' for Inactive)
REMARK    1  A    between atoms: N1_1  and  C1_4 
REMARK    2  A    between atoms: N3_8  and  C3_9 
REMARK    3  A    between atoms: C3_9  and  C4_10 
REMARK    4  A    between atoms: C4_10  and  C5_11 
REMARK    5  A    between atoms: C5_11  and  C6_12 
REMARK    6  A    between atoms: C6_12  and  N4_13 
REMARK    7  A    between atoms: C7_17  and  N5_18 
ROOT
HETATM    1  C1  UNL     1      47.602  15.258 -10.558  1.00  0.00     0.691 A 
HETATM    2  N2  UNL     1      47.840  16.499 -11.041  1.00  0.00    -0.187 N 
ATOM      3  H2  UNL     1      48.154  17.234 -10.407  1.00  0.00     0.185 HD
HETATM    4  C2  UNL     1      47.665  16.778 -12.359  1.00  0.00     0.218 A 
HETATM    5  N3  UNL     1      47.249  15.821 -13.205  1.00  0.00    -0.179 N 
HETATM    6  C7  UNL     1      47.018  14.596 -12.710  1.00  0.00     0.693 A 
HETATM    7  N6  UNL     1      47.188  14.305 -11.404  1.00  0.00    -0.023 N 
ATOM      8  H6  UNL     1      47.002  13.363 -11.061  1.00  0.00     0.203 HD
ENDROOT
BRANCH   5   9
HETATM    9  C3  UNL     1      47.060  16.094 -14.591  1.00  0.00     0.148 C 
BRANCH   9  10
HETATM   10  C4  UNL     1      47.500  17.457 -15.024  1.00  0.00     0.022 C 
BRANCH  10  11
HETATM   11  C5  UNL     1      47.068  17.709 -16.455  1.00  0.00     0.029 C 
BRANCH  11  12
HETATM   12  C6  UNL     1      48.201  17.675 -17.428  1.00  0.00     0.229 C 
BRANCH  12  13
HETATM   13  N4  UNL     1      48.170  16.531 -18.303  1.00  0.00    -0.079 N 
ATOM     14  H43 UNL     1      48.113  15.666 -17.766  1.00  0.00     0.274 HD
ATOM     15  H42 UNL     1      47.280  16.480 -18.800  1.00  0.00     0.274 HD
ATOM     16  H41 UNL     1      48.951  16.499 -18.958  1.00  0.00     0.274 HD
ENDBRANCH  12  13
ENDBRANCH  11  12
ENDBRANCH  10  11
ENDBRANCH   9  10
ENDBRANCH   5   9
BRANCH   6  17
HETATM   17  N5  UNL     1      46.628  13.689 -13.503  1.00  0.00    -0.234 N 
ATOM     18  H52 UNL     1      46.569  13.888 -14.501  1.00  0.00     0.174 HD
ATOM     19  H51 UNL     1      46.381  12.779 -13.115  1.00  0.00     0.174 HD
ENDBRANCH   6  17
BRANCH   1  20
HETATM   20  N1  UNL     1      47.776  15.019  -9.304  1.00  0.00    -0.234 N 
ATOM     21  H12 UNL     1      47.396  14.183  -8.860  1.00  0.00     0.174 HD
ATOM     22  H11 UNL     1      48.306  15.679  -8.735  1.00  0.00     0.174 HD
ENDBRANCH   1  20
TORSDOF 7
ENDMDL
MODEL 5
REMARK VINA RESULT: -5.057011583      1.356      1.756
REMARK  7 active torsions:
REMARK  status: ('A' for Active; 'I' for Inactive)
REMARK    1  A    between atoms: N1_1  and  C1_4 
REMARK    2  A    between atoms: N3_8  and  C3_9 
REMARK    3  A    between atoms: C3_9  and  C4_10 
REMARK    4  A    between atoms: C4_10  and  C5_11 
REMARK    5  A    between atoms: C5_11  and  C6_12 
REMARK    6  A    between atoms: C6_12  and  N4_13 
REMARK    7  A    between atoms: C7_17  and  N5_18 
ROOT
HETATM    1  C1  UNL     1      47.062  17.969 -16.225  1.00  0.00     0.691 A 
HETATM    2  N2  UNL     1      47.853  18.657 -15.371  1.00  0.00    -0.187 N 
ATOM      3  H2  UNL     1      48.177  19.590 -15.625  1.00  0.00     0.185 HD
HETATM    4  C2  UNL     1      48.221  18.120 -14.178  1.00  0.00     0.218 A 
HETATM    5  N3  UNL     1      47.803  16.891 -13.831  1.00  0.00    -0.179 N 
HETATM    6  C7  UNL     1      47.019  16.223 -14.689  1.00  0.00     0.693 A 
HETATM    7  N6  UNL     1      46.646  16.745 -15.876  1.00  0.00    -0.023 N 
ATOM      8  H6  UNL     1      46.049  16.209 -16.506  1.00  0.00     0.203 HD
ENDROOT
BRANCH   5   9
HETATM    9  C3  UNL     1      48.178  16.310 -12.584  1.00  0.00     0.148 C 
BRANCH   9  10
HETATM   10  C4  UNL     1      47.520  16.921 -11.388  1.00  0.00     0.022 C 
BRANCH  10  11
HETATM   11  C5  UNL     1      47.398  15.891 -10.283  1.00  0.00     0.029 C 
BRANCH  11  12
HETATM   12  C6  UNL     1      47.116  14.514 -10.787  1.00  0.00     0.229 C 
BRANCH  12  13
HETATM   13  N4  UNL     1      47.032  13.527  -9.742  1.00  0.00    -0.079 N 
ATOM     14  H43 UNL     1      47.495  13.857  -8.895  1.00  0.00     0.274 HD
ATOM     15  H42 UNL     1      46.076  13.450  -9.393  1.00  0.00     0.274 HD
ATOM     16  H41 UNL     1      47.390  12.612 -10.017  1.00  0.00     0.274 HD
ENDBRANCH  12  13
ENDBRANCH  11  12
ENDBRANCH  10  11
ENDBRANCH   9  10
ENDBRANCH   5   9
BRANCH   6  17
HETATM   17  N5  UNL     1      46.621  15.065 -14.367  1.00  0.00    -0.234 N 
ATOM     18  H52 UNL     1      45.748  14.710 -14.758  1.00  0.00     0.174 HD
ATOM     19  H51 UNL     1      47.189  14.518 -13.721  1.00  0.00     0.174 HD
ENDBRANCH   6  17
BRANCH   1  20
HETATM   20  N1  UNL     1      46.727  18.502 -17.350  1.00  0.00    -0.234 N 
ATOM     21  H12 UNL     1      47.418  18.930 -17.966  1.00  0.00     0.174 HD
ATOM     22  H11 UNL     1      45.748  18.499 -17.636  1.00  0.00     0.174 HD
ENDBRANCH   1  20
TORSDOF 7
ENDMDL
