MODEL 1
REMARK VINA RESULT: -5.284724176      0.000      0.000
REMARK  6 active torsions:
REMARK  status: ('A' for Active; 'I' for Inactive)
REMARK    1  A    between atoms: C2_2  and  C3_3 
REMARK    2  A    between atoms: N3_10  and  N4_11 
REMARK    3  A    between atoms: C5_14  and  C6_15 
REMARK    4  A    between atoms: C6_15  and  N5_16 
REMARK    5  A    between atoms: N5_16  and  C7_18 
REMARK    6  A    between atoms: C7_18  and  O1_19 
ROOT
HETATM    1  C3  UNL     1      47.868  17.647 -12.566  1.00  0.00     0.072 A 
HETATM    2  N1  UNL     1      47.478  17.771 -13.869  1.00  0.00    -0.189 N 
ATOM      3  H1  UNL     1      47.441  18.641 -14.400  1.00  0.00     0.184 HD
HETATM    4  C4  UNL     1      47.152  16.542 -14.337  1.00  0.00     0.697 A 
HETATM    5  N2  UNL     1      46.762  16.199 -15.528  1.00  0.00    -0.233 N 
ATOM      6  H21 UNL     1      46.516  15.273 -15.880  1.00  0.00     0.174 HD
ATOM      7  H22 UNL     1      46.634  16.889 -16.268  1.00  0.00     0.174 HD
HETATM    8  N3  UNL     1      47.323  15.624 -13.353  1.00  0.00    -0.094 N 
HETATM    9  C5  UNL     1      47.764  16.300 -12.305  1.00  0.00     0.096 A 
ENDROOT
BRANCH   9  10
HETATM   10  C6  UNL     1      48.208  15.690 -10.999  1.00  0.00     0.178 C 
BRANCH  10  11
HETATM   11  N5  UNL     1      46.987  15.730 -10.190  1.00  0.00    -0.396 N 
ATOM     12  H5  UNL     1      46.450  16.588 -10.066  1.00  0.00     0.155 HD
BRANCH  11  13
HETATM   13  C7  UNL     1      46.595  14.508  -9.589  1.00  0.00     0.282 C 
BRANCH  13  14
HETATM   14  O1  UNL     1      47.073  13.454 -10.426  1.00  0.00    -0.383 OA
ATOM     15  H1  UNL     1      46.491  13.407 -11.176  1.00  0.00     0.211 HD
ENDBRANCH  13  14
ENDBRANCH  11  13
ENDBRANCH  10  11
ENDBRANCH   9  10
BRANCH   1  16
HETATM   16  C2  UNL     1      48.127  18.707 -11.599  1.00  0.00     0.001 C 
HETATM   17  C1  UNL     1      47.408  19.985 -11.624  1.00  0.00     0.038 C 
ENDBRANCH   1  16
BRANCH   8  18
HETATM   18  N4  UNL     1      46.902  14.279 -13.395  1.00  0.00    -0.324 N 
ATOM     19  H42 UNL     1      45.983  13.906 -13.159  1.00  0.00     0.178 HD
ATOM     20  H41 UNL     1      47.412  13.505 -13.822  1.00  0.00     0.178 HD
ENDBRANCH   8  18
TORSDOF 6
ENDMDL
MODEL 2
REMARK VINA RESULT: -4.915523046      2.313      3.926
REMARK  6 active torsions:
REMARK  status: ('A' for Active; 'I' for Inactive)
REMARK    1  A    between atoms: C2_2  and  C3_3 
REMARK    2  A    between atoms: N3_10  and  N4_11 
REMARK    3  A    between atoms: C5_14  and  C6_15 
REMARK    4  A    between atoms: C6_15  and  N5_16 
REMARK    5  A    between atoms: N5_16  and  C7_18 
REMARK    6  A    between atoms: C7_18  and  O1_19 
ROOT
HETATM    1  C3  UNL     1      47.645  15.057 -11.234  1.00  0.00     0.072 A 
HETATM    2  N1  UNL     1      47.035  14.168 -12.073  1.00  0.00    -0.189 N 
ATOM      3  H1  UNL     1      46.721  13.230 -11.822  1.00  0.00     0.184 HD
HETATM    4  C4  UNL     1      46.916  14.744 -13.293  1.00  0.00     0.697 A 
HETATM    5  N2  UNL     1      46.369  14.266 -14.371  1.00  0.00    -0.233 N 
ATOM      6  H21 UNL     1      46.280  14.700 -15.290  1.00  0.00     0.174 HD
ATOM      7  H22 UNL     1      45.973  13.326 -14.398  1.00  0.00     0.174 HD
HETATM    8  N3  UNL     1      47.443  15.993 -13.257  1.00  0.00    -0.094 N 
HETATM    9  C5  UNL     1      47.862  16.169 -12.015  1.00  0.00     0.096 A 
ENDROOT
BRANCH   9  10
HETATM   10  C6  UNL     1      48.422  17.454 -11.458  1.00  0.00     0.178 C 
BRANCH  10  11
HETATM   11  N5  UNL     1      47.269  18.358 -11.502  1.00  0.00    -0.396 N 
ATOM     12  H5  UNL     1      46.331  18.048 -11.248  1.00  0.00     0.155 HD
BRANCH  11  13
HETATM   13  C7  UNL     1      47.533  19.687 -11.916  1.00  0.00     0.282 C 
BRANCH  13  14
HETATM   14  O1  UNL     1      47.571  19.685 -13.343  1.00  0.00    -0.383 OA
ATOM     15  H1  UNL     1      46.770  19.273 -13.644  1.00  0.00     0.211 HD
ENDBRANCH  13  14
ENDBRANCH  11  13
ENDBRANCH  10  11
ENDBRANCH   9  10
BRANCH   1  16
HETATM   16  C2  UNL     1      48.152  14.822  -9.887  1.00  0.00     0.001 C 
HETATM   17  C1  UNL     1      47.774  13.643  -9.101  1.00  0.00     0.038 C 
ENDBRANCH   1  16
BRANCH   8  18
HETATM   18  N4  UNL     1      47.682  16.823 -14.372  1.00  0.00    -0.324 N 
ATOM     19  H42 UNL     1      47.083  16.960 -15.186  1.00  0.00     0.178 HD
ATOM     20  H41 UNL     1      48.415  17.528 -14.446  1.00  0.00     0.178 HD
ENDBRANCH   8  18
TORSDOF 6
ENDMDL
MODEL 3
REMARK VINA RESULT: -4.711391720      2.485      3.625
REMARK  6 active torsions:
REMARK  status: ('A' for Active; 'I' for Inactive)
REMARK    1  A    between atoms: C2_2  and  C3_3 
REMARK    2  A    between atoms: N3_10  and  N4_11 
REMARK    3  A    between atoms: C5_14  and  C6_15 
REMARK    4  A    between atoms: C6_15  and  N5_16 
REMARK    5  A    between atoms: N5_16  and  C7_18 
REMARK    6  A    between atoms: C7_18  and  O1_19 
ROOT
HETATM    1  C3  UNL     1      47.313  16.512 -14.337  1.00  0.00     0.072 A 
HETATM    2  N1  UNL     1      46.778  15.296 -14.656  1.00  0.00    -0.189 N 
ATOM      3  H1  UNL     1      46.397  15.033 -15.565  1.00  0.00     0.184 HD
HETATM    4  C4  UNL     1      46.839  14.501 -13.561  1.00  0.00     0.697 A 
HETATM    5  N2  UNL     1      46.473  13.260 -13.433  1.00  0.00    -0.233 N 
ATOM      6  H21 UNL     1      46.520  12.661 -12.608  1.00  0.00     0.174 HD
ATOM      7  H22 UNL     1      46.047  12.746 -14.204  1.00  0.00     0.174 HD
HETATM    8  N3  UNL     1      47.406  15.185 -12.536  1.00  0.00    -0.094 N 
HETATM    9  C5  UNL     1      47.695  16.381 -13.021  1.00  0.00     0.096 A 
ENDROOT
BRANCH   9  10
HETATM   10  C6  UNL     1      48.444  17.462 -12.283  1.00  0.00     0.178 C 
BRANCH  10  11
HETATM   11  N5  UNL     1      47.372  18.204 -11.614  1.00  0.00    -0.396 N 
ATOM     12  H5  UNL     1      46.617  17.731 -11.118  1.00  0.00     0.155 HD
BRANCH  11  13
HETATM   13  C7  UNL     1      47.444  19.617 -11.697  1.00  0.00     0.282 C 
BRANCH  13  14
HETATM   14  O1  UNL     1      46.191  20.131 -11.244  1.00  0.00    -0.383 OA
ATOM     15  H1  UNL     1      45.512  19.582 -11.617  1.00  0.00     0.211 HD
ENDBRANCH  13  14
ENDBRANCH  11  13
ENDBRANCH  10  11
ENDBRANCH   9  10
BRANCH   1  16
HETATM   16  C2  UNL     1      47.294  17.739 -15.123  1.00  0.00     0.001 C 
HETATM   17  C1  UNL     1      47.085  17.738 -16.575  1.00  0.00     0.038 C 
ENDBRANCH   1  16
BRANCH   8  18
HETATM   18  N4  UNL     1      47.462  14.764 -11.192  1.00  0.00    -0.324 N 
ATOM     19  H42 UNL     1      47.413  15.345 -10.355  1.00  0.00     0.178 HD
ATOM     20  H41 UNL     1      47.396  13.801 -10.863  1.00  0.00     0.178 HD
ENDBRANCH   8  18
TORSDOF 6
ENDMDL
MODEL 4
REMARK VINA RESULT: -4.631640913      2.326      3.482
REMARK  6 active torsions:
REMARK  status: ('A' for Active; 'I' for Inactive)
REMARK    1  A    between atoms: C2_2  and  C3_3 
REMARK    2  A    between atoms: N3_10  and  N4_11 
REMARK    3  A    between atoms: C5_14  and  C6_15 
REMARK    4  A    between atoms: C6_15  and  N5_16 
REMARK    5  A    between atoms: N5_16  and  C7_18 
REMARK    6  A    between atoms: C7_18  and  O1_19 
ROOT
HETATM    1  C3  UNL     1      48.166  17.936 -14.408  1.00  0.00     0.072 A 
HETATM    2  N1  UNL     1      49.170  18.447 -15.180  1.00  0.00    -0.189 N 
ATOM      3  H1  UNL     1      49.940  19.028 -14.848  1.00  0.00     0.184 HD
HETATM    4  C4  UNL     1      48.970  18.051 -16.460  1.00  0.00     0.697 A 
HETATM    5  N2  UNL     1      49.701  18.283 -17.509  1.00  0.00    -0.233 N 
ATOM      6  H21 UNL     1      49.550  17.985 -18.473  1.00  0.00     0.174 HD
ATOM      7  H22 UNL     1      50.544  18.855 -17.458  1.00  0.00     0.174 HD
HETATM    8  N3  UNL     1      47.848  17.291 -16.528  1.00  0.00    -0.094 N 
HETATM    9  C5  UNL     1      47.388  17.222 -15.290  1.00  0.00     0.096 A 
ENDROOT
BRANCH   9  10
HETATM   10  C6  UNL     1      46.213  16.387 -14.844  1.00  0.00     0.178 C 
BRANCH  10  11
HETATM   11  N5  UNL     1      46.801  15.053 -14.691  1.00  0.00    -0.396 N 
ATOM     12  H5  UNL     1      47.158  14.526 -15.487  1.00  0.00     0.155 HD
BRANCH  11  13
HETATM   13  C7  UNL     1      46.844  14.538 -13.371  1.00  0.00     0.282 C 
BRANCH  13  14
HETATM   14  O1  UNL     1      47.262  13.176 -13.463  1.00  0.00    -0.383 OA
ATOM     15  H1  UNL     1      46.906  12.827 -14.271  1.00  0.00     0.211 HD
ENDBRANCH  13  14
ENDBRANCH  11  13
ENDBRANCH  10  11
ENDBRANCH   9  10
BRANCH   1  16
HETATM   16  C2  UNL     1      47.853  18.243 -13.017  1.00  0.00     0.001 C 
HETATM   17  C1  UNL     1      48.315  17.405 -11.906  1.00  0.00     0.038 C 
ENDBRANCH   1  16
BRANCH   8  18
HETATM   18  N4  UNL     1      47.210  16.864 -17.710  1.00  0.00    -0.324 N 
ATOM     19  H42 UNL     1      46.208  16.762 -17.875  1.00  0.00     0.178 HD
ATOM     20  H41 UNL     1      47.653  16.750 -18.622  1.00  0.00     0.178 HD
ENDBRANCH   8  18
TORSDOF 6
ENDMDL
MODEL 5
REMARK VINA RESULT: -4.622505961      1.180      1.282
REMARK  6 active torsions:
REMARK  status: ('A' for Active; 'I' for Inactive)
REMARK    1  A    between atoms: C2_2  and  C3_3 
REMARK    2  A    between atoms: N3_10  and  N4_11 
REMARK    3  A    between atoms: C5_14  and  C6_15 
REMARK    4  A    between atoms: C6_15  and  N5_16 
REMARK    5  A    between atoms: N5_16  and  C7_18 
REMARK    6  A    between atoms: C7_18  and  O1_19 
ROOT
HETATM    1  C3  UNL     1      47.903  18.724 -12.620  1.00  0.00     0.072 A 
HETATM    2  N1  UNL     1      48.046  18.847 -13.972  1.00  0.00    -0.189 N 
ATOM      3  H1  UNL     1      48.311  19.697 -14.469  1.00  0.00     0.184 HD
HETATM    4  C4  UNL     1      47.777  17.647 -14.542  1.00  0.00     0.697 A 
HETATM    5  N2  UNL     1      47.824  17.310 -15.796  1.00  0.00    -0.233 N 
ATOM      6  H21 UNL     1      47.622  16.407 -16.225  1.00  0.00     0.174 HD
ATOM      7  H22 UNL     1      48.063  17.986 -16.523  1.00  0.00     0.174 HD
HETATM    8  N3  UNL     1      47.460  16.749 -13.576  1.00  0.00    -0.094 N 
HETATM    9  C5  UNL     1      47.554  17.406 -12.432  1.00  0.00     0.096 A 
ENDROOT
BRANCH   9  10
HETATM   10  C6  UNL     1      47.403  16.795 -11.062  1.00  0.00     0.178 C 
BRANCH  10  11
HETATM   11  N5  UNL     1      48.450  15.769 -11.045  1.00  0.00    -0.396 N 
ATOM     12  H5  UNL     1      49.337  15.895 -11.532  1.00  0.00     0.155 HD
BRANCH  11  13
HETATM   13  C7  UNL     1      48.159  14.591 -10.312  1.00  0.00     0.282 C 
BRANCH  13  14
HETATM   14  O1  UNL     1      47.215  13.841 -11.077  1.00  0.00    -0.383 OA
ATOM     15  H1  UNL     1      46.663  13.374 -10.460  1.00  0.00     0.211 HD
ENDBRANCH  13  14
ENDBRANCH  11  13
ENDBRANCH  10  11
ENDBRANCH   9  10
BRANCH   1  16
HETATM   16  C2  UNL     1      47.904  19.780 -11.614  1.00  0.00     0.001 C 
HETATM   17  C1  UNL     1      46.722  20.605 -11.343  1.00  0.00     0.038 C 
ENDBRANCH   1  16
BRANCH   8  18
HETATM   18  N4  UNL     1      46.933  15.459 -13.787  1.00  0.00    -0.324 N 
ATOM     19  H42 UNL     1      46.938  14.918 -14.652  1.00  0.00     0.178 HD
ATOM     20  H41 UNL     1      46.614  14.817 -13.061  1.00  0.00     0.178 HD
ENDBRANCH   8  18
TORSDOF 6
ENDMDL
