MODEL 1
REMARK VINA RESULT: -5.134362686      0.000      0.000
REMARK  6 active torsions:
REMARK  status: ('A' for Active; 'I' for Inactive)
REMARK    1  A    between atoms: S1_2  and  C2_3 
REMARK    2  A    between atoms: C3_6  and  N2_7 
REMARK    3  A    between atoms: C4_12  and  N4_13 
REMARK    4  A    between atoms: N4_13  and  N5_15 
REMARK    5  A    between atoms: N5_15  and  C5_17 
REMARK    6  A    between atoms: C5_17  and  N6_18 
ROOT
HETATM    1  C2  UNL     1      47.402  15.358 -10.788  1.00  0.00     0.174 A 
HETATM    2  N1  UNL     1      47.041  14.305 -11.530  1.00  0.00    -0.170 N 
ATOM      3  H1  UNL     1      46.807  13.433 -11.056  1.00  0.00     0.186 HD
HETATM    4  C3  UNL     1      46.970  14.347 -12.883  1.00  0.00     0.692 A 
HETATM    5  N3  UNL     1      47.284  15.514 -13.486  1.00  0.00    -0.021 N 
ATOM      6  H3  UNL     1      47.241  15.575 -14.503  1.00  0.00     0.203 HD
HETATM    7  C4  UNL     1      47.653  16.600 -12.780  1.00  0.00     0.713 A 
HETATM    8  N7  UNL     1      47.706  16.505 -11.442  1.00  0.00    -0.168 N 
ATOM      9  H7  UNL     1      47.984  17.323 -10.899  1.00  0.00     0.186 HD
ENDROOT
BRANCH   7  10
HETATM   10  N4  UNL     1      47.938  17.674 -13.404  1.00  0.00    -0.134 N 
ATOM     11  H4  UNL     1      47.918  18.563 -12.903  1.00  0.00     0.205 HD
BRANCH  10  12
HETATM   12  N5  UNL     1      48.276  17.659 -14.750  1.00  0.00    -0.297 N 
ATOM     13  H5  UNL     1      49.206  17.333 -15.015  1.00  0.00     0.182 HD
BRANCH  12  14
HETATM   14  C5  UNL     1      47.376  18.083 -15.789  1.00  0.00     0.369 C 
BRANCH  14  15
HETATM   15  N6  UNL     1      47.214  16.971 -16.705  1.00  0.00    -0.062 N 
ATOM     16  H63 UNL     1      47.977  16.895 -17.377  1.00  0.00     0.276 HD
ATOM     17  H62 UNL     1      47.341  16.064 -16.256  1.00  0.00     0.276 HD
ATOM     18  H61 UNL     1      46.301  17.071 -17.148  1.00  0.00     0.276 HD
ENDBRANCH  14  15
ENDBRANCH  12  14
ENDBRANCH  10  12
ENDBRANCH   7  10
BRANCH   4  19
HETATM   19  N2  UNL     1      46.621  13.316 -13.542  1.00  0.00    -0.234 N 
ATOM     20  H22 UNL     1      47.009  12.393 -13.352  1.00  0.00     0.174 HD
ATOM     21  H21 UNL     1      45.930  13.391 -14.289  1.00  0.00     0.174 HD
ENDBRANCH   4  19
BRANCH   1  22
HETATM   22  S1  UNL     1      47.498  15.320  -9.006  1.00  0.00    -0.097 SA
HETATM   23  C1  UNL     1      47.949  13.683  -8.390  1.00  0.00     0.099 C 
ENDBRANCH   1  22
TORSDOF 6
ENDMDL
MODEL 2
REMARK VINA RESULT: -5.128157209      2.219      3.074
REMARK  6 active torsions:
REMARK  status: ('A' for Active; 'I' for Inactive)
REMARK    1  A    between atoms: S1_2  and  C2_3 
REMARK    2  A    between atoms: C3_6  and  N2_7 
REMARK    3  A    between atoms: C4_12  and  N4_13 
REMARK    4  A    between atoms: N4_13  and  N5_15 
REMARK    5  A    between atoms: N5_15  and  C5_17 
REMARK    6  A    between atoms: C5_17  and  N6_18 
ROOT
HETATM    1  C2  UNL     1      47.596  16.922 -12.876  1.00  0.00     0.174 A 
HETATM    2  N1  UNL     1      47.356  15.621 -12.676  1.00  0.00    -0.170 N 
ATOM      3  H1  UNL     1      47.521  15.232 -11.748  1.00  0.00     0.186 HD
HETATM    4  C3  UNL     1      46.903  14.796 -13.653  1.00  0.00     0.692 A 
HETATM    5  N3  UNL     1      46.694  15.336 -14.874  1.00  0.00    -0.021 N 
ATOM      6  H3  UNL     1      46.354  14.740 -15.628  1.00  0.00     0.203 HD
HETATM    7  C4  UNL     1      46.921  16.639 -15.121  1.00  0.00     0.713 A 
HETATM    8  N7  UNL     1      47.369  17.413 -14.118  1.00  0.00    -0.168 N 
ATOM      9  H7  UNL     1      47.544  18.402 -14.297  1.00  0.00     0.186 HD
ENDROOT
BRANCH   7  10
HETATM   10  N4  UNL     1      46.706  17.093 -16.293  1.00  0.00    -0.134 N 
ATOM     11  H4  UNL     1      45.937  17.746 -16.443  1.00  0.00     0.205 HD
BRANCH  10  12
HETATM   12  N5  UNL     1      47.499  16.715 -17.369  1.00  0.00    -0.297 N 
ATOM     13  H5  UNL     1      47.270  15.853 -17.863  1.00  0.00     0.182 HD
BRANCH  12  14
HETATM   14  C5  UNL     1      48.628  17.485 -17.818  1.00  0.00     0.369 C 
BRANCH  14  15
HETATM   15  N6  UNL     1      49.271  16.735 -18.879  1.00  0.00    -0.062 N 
ATOM     16  H63 UNL     1      49.312  17.248 -19.760  1.00  0.00     0.276 HD
ATOM     17  H62 UNL     1      50.276  16.630 -18.739  1.00  0.00     0.276 HD
ATOM     18  H61 UNL     1      48.785  15.842 -18.961  1.00  0.00     0.276 HD
ENDBRANCH  14  15
ENDBRANCH  12  14
ENDBRANCH  10  12
ENDBRANCH   7  10
BRANCH   4  19
HETATM   19  N2  UNL     1      46.691  13.566 -13.410  1.00  0.00    -0.234 N 
ATOM     20  H22 UNL     1      47.059  12.824 -14.005  1.00  0.00     0.174 HD
ATOM     21  H21 UNL     1      46.139  13.288 -12.599  1.00  0.00     0.174 HD
ENDBRANCH   4  19
BRANCH   1  22
HETATM   22  S1  UNL     1      48.191  18.019 -11.601  1.00  0.00    -0.097 SA
HETATM   23  C1  UNL     1      47.483  19.674 -11.750  1.00  0.00     0.099 C 
ENDBRANCH   1  22
TORSDOF 6
ENDMDL
MODEL 3
REMARK VINA RESULT: -5.106040664      1.271      2.462
REMARK  6 active torsions:
REMARK  status: ('A' for Active; 'I' for Inactive)
REMARK    1  A    between atoms: S1_2  and  C2_3 
REMARK    2  A    between atoms: C3_6  and  N2_7 
REMARK    3  A    between atoms: C4_12  and  N4_13 
REMARK    4  A    between atoms: N4_13  and  N5_15 
REMARK    5  A    between atoms: N5_15  and  C5_17 
REMARK    6  A    between atoms: C5_17  and  N6_18 
ROOT
HETATM    1  C2  UNL     1      47.472  15.288 -11.192  1.00  0.00     0.174 A 
HETATM    2  N1  UNL     1      47.784  16.563 -10.932  1.00  0.00    -0.170 N 
ATOM      3  H1  UNL     1      48.015  16.823  -9.974  1.00  0.00     0.186 HD
HETATM    4  C3  UNL     1      47.806  17.525 -11.888  1.00  0.00     0.692 A 
HETATM    5  N3  UNL     1      47.495  17.155 -13.150  1.00  0.00    -0.021 N 
ATOM      6  H3  UNL     1      47.503  17.857 -13.889  1.00  0.00     0.203 HD
HETATM    7  C4  UNL     1      47.175  15.884 -13.457  1.00  0.00     0.713 A 
HETATM    8  N7  UNL     1      47.168  14.970 -12.473  1.00  0.00    -0.168 N 
ATOM      9  H7  UNL     1      46.927  14.004 -12.697  1.00  0.00     0.186 HD
ENDROOT
BRANCH   7  10
HETATM   10  N4  UNL     1      46.890  15.593 -14.665  1.00  0.00    -0.134 N 
ATOM     11  H4  UNL     1      46.942  14.622 -14.971  1.00  0.00     0.205 HD
BRANCH  10  12
HETATM   12  N5  UNL     1      46.511  16.573 -15.572  1.00  0.00    -0.297 N 
ATOM     13  H5  UNL     1      45.522  16.817 -15.642  1.00  0.00     0.182 HD
BRANCH  12  14
HETATM   14  C5  UNL     1      47.448  17.262 -16.420  1.00  0.00     0.369 C 
BRANCH  14  15
HETATM   15  N6  UNL     1      47.190  16.844 -17.783  1.00  0.00    -0.062 N 
ATOM     16  H63 UNL     1      46.991  17.625 -18.408  1.00  0.00     0.276 HD
ATOM     17  H62 UNL     1      48.026  16.502 -18.259  1.00  0.00     0.276 HD
ATOM     18  H61 UNL     1      46.439  16.155 -17.756  1.00  0.00     0.276 HD
ENDBRANCH  14  15
ENDBRANCH  12  14
ENDBRANCH  10  12
ENDBRANCH   7  10
BRANCH   4  19
HETATM   19  N2  UNL     1      48.109  18.723 -11.588  1.00  0.00    -0.234 N 
ATOM     20  H22 UNL     1      49.077  19.042 -11.537  1.00  0.00     0.174 HD
ATOM     21  H21 UNL     1      47.379  19.407 -11.390  1.00  0.00     0.174 HD
ENDBRANCH   4  19
BRANCH   1  22
HETATM   22  S1  UNL     1      47.439  14.011  -9.946  1.00  0.00    -0.097 SA
HETATM   23  C1  UNL     1      47.862  14.651  -8.311  1.00  0.00     0.099 C 
ENDBRANCH   1  22
TORSDOF 6
ENDMDL
MODEL 4
REMARK VINA RESULT: -5.095530428      2.065      4.858
REMARK  6 active torsions:
REMARK  status: ('A' for Active; 'I' for Inactive)
REMARK    1  A    between atoms: S1_2  and  C2_3 
REMARK    2  A    between atoms: C3_6  and  N2_7 
REMARK    3  A    between atoms: C4_12  and  N4_13 
REMARK    4  A    between atoms: N4_13  and  N5_15 
REMARK    5  A    between atoms: N5_15  and  C5_17 
REMARK    6  A    between atoms: C5_17  and  N6_18 
ROOT
HETATM    1  C2  UNL     1      47.706  17.530 -12.375  1.00  0.00     0.174 A 
HETATM    2  N1  UNL     1      47.481  17.515 -13.694  1.00  0.00    -0.170 N 
ATOM      3  H1  UNL     1      47.570  18.388 -14.214  1.00  0.00     0.186 HD
HETATM    4  C3  UNL     1      47.140  16.390 -14.370  1.00  0.00     0.692 A 
HETATM    5  N3  UNL     1      47.028  15.247 -13.658  1.00  0.00    -0.021 N 
ATOM      6  H3  UNL     1      46.772  14.386 -14.140  1.00  0.00     0.203 HD
HETATM    7  C4  UNL     1      47.246  15.215 -12.330  1.00  0.00     0.713 A 
HETATM    8  N7  UNL     1      47.582  16.357 -11.709  1.00  0.00    -0.168 N 
ATOM      9  H7  UNL     1      47.748  16.342 -10.702  1.00  0.00     0.186 HD
ENDROOT
BRANCH   7  10
HETATM   10  N4  UNL     1      47.125  14.108 -11.710  1.00  0.00    -0.134 N 
ATOM     11  H4  UNL     1      47.335  13.236 -12.198  1.00  0.00     0.205 HD
BRANCH  10  12
HETATM   12  N5  UNL     1      46.714  14.064 -10.385  1.00  0.00    -0.297 N 
ATOM     13  H5  UNL     1      45.761  14.350 -10.161  1.00  0.00     0.182 HD
BRANCH  12  14
HETATM   14  C5  UNL     1      47.572  13.636  -9.312  1.00  0.00     0.369 C 
BRANCH  14  15
HETATM   15  N6  UNL     1      47.856  14.796  -8.491  1.00  0.00    -0.062 N 
ATOM     16  H63 UNL     1      48.478  14.588  -7.711  1.00  0.00     0.276 HD
ATOM     17  H62 UNL     1      48.453  15.478  -8.960  1.00  0.00     0.276 HD
ATOM     18  H61 UNL     1      46.962  15.187  -8.195  1.00  0.00     0.276 HD
ENDBRANCH  14  15
ENDBRANCH  12  14
ENDBRANCH  10  12
ENDBRANCH   7  10
BRANCH   4  19
HETATM   19  N2  UNL     1      46.936  16.429 -15.625  1.00  0.00    -0.234 N 
ATOM     20  H22 UNL     1      47.609  16.839 -16.272  1.00  0.00     0.174 HD
ATOM     21  H21 UNL     1      46.079  16.044 -16.021  1.00  0.00     0.174 HD
ENDBRANCH   4  19
BRANCH   1  22
HETATM   22  S1  UNL     1      48.157  19.002 -11.472  1.00  0.00    -0.097 SA
HETATM   23  C1  UNL     1      46.951  20.327 -11.695  1.00  0.00     0.099 C 
ENDBRANCH   1  22
TORSDOF 6
ENDMDL
MODEL 5
REMARK VINA RESULT: -5.070910131      2.364      5.009
REMARK  6 active torsions:
REMARK  status: ('A' for Active; 'I' for Inactive)
REMARK    1  A    between atoms: S1_2  and  C2_3 
REMARK    2  A    between atoms: C3_6  and  N2_7 
REMARK    3  A    between atoms: C4_12  and  N4_13 
REMARK    4  A    between atoms: N4_13  and  N5_15 
REMARK    5  A    between atoms: N5_15  and  C5_17 
REMARK    6  A    between atoms: C5_17  and  N6_18 
ROOT
HETATM    1  C2  UNL     1      47.192  16.285 -14.251  1.00  0.00     0.174 A 
HETATM    2  N1  UNL     1      46.772  15.032 -14.458  1.00  0.00    -0.170 N 
ATOM      3  H1  UNL     1      46.468  14.769 -15.396  1.00  0.00     0.186 HD
HETATM    4  C3  UNL     1      46.733  14.096 -13.478  1.00  0.00     0.692 A 
HETATM    5  N3  UNL     1      47.141  14.470 -12.245  1.00  0.00    -0.021 N 
ATOM      6  H3  UNL     1      47.122  13.788 -11.488  1.00  0.00     0.203 HD
HETATM    7  C4  UNL     1      47.571  15.720 -11.990  1.00  0.00     0.713 A 
HETATM    8  N7  UNL     1      47.591  16.609 -12.997  1.00  0.00    -0.168 N 
ATOM      9  H7  UNL     1      47.916  17.558 -12.812  1.00  0.00     0.186 HD
ENDROOT
BRANCH   7  10
HETATM   10  N4  UNL     1      47.944  16.016 -10.807  1.00  0.00    -0.134 N 
ATOM     11  H4  UNL     1      48.775  16.592 -10.674  1.00  0.00     0.205 HD
BRANCH  10  12
HETATM   12  N5  UNL     1      47.240  15.569  -9.697  1.00  0.00    -0.297 N 
ATOM     13  H5  UNL     1      46.240  15.767  -9.642  1.00  0.00     0.182 HD
BRANCH  12  14
HETATM   14  C5  UNL     1      47.855  14.840  -8.620  1.00  0.00     0.369 C 
BRANCH  14  15
HETATM   15  N6  UNL     1      47.801  13.432  -8.961  1.00  0.00    -0.062 N 
ATOM     16  H63 UNL     1      47.530  12.843  -8.174  1.00  0.00     0.276 HD
ATOM     17  H62 UNL     1      47.020  13.201  -9.575  1.00  0.00     0.276 HD
ATOM     18  H61 UNL     1      48.706  13.178  -9.356  1.00  0.00     0.276 HD
ENDBRANCH  14  15
ENDBRANCH  12  14
ENDBRANCH  10  12
ENDBRANCH   7  10
BRANCH   4  19
HETATM   19  N2  UNL     1      46.325  12.918 -13.728  1.00  0.00    -0.234 N 
ATOM     20  H22 UNL     1      46.101  12.610 -14.675  1.00  0.00     0.174 HD
ATOM     21  H21 UNL     1      46.211  12.240 -12.975  1.00  0.00     0.174 HD
ENDBRANCH   4  19
BRANCH   1  22
HETATM   22  S1  UNL     1      47.250  17.528 -15.530  1.00  0.00    -0.097 SA
HETATM   23  C1  UNL     1      48.775  18.493 -15.466  1.00  0.00     0.099 C 
ENDBRANCH   1  22
TORSDOF 6
ENDMDL
