MODEL 1
REMARK VINA RESULT: -5.039586211      0.000      0.000
REMARK  6 active torsions:
REMARK  status: ('A' for Active; 'I' for Inactive)
REMARK    1  A    between atoms: N1_1  and  C1_4 
REMARK    2  A    between atoms: N4_8  and  N5_9 
REMARK    3  A    between atoms: N5_9  and  N6_11 
REMARK    4  A    between atoms: N7_14  and  C2_15 
REMARK    5  A    between atoms: C2_15  and  C3_16 
REMARK    6  A    between atoms: C3_16  and  C4_17 
ROOT
HETATM    1  C1  UNL     1      46.970  14.909 -13.462  1.00  0.00     0.708 A 
HETATM    2  N2  UNL     1      46.512  15.556 -14.572  1.00  0.00    -0.112 N 
ATOM      3  H2  UNL     1      46.018  15.153 -15.369  1.00  0.00     0.203 HD
HETATM    4  N3  UNL     1      46.851  16.832 -14.387  1.00  0.00     0.034 NA
HETATM    5  N4  UNL     1      47.481  16.981 -13.234  1.00  0.00    -0.084 N 
HETATM    6  N7  UNL     1      47.555  15.807 -12.669  1.00  0.00    -0.087 N 
ENDROOT
BRANCH   5   7
HETATM    7  N5  UNL     1      48.019  18.140 -12.654  1.00  0.00    -0.213 N 
ATOM      8  H5  UNL     1      48.974  18.387 -12.915  1.00  0.00     0.211 HD
BRANCH   7   9
HETATM    9  N6  UNL     1      47.381  18.974 -11.768  1.00  0.00    -0.328 N 
ATOM     10  H62 UNL     1      47.512  18.757 -10.780  1.00  0.00     0.178 HD
ATOM     11  H61 UNL     1      46.798  19.777 -12.009  1.00  0.00     0.178 HD
ENDBRANCH   7   9
ENDBRANCH   5   7
BRANCH   6  12
HETATM   12  C2  UNL     1      48.174  15.514 -11.380  1.00  0.00     0.172 C 
BRANCH  12  13
HETATM   13  C3  UNL     1      47.148  15.676 -10.273  1.00  0.00     0.033 C 
BRANCH  13  14
HETATM   14  C4  UNL     1      46.803  14.338  -9.623  1.00  0.00     0.088 C 
HETATM   15  S1  UNL     1      47.903  13.966  -8.230  1.00  0.00    -0.098 SA
ENDBRANCH  13  14
ENDBRANCH  12  13
ENDBRANCH   6  12
BRANCH   1  16
HETATM   16  N1  UNL     1      46.811  13.616 -13.283  1.00  0.00    -0.232 N 
ATOM     17  H12 UNL     1      45.972  13.096 -13.027  1.00  0.00     0.174 HD
ATOM     18  H11 UNL     1      47.574  12.950 -13.397  1.00  0.00     0.174 HD
ENDBRANCH   1  16
TORSDOF 6
ENDMDL
MODEL 2
REMARK VINA RESULT: -4.870694609      2.909      3.687
REMARK  6 active torsions:
REMARK  status: ('A' for Active; 'I' for Inactive)
REMARK    1  A    between atoms: N1_1  and  C1_4 
REMARK    2  A    between atoms: N4_8  and  N5_9 
REMARK    3  A    between atoms: N5_9  and  N6_11 
REMARK    4  A    between atoms: N7_14  and  C2_15 
REMARK    5  A    between atoms: C2_15  and  C3_16 
REMARK    6  A    between atoms: C3_16  and  C4_17 
ROOT
HETATM    1  C1  UNL     1      47.476  14.992 -11.932  1.00  0.00     0.708 A 
HETATM    2  N2  UNL     1      46.831  14.064 -12.696  1.00  0.00    -0.112 N 
ATOM      3  H2  UNL     1      46.502  13.142 -12.410  1.00  0.00     0.203 HD
HETATM    4  N3  UNL     1      46.726  14.628 -13.900  1.00  0.00     0.034 NA
HETATM    5  N4  UNL     1      47.268  15.833 -13.895  1.00  0.00    -0.084 N 
HETATM    6  N7  UNL     1      47.728  16.056 -12.695  1.00  0.00    -0.087 N 
ENDROOT
BRANCH   5   7
HETATM    7  N5  UNL     1      47.388  16.762 -14.941  1.00  0.00    -0.213 N 
ATOM      8  H5  UNL     1      48.043  17.532 -14.802  1.00  0.00     0.211 HD
BRANCH   7   9
HETATM    9  N6  UNL     1      46.706  16.732 -16.134  1.00  0.00    -0.328 N 
ATOM     10  H62 UNL     1      45.689  16.711 -16.064  1.00  0.00     0.178 HD
ATOM     11  H61 UNL     1      47.123  16.728 -17.066  1.00  0.00     0.178 HD
ENDBRANCH   7   9
ENDBRANCH   5   7
BRANCH   6  12
HETATM   12  C2  UNL     1      48.406  17.269 -12.249  1.00  0.00     0.172 C 
BRANCH  12  13
HETATM   13  C3  UNL     1      47.387  18.248 -11.692  1.00  0.00     0.033 C 
BRANCH  13  14
HETATM   14  C4  UNL     1      47.716  19.687 -12.081  1.00  0.00     0.088 C 
HETATM   15  S1  UNL     1      46.628  20.873 -11.244  1.00  0.00    -0.098 SA
ENDBRANCH  13  14
ENDBRANCH  12  13
ENDBRANCH   6  12
BRANCH   1  16
HETATM   16  N1  UNL     1      47.757  14.789 -10.664  1.00  0.00    -0.232 N 
ATOM     17  H12 UNL     1      47.146  14.487  -9.906  1.00  0.00     0.174 HD
ATOM     18  H11 UNL     1      48.693  14.921 -10.283  1.00  0.00     0.174 HD
ENDBRANCH   1  16
TORSDOF 6
ENDMDL
MODEL 3
REMARK VINA RESULT: -4.834411355      3.038      3.908
REMARK  6 active torsions:
REMARK  status: ('A' for Active; 'I' for Inactive)
REMARK    1  A    between atoms: N1_1  and  C1_4 
REMARK    2  A    between atoms: N4_8  and  N5_9 
REMARK    3  A    between atoms: N5_9  and  N6_11 
REMARK    4  A    between atoms: N7_14  and  C2_15 
REMARK    5  A    between atoms: C2_15  and  C3_16 
REMARK    6  A    between atoms: C3_16  and  C4_17 
ROOT
HETATM    1  C1  UNL     1      47.264  16.594 -14.345  1.00  0.00     0.708 A 
HETATM    2  N2  UNL     1      46.625  15.461 -14.757  1.00  0.00    -0.112 N 
ATOM      3  H2  UNL     1      46.205  15.280 -15.669  1.00  0.00     0.203 HD
HETATM    4  N3  UNL     1      46.671  14.642 -13.705  1.00  0.00     0.034 NA
HETATM    5  N4  UNL     1      47.299  15.221 -12.696  1.00  0.00    -0.084 N 
HETATM    6  N7  UNL     1      47.660  16.412 -13.084  1.00  0.00    -0.087 N 
ENDROOT
BRANCH   5   7
HETATM    7  N5  UNL     1      47.558  14.729 -11.407  1.00  0.00    -0.213 N 
ATOM      8  H5  UNL     1      48.468  14.951 -11.002  1.00  0.00     0.211 HD
BRANCH   7   9
HETATM    9  N6  UNL     1      46.702  13.977 -10.638  1.00  0.00    -0.328 N 
ATOM     10  H62 UNL     1      46.798  12.965 -10.726  1.00  0.00     0.178 HD
ATOM     11  H61 UNL     1      45.992  14.338 -10.000  1.00  0.00     0.178 HD
ENDBRANCH   7   9
ENDBRANCH   5   7
BRANCH   6  12
HETATM   12  C2  UNL     1      48.382  17.394 -12.280  1.00  0.00     0.172 C 
BRANCH  12  13
HETATM   13  C3  UNL     1      47.397  18.368 -11.660  1.00  0.00     0.033 C 
BRANCH  13  14
HETATM   14  C4  UNL     1      47.720  19.812 -12.033  1.00  0.00     0.088 C 
HETATM   15  S1  UNL     1      46.587  20.982 -11.232  1.00  0.00    -0.098 SA
ENDBRANCH  13  14
ENDBRANCH  12  13
ENDBRANCH   6  12
BRANCH   1  16
HETATM   16  N1  UNL     1      47.424  17.638 -15.127  1.00  0.00    -0.232 N 
ATOM     17  H12 UNL     1      48.272  18.161 -15.344  1.00  0.00     0.174 HD
ATOM     18  H11 UNL     1      46.651  18.060 -15.641  1.00  0.00     0.174 HD
ENDBRANCH   1  16
TORSDOF 6
ENDMDL
MODEL 4
REMARK VINA RESULT: -4.646158385      0.908      2.923
REMARK  6 active torsions:
REMARK  status: ('A' for Active; 'I' for Inactive)
REMARK    1  A    between atoms: N1_1  and  C1_4 
REMARK    2  A    between atoms: N4_8  and  N5_9 
REMARK    3  A    between atoms: N5_9  and  N6_11 
REMARK    4  A    between atoms: N7_14  and  C2_15 
REMARK    5  A    between atoms: C2_15  and  C3_16 
REMARK    6  A    between atoms: C3_16  and  C4_17 
ROOT
HETATM    1  C1  UNL     1      47.694  17.118 -13.065  1.00  0.00     0.708 A 
HETATM    2  N2  UNL     1      47.196  16.996 -14.329  1.00  0.00    -0.112 N 
ATOM      3  H2  UNL     1      47.078  17.732 -15.026  1.00  0.00     0.203 HD
HETATM    4  N3  UNL     1      46.898  15.702 -14.455  1.00  0.00     0.034 NA
HETATM    5  N4  UNL     1      47.190  15.051 -13.342  1.00  0.00    -0.084 N 
HETATM    6  N7  UNL     1      47.674  15.914 -12.492  1.00  0.00    -0.087 N 
ENDROOT
BRANCH   5   7
HETATM    7  N5  UNL     1      47.027  13.690 -13.036  1.00  0.00    -0.213 N 
ATOM      8  H5  UNL     1      47.473  13.352 -12.183  1.00  0.00     0.211 HD
BRANCH   7   9
HETATM    9  N6  UNL     1      46.323  12.771 -13.776  1.00  0.00    -0.328 N 
ATOM     10  H62 UNL     1      46.016  13.085 -14.698  1.00  0.00     0.178 HD
ATOM     11  H61 UNL     1      46.085  11.822 -13.489  1.00  0.00     0.178 HD
ENDBRANCH   7   9
ENDBRANCH   5   7
BRANCH   6  12
HETATM   12  C2  UNL     1      48.126  15.621 -11.136  1.00  0.00     0.172 C 
BRANCH  12  13
HETATM   13  C3  UNL     1      46.985  15.845 -10.159  1.00  0.00     0.033 C 
BRANCH  13  14
HETATM   14  C4  UNL     1      46.496  14.533  -9.551  1.00  0.00     0.088 C 
HETATM   15  S1  UNL     1      47.864  13.564  -8.858  1.00  0.00    -0.098 SA
ENDBRANCH  13  14
ENDBRANCH  12  13
ENDBRANCH   6  12
BRANCH   1  16
HETATM   16  N1  UNL     1      48.106  18.267 -12.577  1.00  0.00    -0.232 N 
ATOM     17  H12 UNL     1      47.916  19.215 -12.903  1.00  0.00     0.174 HD
ATOM     18  H11 UNL     1      48.702  18.329 -11.752  1.00  0.00     0.174 HD
ENDBRANCH   1  16
TORSDOF 6
ENDMDL
MODEL 5
REMARK VINA RESULT: -4.627240991      1.425      1.580
REMARK  6 active torsions:
REMARK  status: ('A' for Active; 'I' for Inactive)
REMARK    1  A    between atoms: N1_1  and  C1_4 
REMARK    2  A    between atoms: N4_8  and  N5_9 
REMARK    3  A    between atoms: N5_9  and  N6_11 
REMARK    4  A    between atoms: N7_14  and  C2_15 
REMARK    5  A    between atoms: C2_15  and  C3_16 
REMARK    6  A    between atoms: C3_16  and  C4_17 
ROOT
HETATM    1  C1  UNL     1      46.973  15.617 -14.024  1.00  0.00     0.708 A 
HETATM    2  N2  UNL     1      46.347  16.044 -15.158  1.00  0.00    -0.112 N 
ATOM      3  H2  UNL     1      45.742  15.504 -15.777  1.00  0.00     0.203 HD
HETATM    4  N3  UNL     1      46.699  17.325 -15.280  1.00  0.00     0.034 NA
HETATM    5  N4  UNL     1      47.495  17.682 -14.287  1.00  0.00    -0.084 N 
HETATM    6  N7  UNL     1      47.664  16.640 -13.520  1.00  0.00    -0.087 N 
ENDROOT
BRANCH   5   7
HETATM    7  N5  UNL     1      48.105  18.920 -14.033  1.00  0.00    -0.213 N 
ATOM      8  H5  UNL     1      48.838  18.938 -13.323  1.00  0.00     0.211 HD
BRANCH   7   9
HETATM    9  N6  UNL     1      47.808  20.112 -14.650  1.00  0.00    -0.328 N 
ATOM     10  H62 UNL     1      47.274  20.779 -14.094  1.00  0.00     0.178 HD
ATOM     11  H61 UNL     1      48.072  20.380 -15.599  1.00  0.00     0.178 HD
ENDBRANCH   7   9
ENDBRANCH   5   7
BRANCH   6  12
HETATM   12  C2  UNL     1      48.474  16.591 -12.307  1.00  0.00     0.172 C 
BRANCH  12  13
HETATM   13  C3  UNL     1      47.570  16.651 -11.088  1.00  0.00     0.033 C 
BRANCH  13  14
HETATM   14  C4  UNL     1      47.759  15.437 -10.184  1.00  0.00     0.088 C 
HETATM   15  S1  UNL     1      46.217  14.979  -9.344  1.00  0.00    -0.098 SA
ENDBRANCH  13  14
ENDBRANCH  12  13
ENDBRANCH   6  12
BRANCH   1  16
HETATM   16  N1  UNL     1      46.855  14.387 -13.574  1.00  0.00    -0.232 N 
ATOM     17  H12 UNL     1      46.549  13.546 -14.062  1.00  0.00     0.174 HD
ATOM     18  H11 UNL     1      47.080  14.132 -12.613  1.00  0.00     0.174 HD
ENDBRANCH   1  16
TORSDOF 6
ENDMDL
