MODEL 1
REMARK VINA RESULT: -6.064284742      0.000      0.000
REMARK  2 active torsions:
REMARK  status: ('A' for Active; 'I' for Inactive)
REMARK    1  A    between atoms: C3_6  and  N2_7 
REMARK    2  A    between atoms: N2_7  and  C4_9 
ROOT
HETATM    1  N1  UNL     1      84.231 -12.563  67.511  1.00  0.00    -0.385 N 
ATOM      2  H11 UNL     1      84.855 -12.208  68.236  1.00  0.00     0.157 HD
ATOM      3  H12 UNL     1      83.306 -12.134  67.467  1.00  0.00     0.157 HD
HETATM    4  C1  UNL     1      84.568 -13.501  66.684  1.00  0.00     0.103 A 
HETATM    5  C2  UNL     1      83.724 -13.981  65.704  1.00  0.00     0.096 A 
HETATM    6  C3  UNL     1      84.094 -14.983  64.827  1.00  0.00     0.108 A 
HETATM    7  N5  UNL     1      85.340 -15.502  64.951  1.00  0.00    -0.339 N 
ATOM      8  H5  UNL     1      85.647 -16.242  64.320  1.00  0.00     0.168 HD
HETATM    9  C6  UNL     1      86.173 -15.046  65.899  1.00  0.00     0.183 A 
HETATM   10  N6  UNL     1      85.787 -14.067  66.742  1.00  0.00    -0.339 N 
ATOM     11  H6  UNL     1      86.445 -13.743  67.450  1.00  0.00     0.168 HD
ENDROOT
BRANCH   6  12
HETATM   12  N2  UNL     1      83.201 -15.439  63.845  1.00  0.00    -0.327 N 
ATOM     13  H2  UNL     1      83.471 -15.348  62.866  1.00  0.00     0.164 HD
BRANCH  12  14
HETATM   14  C4  UNL     1      81.915 -16.033  64.150  1.00  0.00     0.490 A 
HETATM   15  N3  UNL     1      80.953 -15.859  63.081  1.00  0.00    -0.005 N 
HETATM   16  C5  UNL     1      80.839 -17.299  62.971  1.00  0.00     0.472 A 
ATOM     17  H32 UNL     1      80.121 -15.286  63.226  1.00  0.00     0.283 HD
ATOM     18  H31 UNL     1      81.189 -15.297  62.263  1.00  0.00     0.283 HD
HETATM   19  N4  UNL     1      81.877 -17.457  63.957  1.00  0.00    -0.005 N 
ATOM     20  H42 UNL     1      82.730 -17.961  63.720  1.00  0.00     0.283 HD
ATOM     21  H41 UNL     1      81.730 -18.074  64.755  1.00  0.00     0.283 HD
ENDBRANCH  12  14
ENDBRANCH   6  12
TORSDOF 2
ENDMDL
MODEL 2
REMARK VINA RESULT: -5.968347050      0.959      1.271
REMARK  2 active torsions:
REMARK  status: ('A' for Active; 'I' for Inactive)
REMARK    1  A    between atoms: C3_6  and  N2_7 
REMARK    2  A    between atoms: N2_7  and  C4_9 
ROOT
HETATM    1  N1  UNL     1      84.452 -11.634  66.183  1.00  0.00    -0.385 N 
ATOM      2  H11 UNL     1      85.260 -11.110  66.520  1.00  0.00     0.157 HD
ATOM      3  H12 UNL     1      83.640 -11.079  65.913  1.00  0.00     0.157 HD
HETATM    4  C1  UNL     1      84.433 -12.927  66.094  1.00  0.00     0.103 A 
HETATM    5  C2  UNL     1      83.341 -13.635  65.638  1.00  0.00     0.096 A 
HETATM    6  C3  UNL     1      83.332 -15.013  65.548  1.00  0.00     0.108 A 
HETATM    7  N5  UNL     1      84.451 -15.678  65.927  1.00  0.00    -0.339 N 
ATOM      8  H5  UNL     1      84.479 -16.697  65.873  1.00  0.00     0.168 HD
HETATM    9  C6  UNL     1      85.521 -15.004  66.373  1.00  0.00     0.183 A 
HETATM   10  N6  UNL     1      85.504 -13.659  66.450  1.00  0.00    -0.339 N 
ATOM     11  H6  UNL     1      86.335 -13.177  66.793  1.00  0.00     0.168 HD
ENDROOT
BRANCH   6  12
HETATM   12  N2  UNL     1      82.196 -15.691  65.078  1.00  0.00    -0.327 N 
ATOM     13  H2  UNL     1      81.347 -15.659  65.642  1.00  0.00     0.164 HD
BRANCH  12  14
HETATM   14  C4  UNL     1      82.167 -16.435  63.835  1.00  0.00     0.490 A 
HETATM   15  N3  UNL     1      81.912 -17.847  64.036  1.00  0.00    -0.005 N 
HETATM   16  C5  UNL     1      80.723 -17.732  63.215  1.00  0.00     0.472 A 
ATOM     17  H32 UNL     1      82.629 -18.537  63.809  1.00  0.00     0.283 HD
ATOM     18  H31 UNL     1      81.851 -18.229  64.979  1.00  0.00     0.283 HD
HETATM   19  N4  UNL     1      80.929 -16.310  63.117  1.00  0.00    -0.005 N 
ATOM     20  H42 UNL     1      80.210 -15.668  63.449  1.00  0.00     0.283 HD
ATOM     21  H41 UNL     1      80.915 -15.856  62.203  1.00  0.00     0.283 HD
ENDBRANCH  12  14
ENDBRANCH   6  12
TORSDOF 2
ENDMDL
MODEL 3
REMARK VINA RESULT: -5.847486908      1.041      2.190
REMARK  2 active torsions:
REMARK  status: ('A' for Active; 'I' for Inactive)
REMARK    1  A    between atoms: C3_6  and  N2_7 
REMARK    2  A    between atoms: N2_7  and  C4_9 
ROOT
HETATM    1  N1  UNL     1      87.025 -15.841  65.465  1.00  0.00    -0.385 N 
ATOM      2  H11 UNL     1      87.921 -15.472  65.783  1.00  0.00     0.157 HD
ATOM      3  H12 UNL     1      87.056 -16.740  64.984  1.00  0.00     0.157 HD
HETATM    4  C1  UNL     1      85.900 -15.225  65.649  1.00  0.00     0.103 A 
HETATM    5  C2  UNL     1      84.688 -15.724  65.219  1.00  0.00     0.096 A 
HETATM    6  C3  UNL     1      83.494 -15.059  65.421  1.00  0.00     0.108 A 
HETATM    7  N5  UNL     1      83.536 -13.869  66.068  1.00  0.00    -0.339 N 
ATOM      8  H5  UNL     1      82.674 -13.350  66.234  1.00  0.00     0.168 HD
HETATM    9  C6  UNL     1      84.707 -13.369  66.492  1.00  0.00     0.183 A 
HETATM   10  N6  UNL     1      85.858 -14.039  66.284  1.00  0.00    -0.339 N 
ATOM     11  H6  UNL     1      86.730 -13.632  66.620  1.00  0.00     0.168 HD
ENDROOT
BRANCH   6  12
HETATM   12  N2  UNL     1      82.285 -15.606  64.965  1.00  0.00    -0.327 N 
ATOM     13  H2  UNL     1      81.442 -15.442  65.516  1.00  0.00     0.164 HD
BRANCH  12  14
HETATM   14  C4  UNL     1      82.171 -16.392  63.753  1.00  0.00     0.490 A 
HETATM   15  N3  UNL     1      81.914 -17.793  64.020  1.00  0.00    -0.005 N 
HETATM   16  C5  UNL     1      80.677 -17.691  63.271  1.00  0.00     0.472 A 
ATOM     17  H32 UNL     1      82.608 -18.499  63.773  1.00  0.00     0.283 HD
ATOM     18  H31 UNL     1      81.908 -18.142  64.978  1.00  0.00     0.283 HD
HETATM   19  N4  UNL     1      80.891 -16.277  63.109  1.00  0.00    -0.005 N 
ATOM     20  H42 UNL     1      80.201 -15.614  63.463  1.00  0.00     0.283 HD
ATOM     21  H41 UNL     1      80.825 -15.855  62.183  1.00  0.00     0.283 HD
ENDBRANCH  12  14
ENDBRANCH   6  12
TORSDOF 2
ENDMDL
MODEL 4
REMARK VINA RESULT: -5.782852742      0.983      1.977
REMARK  2 active torsions:
REMARK  status: ('A' for Active; 'I' for Inactive)
REMARK    1  A    between atoms: C3_6  and  N2_7 
REMARK    2  A    between atoms: N2_7  and  C4_9 
ROOT
HETATM    1  N1  UNL     1      87.092 -15.872  65.582  1.00  0.00    -0.385 N 
ATOM      2  H11 UNL     1      87.851 -15.743  66.251  1.00  0.00     0.157 HD
ATOM      3  H12 UNL     1      87.245 -16.577  64.860  1.00  0.00     0.157 HD
HETATM    4  C1  UNL     1      85.988 -15.193  65.623  1.00  0.00     0.103 A 
HETATM    5  C2  UNL     1      84.961 -15.367  64.719  1.00  0.00     0.096 A 
HETATM    6  C3  UNL     1      83.789 -14.638  64.773  1.00  0.00     0.108 A 
HETATM    7  N5  UNL     1      83.663 -13.719  65.762  1.00  0.00    -0.339 N 
ATOM      8  H5  UNL     1      82.811 -13.162  65.831  1.00  0.00     0.168 HD
HETATM    9  C6  UNL     1      84.653 -13.538  66.649  1.00  0.00     0.183 A 
HETATM   10  N6  UNL     1      85.786 -14.263  66.574  1.00  0.00    -0.339 N 
ATOM     11  H6  UNL     1      86.518 -14.101  67.265  1.00  0.00     0.168 HD
ENDROOT
BRANCH   6  12
HETATM   12  N2  UNL     1      82.772 -14.850  63.830  1.00  0.00    -0.327 N 
ATOM     13  H2  UNL     1      82.727 -14.232  63.020  1.00  0.00     0.164 HD
BRANCH  12  14
HETATM   14  C4  UNL     1      81.781 -15.900  63.948  1.00  0.00     0.490 A 
HETATM   15  N3  UNL     1      80.747 -15.806  62.937  1.00  0.00    -0.005 N 
HETATM   16  C5  UNL     1      81.113 -17.127  62.464  1.00  0.00     0.472 A 
ATOM     17  H32 UNL     1      79.783 -15.604  63.203  1.00  0.00     0.283 HD
ATOM     18  H31 UNL     1      80.728 -15.017  62.292  1.00  0.00     0.283 HD
HETATM   19  N4  UNL     1      82.206 -17.159  63.401  1.00  0.00    -0.005 N 
ATOM     20  H42 UNL     1      83.162 -17.270  63.063  1.00  0.00     0.283 HD
ATOM     21  H41 UNL     1      82.328 -17.965  64.014  1.00  0.00     0.283 HD
ENDBRANCH  12  14
ENDBRANCH   6  12
TORSDOF 2
ENDMDL
MODEL 5
REMARK VINA RESULT: -5.634200211      1.427      5.260
REMARK  2 active torsions:
REMARK  status: ('A' for Active; 'I' for Inactive)
REMARK    1  A    between atoms: C3_6  and  N2_7 
REMARK    2  A    between atoms: N2_7  and  C4_9 
ROOT
HETATM    1  N1  UNL     1      81.161 -18.529  64.074  1.00  0.00    -0.385 N 
ATOM      2  H11 UNL     1      80.406 -19.031  63.607  1.00  0.00     0.157 HD
ATOM      3  H12 UNL     1      81.685 -19.056  64.773  1.00  0.00     0.157 HD
HETATM    4  C1  UNL     1      81.457 -17.294  63.813  1.00  0.00     0.103 A 
HETATM    5  C2  UNL     1      82.478 -16.614  64.443  1.00  0.00     0.096 A 
HETATM    6  C3  UNL     1      82.785 -15.298  64.157  1.00  0.00     0.108 A 
HETATM    7  N5  UNL     1      82.041 -14.667  63.216  1.00  0.00    -0.339 N 
ATOM      8  H5  UNL     1      82.240 -13.694  62.979  1.00  0.00     0.168 HD
HETATM    9  C6  UNL     1      81.044 -15.314  62.594  1.00  0.00     0.183 A 
HETATM   10  N6  UNL     1      80.766 -16.599  62.891  1.00  0.00    -0.339 N 
ATOM     11  H6  UNL     1      80.002 -17.062  62.399  1.00  0.00     0.168 HD
ENDROOT
BRANCH   6  12
HETATM   12  N2  UNL     1      83.834 -14.647  64.825  1.00  0.00    -0.327 N 
ATOM     13  H2  UNL     1      84.789 -14.836  64.523  1.00  0.00     0.164 HD
BRANCH  12  14
HETATM   14  C4  UNL     1      83.630 -13.721  65.920  1.00  0.00     0.490 A 
HETATM   15  N3  UNL     1      84.853 -13.431  66.640  1.00  0.00    -0.005 N 
HETATM   16  C5  UNL     1      84.695 -12.029  66.309  1.00  0.00     0.472 A 
ATOM     17  H32 UNL     1      84.960 -13.722  67.612  1.00  0.00     0.283 HD
ATOM     18  H31 UNL     1      85.716 -13.921  66.405  1.00  0.00     0.283 HD
HETATM   19  N4  UNL     1      83.544 -12.348  65.506  1.00  0.00    -0.005 N 
ATOM     20  H42 UNL     1      83.536 -12.115  64.513  1.00  0.00     0.283 HD
ATOM     21  H41 UNL     1      82.674 -11.831  65.636  1.00  0.00     0.283 HD
ENDBRANCH  12  14
ENDBRANCH   6  12
TORSDOF 2
ENDMDL
