MODEL 1
REMARK VINA RESULT: -5.156132122      0.000      0.000
REMARK  5 active torsions:
REMARK  status: ('A' for Active; 'I' for Inactive)
REMARK    1  A    between atoms: N1_1  and  C1_4 
REMARK    2  A    between atoms: N3_8  and  C3_9 
REMARK    3  A    between atoms: C3_9  and  C4_10 
REMARK    4  A    between atoms: C4_10  and  C5_11 
REMARK    5  A    between atoms: C5_11  and  N4_12 
ROOT
HETATM    1  C1  UNL     1      84.454 -12.375  66.260  1.00  0.00     0.691 A 
HETATM    2  N2  UNL     1      83.588 -12.494  65.239  1.00  0.00    -0.187 N 
ATOM      3  H2  UNL     1      83.107 -11.660  64.904  1.00  0.00     0.185 HD
HETATM    4  C2  UNL     1      83.331 -13.670  64.644  1.00  0.00     0.218 A 
HETATM    5  N3  UNL     1      83.950 -14.816  65.057  1.00  0.00    -0.179 N 
HETATM    6  C6  UNL     1      84.819 -14.715  66.076  1.00  0.00     0.693 A 
HETATM    7  N5  UNL     1      85.419 -15.766  66.510  1.00  0.00    -0.234 N 
ATOM      8  H51 UNL     1      86.079 -15.689  67.283  1.00  0.00     0.174 HD
ATOM      9  H52 UNL     1      85.238 -16.669  66.072  1.00  0.00     0.174 HD
HETATM   10  N6  UNL     1      85.062 -13.500  66.666  1.00  0.00    -0.023 N 
ATOM     11  H6  UNL     1      85.726 -13.451  67.438  1.00  0.00     0.203 HD
ENDROOT
BRANCH   5  12
HETATM   12  C3  UNL     1      83.630 -16.029  64.361  1.00  0.00     0.150 C 
BRANCH  12  13
HETATM   13  C4  UNL     1      82.170 -16.413  64.551  1.00  0.00     0.048 C 
BRANCH  13  14
HETATM   14  C5  UNL     1      81.508 -16.669  63.226  1.00  0.00     0.231 C 
BRANCH  14  15
HETATM   15  N4  UNL     1      80.678 -15.535  62.819  1.00  0.00    -0.079 N 
ATOM     16  H43 UNL     1      80.196 -15.120  63.616  1.00  0.00     0.274 HD
ATOM     17  H42 UNL     1      81.247 -14.734  62.545  1.00  0.00     0.274 HD
ATOM     18  H41 UNL     1      80.025 -15.801  62.083  1.00  0.00     0.274 HD
ENDBRANCH  14  15
ENDBRANCH  13  14
ENDBRANCH  12  13
ENDBRANCH   5  12
BRANCH   1  19
HETATM   19  N1  UNL     1      84.714 -11.254  66.845  1.00  0.00    -0.234 N 
ATOM     20  H12 UNL     1      84.428 -10.375  66.414  1.00  0.00     0.174 HD
ATOM     21  H11 UNL     1      85.203 -11.186  67.737  1.00  0.00     0.174 HD
ENDBRANCH   1  19
TORSDOF 5
ENDMDL
MODEL 2
REMARK VINA RESULT: -4.753957741      1.751      5.723
REMARK  5 active torsions:
REMARK  status: ('A' for Active; 'I' for Inactive)
REMARK    1  A    between atoms: N1_1  and  C1_4 
REMARK    2  A    between atoms: N3_8  and  C3_9 
REMARK    3  A    between atoms: C3_9  and  C4_10 
REMARK    4  A    between atoms: C4_10  and  C5_11 
REMARK    5  A    between atoms: C5_11  and  N4_12 
ROOT
HETATM    1  C1  UNL     1      80.411 -17.808  63.103  1.00  0.00     0.691 A 
HETATM    2  N2  UNL     1      81.336 -17.953  64.068  1.00  0.00    -0.187 N 
ATOM      3  H2  UNL     1      81.390 -18.841  64.565  1.00  0.00     0.185 HD
HETATM    4  C2  UNL     1      82.191 -16.972  64.401  1.00  0.00     0.218 A 
HETATM    5  N3  UNL     1      82.158 -15.765  63.763  1.00  0.00    -0.179 N 
HETATM    6  C6  UNL     1      81.239 -15.603  62.797  1.00  0.00     0.693 A 
HETATM    7  N5  UNL     1      81.160 -14.481  62.174  1.00  0.00    -0.234 N 
ATOM      8  H51 UNL     1      80.462 -14.358  61.440  1.00  0.00     0.174 HD
ATOM      9  H52 UNL     1      81.800 -13.724  62.412  1.00  0.00     0.174 HD
HETATM   10  N6  UNL     1      80.378 -16.622  62.477  1.00  0.00    -0.023 N 
ATOM     11  H6  UNL     1      79.689 -16.472  61.739  1.00  0.00     0.203 HD
ENDROOT
BRANCH   5  12
HETATM   12  C3  UNL     1      83.113 -14.775  64.170  1.00  0.00     0.150 C 
BRANCH  12  13
HETATM   13  C4  UNL     1      83.652 -15.058  65.564  1.00  0.00     0.048 C 
BRANCH  13  14
HETATM   14  C5  UNL     1      84.626 -13.995  65.987  1.00  0.00     0.231 C 
BRANCH  14  15
HETATM   15  N4  UNL     1      84.713 -13.903  67.444  1.00  0.00    -0.079 N 
ATOM     16  H43 UNL     1      85.594 -13.484  67.741  1.00  0.00     0.274 HD
ATOM     17  H42 UNL     1      84.073 -13.201  67.815  1.00  0.00     0.274 HD
ATOM     18  H41 UNL     1      84.565 -14.813  67.881  1.00  0.00     0.274 HD
ENDBRANCH  14  15
ENDBRANCH  13  14
ENDBRANCH  12  13
ENDBRANCH   5  12
BRANCH   1  19
HETATM   19  N1  UNL     1      79.580 -18.737  62.769  1.00  0.00    -0.234 N 
ATOM     20  H12 UNL     1      78.620 -18.499  62.521  1.00  0.00     0.174 HD
ATOM     21  H11 UNL     1      79.827 -19.726  62.736  1.00  0.00     0.174 HD
ENDBRANCH   1  19
TORSDOF 5
ENDMDL
MODEL 3
REMARK VINA RESULT: -4.662687813      0.838      1.989
REMARK  5 active torsions:
REMARK  status: ('A' for Active; 'I' for Inactive)
REMARK    1  A    between atoms: N1_1  and  C1_4 
REMARK    2  A    between atoms: N3_8  and  C3_9 
REMARK    3  A    between atoms: C3_9  and  C4_10 
REMARK    4  A    between atoms: C4_10  and  C5_11 
REMARK    5  A    between atoms: C5_11  and  N4_12 
ROOT
HETATM    1  C1  UNL     1      84.247 -12.939  66.799  1.00  0.00     0.691 A 
HETATM    2  N2  UNL     1      84.535 -14.247  66.908  1.00  0.00    -0.187 N 
ATOM      3  H2  UNL     1      85.001 -14.578  67.753  1.00  0.00     0.185 HD
HETATM    4  C2  UNL     1      84.232 -15.136  65.948  1.00  0.00     0.218 A 
HETATM    5  N3  UNL     1      83.608 -14.742  64.799  1.00  0.00    -0.179 N 
HETATM    6  C6  UNL     1      83.314 -13.437  64.673  1.00  0.00     0.693 A 
HETATM    7  N5  UNL     1      82.736 -13.014  63.605  1.00  0.00    -0.234 N 
ATOM      8  H51 UNL     1      82.512 -12.024  63.509  1.00  0.00     0.174 HD
ATOM      9  H52 UNL     1      82.498 -13.672  62.864  1.00  0.00     0.174 HD
HETATM   10  N6  UNL     1      83.635 -12.552  65.670  1.00  0.00    -0.023 N 
ATOM     11  H6  UNL     1      83.400 -11.567  65.549  1.00  0.00     0.203 HD
ENDROOT
BRANCH   5  12
HETATM   12  C3  UNL     1      83.308 -15.755  63.828  1.00  0.00     0.150 C 
BRANCH  12  13
HETATM   13  C4  UNL     1      82.195 -16.674  64.306  1.00  0.00     0.048 C 
BRANCH  13  14
HETATM   14  C5  UNL     1      81.194 -16.916  63.211  1.00  0.00     0.231 C 
BRANCH  14  15
HETATM   15  N4  UNL     1      80.578 -15.664  62.769  1.00  0.00    -0.079 N 
ATOM     16  H43 UNL     1      79.732 -15.457  63.299  1.00  0.00     0.274 HD
ATOM     17  H42 UNL     1      81.136 -14.855  63.042  1.00  0.00     0.274 HD
ATOM     18  H41 UNL     1      80.398 -15.674  61.765  1.00  0.00     0.274 HD
ENDBRANCH  14  15
ENDBRANCH  13  14
ENDBRANCH  12  13
ENDBRANCH   5  12
BRANCH   1  19
HETATM   19  N1  UNL     1      84.531 -12.070  67.710  1.00  0.00    -0.234 N 
ATOM     20  H12 UNL     1      84.460 -12.322  68.696  1.00  0.00     0.174 HD
ATOM     21  H11 UNL     1      84.830 -11.117  67.505  1.00  0.00     0.174 HD
ENDBRANCH   1  19
TORSDOF 5
ENDMDL
MODEL 4
REMARK VINA RESULT: -4.502991330      1.300      2.216
REMARK  5 active torsions:
REMARK  status: ('A' for Active; 'I' for Inactive)
REMARK    1  A    between atoms: N1_1  and  C1_4 
REMARK    2  A    between atoms: N3_8  and  C3_9 
REMARK    3  A    between atoms: C3_9  and  C4_10 
REMARK    4  A    between atoms: C4_10  and  C5_11 
REMARK    5  A    between atoms: C5_11  and  N4_12 
ROOT
HETATM    1  C1  UNL     1      84.249 -12.769  66.864  1.00  0.00     0.691 A 
HETATM    2  N2  UNL     1      84.587 -14.060  67.028  1.00  0.00    -0.187 N 
ATOM      3  H2  UNL     1      85.053 -14.338  67.892  1.00  0.00     0.185 HD
HETATM    4  C2  UNL     1      84.334 -14.997  66.100  1.00  0.00     0.218 A 
HETATM    5  N3  UNL     1      83.712 -14.674  64.928  1.00  0.00    -0.179 N 
HETATM    6  C6  UNL     1      83.367 -13.388  64.747  1.00  0.00     0.693 A 
HETATM    7  N5  UNL     1      82.789 -13.031  63.655  1.00  0.00    -0.234 N 
ATOM      8  H51 UNL     1      82.527 -12.055  63.517  1.00  0.00     0.174 HD
ATOM      9  H52 UNL     1      82.589 -13.727  62.937  1.00  0.00     0.174 HD
HETATM   10  N6  UNL     1      83.638 -12.452  65.712  1.00  0.00    -0.023 N 
ATOM     11  H6  UNL     1      83.366 -11.483  65.549  1.00  0.00     0.203 HD
ENDROOT
BRANCH   5  12
HETATM   12  C3  UNL     1      83.468 -15.735  63.994  1.00  0.00     0.150 C 
BRANCH  12  13
HETATM   13  C4  UNL     1      82.231 -16.537  64.371  1.00  0.00     0.048 C 
BRANCH  13  14
HETATM   14  C5  UNL     1      82.172 -17.823  63.596  1.00  0.00     0.231 C 
BRANCH  14  15
HETATM   15  N4  UNL     1      81.018 -18.630  63.993  1.00  0.00    -0.079 N 
ATOM     16  H43 UNL     1      81.175 -19.621  63.814  1.00  0.00     0.274 HD
ATOM     17  H42 UNL     1      80.918 -18.668  65.008  1.00  0.00     0.274 HD
ATOM     18  H41 UNL     1      80.164 -18.299  63.545  1.00  0.00     0.274 HD
ENDBRANCH  14  15
ENDBRANCH  13  14
ENDBRANCH  12  13
ENDBRANCH   5  12
BRANCH   1  19
HETATM   19  N1  UNL     1      84.483 -11.855  67.743  1.00  0.00    -0.234 N 
ATOM     20  H12 UNL     1      84.285 -12.031  68.728  1.00  0.00     0.174 HD
ATOM     21  H11 UNL     1      84.865 -10.938  67.513  1.00  0.00     0.174 HD
ENDBRANCH   1  19
TORSDOF 5
ENDMDL
MODEL 5
REMARK VINA RESULT: -4.293728061      1.847      5.335
REMARK  5 active torsions:
REMARK  status: ('A' for Active; 'I' for Inactive)
REMARK    1  A    between atoms: N1_1  and  C1_4 
REMARK    2  A    between atoms: N3_8  and  C3_9 
REMARK    3  A    between atoms: C3_9  and  C4_10 
REMARK    4  A    between atoms: C4_10  and  C5_11 
REMARK    5  A    between atoms: C5_11  and  N4_12 
ROOT
HETATM    1  C1  UNL     1      80.460 -16.160  61.417  1.00  0.00     0.691 A 
HETATM    2  N2  UNL     1      81.025 -15.014  61.833  1.00  0.00    -0.187 N 
ATOM      3  H2  UNL     1      80.921 -14.179  61.256  1.00  0.00     0.185 HD
HETATM    4  C2  UNL     1      81.719 -14.924  62.979  1.00  0.00     0.218 A 
HETATM    5  N3  UNL     1      81.885 -16.014  63.786  1.00  0.00    -0.179 N 
HETATM    6  C6  UNL     1      81.328 -17.168  63.386  1.00  0.00     0.693 A 
HETATM    7  N5  UNL     1      81.465 -18.226  64.105  1.00  0.00    -0.234 N 
ATOM      8  H51 UNL     1      81.042 -19.102  63.801  1.00  0.00     0.174 HD
ATOM      9  H52 UNL     1      81.989 -18.179  64.978  1.00  0.00     0.174 HD
HETATM   10  N6  UNL     1      80.624 -17.231  62.210  1.00  0.00    -0.023 N 
ATOM     11  H6  UNL     1      80.211 -18.120  61.929  1.00  0.00     0.203 HD
ENDROOT
BRANCH   5  12
HETATM   12  C3  UNL     1      82.630 -15.831  64.999  1.00  0.00     0.150 C 
BRANCH  12  13
HETATM   13  C4  UNL     1      83.827 -14.917  64.787  1.00  0.00     0.048 C 
BRANCH  13  14
HETATM   14  C5  UNL     1      83.869 -13.841  65.836  1.00  0.00     0.231 C 
BRANCH  14  15
HETATM   15  N4  UNL     1      83.645 -12.519  65.250  1.00  0.00    -0.079 N 
ATOM     16  H43 UNL     1      82.790 -12.093  65.604  1.00  0.00     0.274 HD
ATOM     17  H42 UNL     1      84.317 -11.836  65.599  1.00  0.00     0.274 HD
ATOM     18  H41 UNL     1      83.649 -12.561  64.231  1.00  0.00     0.274 HD
ENDBRANCH  14  15
ENDBRANCH  13  14
ENDBRANCH  12  13
ENDBRANCH   5  12
BRANCH   1  19
HETATM   19  N1  UNL     1      79.790 -16.266  60.320  1.00  0.00    -0.234 N 
ATOM     20  H12 UNL     1      79.114 -15.547  60.063  1.00  0.00     0.174 HD
ATOM     21  H11 UNL     1      79.894 -17.046  59.671  1.00  0.00     0.174 HD
ENDBRANCH   1  19
TORSDOF 5
ENDMDL
