MODEL 1
REMARK VINA RESULT: -7.532044747      0.000      0.000
REMARK  13 active torsions:
REMARK  status: ('A' for Active; 'I' for Inactive)
REMARK       I    between atoms: N1_2  and  C3_4 
REMARK    1  A    between atoms: C3_4  and  C4_6 
REMARK    2  A    between atoms: C4_6  and  C5_7 
REMARK    3  A    between atoms: C5_7  and  C6_8 
REMARK    4  A    between atoms: C6_8  and  C7_9 
REMARK    5  A    between atoms: C7_9  and  C8_10 
REMARK    6  A    between atoms: C8_10  and  C9_11 
REMARK    7  A    between atoms: C9_11  and  C10_12 
REMARK    8  A    between atoms: C10_12  and  C11_13 
REMARK    9  A    between atoms: C11_13  and  C12_14 
REMARK   10  A    between atoms: C12_14  and  C13_15 
REMARK   11  A    between atoms: C13_15  and  C14_16 
REMARK   12  A    between atoms: C14_16  and  S1_18 
REMARK   13  A    between atoms: S1_18  and  C15_19 
ROOT
HETATM    1  C11 UNL     1      29.683  32.415  14.795  1.00  0.00     0.000 C 
ENDROOT
BRANCH   1   2
HETATM    2  C10 UNL     1      31.027  32.236  15.418  1.00  0.00     0.000 C 
BRANCH   2   3
HETATM    3  C9  UNL     1      31.965  31.685  14.340  1.00  0.00     0.000 C 
BRANCH   3   4
HETATM    4  C8  UNL     1      32.955  32.789  13.941  1.00  0.00     0.004 C 
BRANCH   4   5
HETATM    5  C7  UNL     1      32.609  33.352  12.621  1.00  0.00     0.027 C 
BRANCH   5   6
HETATM    6  C6  UNL     1      31.904  34.634  12.620  1.00  0.00    -0.030 C 
BRANCH   6   7
HETATM    7  C5  UNL     1      31.864  35.541  13.763  1.00  0.00    -0.022 C 
BRANCH   7   8
HETATM    8  C4  UNL     1      32.755  36.712  13.868  1.00  0.00     0.129 C 
BRANCH   8   9
HETATM    9  C3  UNL     1      32.015  37.749  14.697  1.00  0.00     0.222 C 
HETATM   10  N1  UNL     1      32.270  39.129  14.522  1.00  0.00    -0.361 N 
HETATM   11  C1  UNL     1      33.250  39.590  13.536  1.00  0.00     0.152 C 
HETATM   12  C2  UNL     1      31.549  40.084  15.335  1.00  0.00     0.152 C 
HETATM   13  O1  UNL     1      31.182  37.352  15.531  1.00  0.00    -0.273 OA
ENDBRANCH   8   9
ENDBRANCH   7   8
ENDBRANCH   6   7
ENDBRANCH   5   6
ENDBRANCH   4   5
ENDBRANCH   3   4
ENDBRANCH   2   3
ENDBRANCH   1   2
BRANCH   1  14
HETATM   14  C12 UNL     1      28.694  31.350  15.112  1.00  0.00     0.008 C 
BRANCH  14  15
HETATM   15  C13 UNL     1      28.427  30.367  14.007  1.00  0.00     0.091 C 
BRANCH  15  16
HETATM   16  C14 UNL     1      29.203  29.118  14.113  1.00  0.00     0.186 C 
HETATM   17  O2  UNL     1      30.048  28.958  13.204  1.00  0.00    -0.285 OA
BRANCH  16  18
HETATM   18  S1  UNL     1      29.110  27.857  15.310  1.00  0.00    -0.085 SA
BRANCH  18  19
HETATM   19  C15 UNL     1      29.833  28.107  16.886  1.00  0.00     0.086 C 
HETATM   20  C16 UNL     1      31.164  28.840  16.915  1.00  0.00     0.050 C 
HETATM   21  C17 UNL     1      31.048  29.466  18.313  1.00  0.00     0.123 C 
HETATM   22  C18 UNL     1      30.809  28.417  19.361  1.00  0.00     0.034 C 
HETATM   23  O3  UNL     1      29.767  30.040  18.174  1.00  0.00    -0.379 OA
HETATM   24  C19 UNL     1      29.296  28.164  19.260  1.00  0.00     0.035 C 
HETATM   25  C20 UNL     1      29.042  28.853  17.907  1.00  0.00     0.136 C 
ENDBRANCH  18  19
ENDBRANCH  16  18
ENDBRANCH  15  16
ENDBRANCH  14  15
ENDBRANCH   1  14
TORSDOF 13
ENDMDL
MODEL 2
REMARK VINA RESULT: -7.372161747      3.353      8.932
REMARK  13 active torsions:
REMARK  status: ('A' for Active; 'I' for Inactive)
REMARK       I    between atoms: N1_2  and  C3_4 
REMARK    1  A    between atoms: C3_4  and  C4_6 
REMARK    2  A    between atoms: C4_6  and  C5_7 
REMARK    3  A    between atoms: C5_7  and  C6_8 
REMARK    4  A    between atoms: C6_8  and  C7_9 
REMARK    5  A    between atoms: C7_9  and  C8_10 
REMARK    6  A    between atoms: C8_10  and  C9_11 
REMARK    7  A    between atoms: C9_11  and  C10_12 
REMARK    8  A    between atoms: C10_12  and  C11_13 
REMARK    9  A    between atoms: C11_13  and  C12_14 
REMARK   10  A    between atoms: C12_14  and  C13_15 
REMARK   11  A    between atoms: C13_15  and  C14_16 
REMARK   12  A    between atoms: C14_16  and  S1_18 
REMARK   13  A    between atoms: S1_18  and  C15_19 
ROOT
HETATM    1  C11 UNL     1      32.198  32.083  14.209  1.00  0.00     0.000 C 
ENDROOT
BRANCH   1   2
HETATM    2  C10 UNL     1      31.873  32.363  15.639  1.00  0.00     0.000 C 
BRANCH   2   3
HETATM    3  C9  UNL     1      30.601  31.581  15.983  1.00  0.00     0.000 C 
BRANCH   3   4
HETATM    4  C8  UNL     1      29.591  31.762  14.841  1.00  0.00     0.004 C 
BRANCH   4   5
HETATM    5  C7  UNL     1      28.506  30.765  14.936  1.00  0.00     0.027 C 
BRANCH   5   6
HETATM    6  C6  UNL     1      28.315  29.893  13.778  1.00  0.00    -0.030 C 
BRANCH   6   7
HETATM    7  C5  UNL     1      29.384  29.116  13.158  1.00  0.00    -0.022 C 
BRANCH   7   8
HETATM    8  C4  UNL     1      29.843  27.829  13.714  1.00  0.00     0.129 C 
BRANCH   8   9
HETATM    9  C3  UNL     1      30.978  28.149  14.672  1.00  0.00     0.222 C 
HETATM   10  N1  UNL     1      30.841  27.911  16.060  1.00  0.00    -0.361 N 
HETATM   11  C1  UNL     1      29.603  27.346  16.603  1.00  0.00     0.152 C 
HETATM   12  C2  UNL     1      31.943  28.234  16.939  1.00  0.00     0.152 C 
HETATM   13  O1  UNL     1      32.028  28.626  14.205  1.00  0.00    -0.273 OA
ENDBRANCH   8   9
ENDBRANCH   7   8
ENDBRANCH   6   7
ENDBRANCH   5   6
ENDBRANCH   4   5
ENDBRANCH   3   4
ENDBRANCH   2   3
ENDBRANCH   1   2
BRANCH   1  14
HETATM   14  C12 UNL     1      32.801  33.223  13.466  1.00  0.00     0.008 C 
BRANCH  14  15
HETATM   15  C13 UNL     1      31.827  34.114  12.750  1.00  0.00     0.091 C 
BRANCH  15  16
HETATM   16  C14 UNL     1      31.901  35.530  13.154  1.00  0.00     0.186 C 
HETATM   17  O2  UNL     1      31.770  36.342  12.210  1.00  0.00    -0.285 OA
BRANCH  16  18
HETATM   18  S1  UNL     1      32.141  36.218  14.735  1.00  0.00    -0.085 SA
BRANCH  18  19
HETATM   19  C15 UNL     1      32.650  37.888  14.882  1.00  0.00     0.086 C 
HETATM   20  C16 UNL     1      33.740  38.353  13.931  1.00  0.00     0.050 C 
HETATM   21  C17 UNL     1      33.358  39.839  13.856  1.00  0.00     0.123 C 
HETATM   22  C18 UNL     1      33.318  40.459  15.224  1.00  0.00     0.034 C 
HETATM   23  O3  UNL     1      31.987  39.683  13.563  1.00  0.00    -0.379 OA
HETATM   24  C19 UNL     1      31.934  40.047  15.751  1.00  0.00     0.035 C 
HETATM   25  C20 UNL     1      31.616  38.950  14.717  1.00  0.00     0.136 C 
ENDBRANCH  18  19
ENDBRANCH  16  18
ENDBRANCH  15  16
ENDBRANCH  14  15
ENDBRANCH   1  14
TORSDOF 13
ENDMDL
MODEL 3
REMARK VINA RESULT: -7.290514998      3.044      8.450
REMARK  13 active torsions:
REMARK  status: ('A' for Active; 'I' for Inactive)
REMARK       I    between atoms: N1_2  and  C3_4 
REMARK    1  A    between atoms: C3_4  and  C4_6 
REMARK    2  A    between atoms: C4_6  and  C5_7 
REMARK    3  A    between atoms: C5_7  and  C6_8 
REMARK    4  A    between atoms: C6_8  and  C7_9 
REMARK    5  A    between atoms: C7_9  and  C8_10 
REMARK    6  A    between atoms: C8_10  and  C9_11 
REMARK    7  A    between atoms: C9_11  and  C10_12 
REMARK    8  A    between atoms: C10_12  and  C11_13 
REMARK    9  A    between atoms: C11_13  and  C12_14 
REMARK   10  A    between atoms: C12_14  and  C13_15 
REMARK   11  A    between atoms: C13_15  and  C14_16 
REMARK   12  A    between atoms: C14_16  and  S1_18 
REMARK   13  A    between atoms: S1_18  and  C15_19 
ROOT
HETATM    1  C11 UNL     1      33.770  32.406  13.276  1.00  0.00     0.000 C 
ENDROOT
BRANCH   1   2
HETATM    2  C10 UNL     1      33.578  31.019  12.756  1.00  0.00     0.000 C 
BRANCH   2   3
HETATM    3  C9  UNL     1      32.247  30.500  13.308  1.00  0.00     0.000 C 
BRANCH   3   4
HETATM    4  C8  UNL     1      32.414  29.018  13.674  1.00  0.00     0.004 C 
BRANCH   4   5
HETATM    5  C7  UNL     1      31.108  28.404  13.985  1.00  0.00     0.027 C 
BRANCH   5   6
HETATM    6  C6  UNL     1      29.925  29.071  13.444  1.00  0.00    -0.030 C 
BRANCH   6   7
HETATM    7  C5  UNL     1      28.850  29.617  14.267  1.00  0.00    -0.022 C 
BRANCH   7   8
HETATM    8  C4  UNL     1      29.074  30.719  15.220  1.00  0.00     0.129 C 
BRANCH   8   9
HETATM    9  C3  UNL     1      29.353  30.078  16.570  1.00  0.00     0.222 C 
HETATM   10  N1  UNL     1      30.549  30.358  17.270  1.00  0.00    -0.361 N 
HETATM   11  C1  UNL     1      31.545  31.276  16.712  1.00  0.00     0.152 C 
HETATM   12  C2  UNL     1      30.779  29.723  18.549  1.00  0.00     0.152 C 
HETATM   13  O1  UNL     1      28.502  29.301  17.041  1.00  0.00    -0.273 OA
ENDBRANCH   8   9
ENDBRANCH   7   8
ENDBRANCH   6   7
ENDBRANCH   5   6
ENDBRANCH   4   5
ENDBRANCH   3   4
ENDBRANCH   2   3
ENDBRANCH   1   2
BRANCH   1  14
HETATM   14  C12 UNL     1      32.516  33.124  13.633  1.00  0.00     0.008 C 
BRANCH  14  15
HETATM   15  C13 UNL     1      32.010  34.091  12.601  1.00  0.00     0.091 C 
BRANCH  15  16
HETATM   16  C14 UNL     1      32.004  35.496  13.047  1.00  0.00     0.186 C 
HETATM   17  O2  UNL     1      31.790  36.325  12.135  1.00  0.00    -0.285 OA
BRANCH  16  18
HETATM   18  S1  UNL     1      32.249  36.151  14.641  1.00  0.00    -0.085 SA
BRANCH  18  19
HETATM   19  C15 UNL     1      32.721  37.829  14.823  1.00  0.00     0.086 C 
HETATM   20  C16 UNL     1      33.752  38.355  13.839  1.00  0.00     0.050 C 
HETATM   21  C17 UNL     1      33.328  39.832  13.834  1.00  0.00     0.123 C 
HETATM   22  C18 UNL     1      33.337  40.404  15.223  1.00  0.00     0.034 C 
HETATM   23  O3  UNL     1      31.949  39.648  13.601  1.00  0.00    -0.379 OA
HETATM   24  C19 UNL     1      31.991  39.936  15.799  1.00  0.00     0.035 C 
HETATM   25  C20 UNL     1      31.653  38.867  14.744  1.00  0.00     0.136 C 
ENDBRANCH  18  19
ENDBRANCH  16  18
ENDBRANCH  15  16
ENDBRANCH  14  15
ENDBRANCH   1  14
TORSDOF 13
ENDMDL
MODEL 4
REMARK VINA RESULT: -7.246912932      0.982      1.391
REMARK  13 active torsions:
REMARK  status: ('A' for Active; 'I' for Inactive)
REMARK       I    between atoms: N1_2  and  C3_4 
REMARK    1  A    between atoms: C3_4  and  C4_6 
REMARK    2  A    between atoms: C4_6  and  C5_7 
REMARK    3  A    between atoms: C5_7  and  C6_8 
REMARK    4  A    between atoms: C6_8  and  C7_9 
REMARK    5  A    between atoms: C7_9  and  C8_10 
REMARK    6  A    between atoms: C8_10  and  C9_11 
REMARK    7  A    between atoms: C9_11  and  C10_12 
REMARK    8  A    between atoms: C10_12  and  C11_13 
REMARK    9  A    between atoms: C11_13  and  C12_14 
REMARK   10  A    between atoms: C12_14  and  C13_15 
REMARK   11  A    between atoms: C13_15  and  C14_16 
REMARK   12  A    between atoms: C14_16  and  S1_18 
REMARK   13  A    between atoms: S1_18  and  C15_19 
ROOT
HETATM    1  C11 UNL     1      30.609  31.104  14.923  1.00  0.00     0.000 C 
ENDROOT
BRANCH   1   2
HETATM    2  C10 UNL     1      31.256  32.060  15.870  1.00  0.00     0.000 C 
BRANCH   2   3
HETATM    3  C9  UNL     1      31.840  33.207  15.040  1.00  0.00     0.000 C 
BRANCH   3   4
HETATM    4  C8  UNL     1      32.506  32.616  13.789  1.00  0.00     0.004 C 
BRANCH   4   5
HETATM    5  C7  UNL     1      32.573  33.618  12.706  1.00  0.00     0.027 C 
BRANCH   5   6
HETATM    6  C6  UNL     1      31.630  34.733  12.786  1.00  0.00    -0.030 C 
BRANCH   6   7
HETATM    7  C5  UNL     1      32.031  36.134  12.856  1.00  0.00    -0.022 C 
BRANCH   7   8
HETATM    8  C4  UNL     1      32.889  36.653  13.937  1.00  0.00     0.129 C 
BRANCH   8   9
HETATM    9  C3  UNL     1      32.054  37.660  14.711  1.00  0.00     0.222 C 
HETATM   10  N1  UNL     1      32.279  39.049  14.565  1.00  0.00    -0.361 N 
HETATM   11  C1  UNL     1      33.319  39.547  13.662  1.00  0.00     0.152 C 
HETATM   12  C2  UNL     1      31.466  39.974  15.323  1.00  0.00     0.152 C 
HETATM   13  O1  UNL     1      31.170  37.231  15.474  1.00  0.00    -0.273 OA
ENDBRANCH   8   9
ENDBRANCH   7   8
ENDBRANCH   6   7
ENDBRANCH   5   6
ENDBRANCH   4   5
ENDBRANCH   3   4
ENDBRANCH   2   3
ENDBRANCH   1   2
BRANCH   1  14
HETATM   14  C12 UNL     1      29.127  31.026  15.020  1.00  0.00     0.008 C 
BRANCH  14  15
HETATM   15  C13 UNL     1      28.449  30.238  13.935  1.00  0.00     0.091 C 
BRANCH  15  16
HETATM   16  C14 UNL     1      28.968  28.867  13.777  1.00  0.00     0.186 C 
HETATM   17  O2  UNL     1      29.492  28.640  12.663  1.00  0.00    -0.285 OA
BRANCH  16  18
HETATM   18  S1  UNL     1      28.953  27.542  14.906  1.00  0.00    -0.085 SA
BRANCH  18  19
HETATM   19  C15 UNL     1      28.950  27.874  16.627  1.00  0.00     0.086 C 
HETATM   20  C16 UNL     1      28.407  26.778  17.529  1.00  0.00     0.050 C 
HETATM   21  C17 UNL     1      29.222  27.100  18.791  1.00  0.00     0.123 C 
HETATM   22  C18 UNL     1      29.015  28.523  19.224  1.00  0.00     0.034 C 
HETATM   23  O3  UNL     1      30.501  27.154  18.200  1.00  0.00    -0.379 OA
HETATM   24  C19 UNL     1      29.972  29.305  18.310  1.00  0.00     0.035 C 
HETATM   25  C20 UNL     1      30.252  28.199  17.277  1.00  0.00     0.136 C 
ENDBRANCH  18  19
ENDBRANCH  16  18
ENDBRANCH  15  16
ENDBRANCH  14  15
ENDBRANCH   1  14
TORSDOF 13
ENDMDL
MODEL 5
REMARK VINA RESULT: -7.155440661      1.677      2.187
REMARK  13 active torsions:
REMARK  status: ('A' for Active; 'I' for Inactive)
REMARK       I    between atoms: N1_2  and  C3_4 
REMARK    1  A    between atoms: C3_4  and  C4_6 
REMARK    2  A    between atoms: C4_6  and  C5_7 
REMARK    3  A    between atoms: C5_7  and  C6_8 
REMARK    4  A    between atoms: C6_8  and  C7_9 
REMARK    5  A    between atoms: C7_9  and  C8_10 
REMARK    6  A    between atoms: C8_10  and  C9_11 
REMARK    7  A    between atoms: C9_11  and  C10_12 
REMARK    8  A    between atoms: C10_12  and  C11_13 
REMARK    9  A    between atoms: C11_13  and  C12_14 
REMARK   10  A    between atoms: C12_14  and  C13_15 
REMARK   11  A    between atoms: C13_15  and  C14_16 
REMARK   12  A    between atoms: C14_16  and  S1_18 
REMARK   13  A    between atoms: S1_18  and  C15_19 
ROOT
HETATM    1  C11 UNL     1      29.607  31.988  14.814  1.00  0.00     0.000 C 
ENDROOT
BRANCH   1   2
HETATM    2  C10 UNL     1      30.767  31.966  15.754  1.00  0.00     0.000 C 
BRANCH   2   3
HETATM    3  C9  UNL     1      31.845  32.887  15.177  1.00  0.00     0.000 C 
BRANCH   3   4
HETATM    4  C8  UNL     1      32.328  32.300  13.843  1.00  0.00     0.004 C 
BRANCH   4   5
HETATM    5  C7  UNL     1      32.679  33.373  12.892  1.00  0.00     0.027 C 
BRANCH   5   6
HETATM    6  C6  UNL     1      31.672  34.411  12.676  1.00  0.00    -0.030 C 
BRANCH   6   7
HETATM    7  C5  UNL     1      31.907  35.833  12.907  1.00  0.00    -0.022 C 
BRANCH   7   8
HETATM    8  C4  UNL     1      32.822  36.318  13.956  1.00  0.00     0.129 C 
BRANCH   8   9
HETATM    9  C3  UNL     1      32.078  37.403  14.717  1.00  0.00     0.222 C 
HETATM   10  N1  UNL     1      32.352  38.770  14.479  1.00  0.00    -0.361 N 
HETATM   11  C1  UNL     1      33.357  39.170  13.491  1.00  0.00     0.152 C 
HETATM   12  C2  UNL     1      31.625  39.772  15.228  1.00  0.00     0.152 C 
HETATM   13  O1  UNL     1      31.223  37.057  15.552  1.00  0.00    -0.273 OA
ENDBRANCH   8   9
ENDBRANCH   7   8
ENDBRANCH   6   7
ENDBRANCH   5   6
ENDBRANCH   4   5
ENDBRANCH   3   4
ENDBRANCH   2   3
ENDBRANCH   1   2
BRANCH   1  14
HETATM   14  C12 UNL     1      28.554  30.972  15.088  1.00  0.00     0.008 C 
BRANCH  14  15
HETATM   15  C13 UNL     1      28.400  29.904  14.043  1.00  0.00     0.091 C 
BRANCH  15  16
HETATM   16  C14 UNL     1      29.569  29.013  13.919  1.00  0.00     0.186 C 
HETATM   17  O2  UNL     1      29.909  28.773  12.739  1.00  0.00    -0.285 OA
BRANCH  16  18
HETATM   18  S1  UNL     1      30.525  28.263  15.165  1.00  0.00    -0.085 SA
BRANCH  18  19
HETATM   19  C15 UNL     1      29.809  27.022  16.173  1.00  0.00     0.086 C 
HETATM   20  C16 UNL     1      28.755  27.479  17.168  1.00  0.00     0.050 C 
HETATM   21  C17 UNL     1      27.939  26.179  17.247  1.00  0.00     0.123 C 
HETATM   22  C18 UNL     1      28.806  25.016  17.637  1.00  0.00     0.034 C 
HETATM   23  O3  UNL     1      27.763  25.965  15.864  1.00  0.00    -0.379 OA
HETATM   24  C19 UNL     1      29.467  24.615  16.308  1.00  0.00     0.035 C 
HETATM   25  C20 UNL     1      29.128  25.880  15.498  1.00  0.00     0.136 C 
ENDBRANCH  18  19
ENDBRANCH  16  18
ENDBRANCH  15  16
ENDBRANCH  14  15
ENDBRANCH   1  14
TORSDOF 13
ENDMDL
