MODEL 1
REMARK VINA RESULT: -7.268268658      0.000      0.000
REMARK  14 active torsions:
REMARK  status: ('A' for Active; 'I' for Inactive)
REMARK    1  A    between atoms: C2_2  and  C3_3 
REMARK    2  A    between atoms: C3_3  and  C4_4 
REMARK    3  A    between atoms: C4_4  and  C5_5 
REMARK    4  A    between atoms: C5_5  and  C6_6 
REMARK    5  A    between atoms: C6_6  and  C7_7 
REMARK    6  A    between atoms: C7_7  and  C8_8 
REMARK    7  A    between atoms: C8_8  and  C9_9 
REMARK    8  A    between atoms: C9_9  and  C10_10 
REMARK    9  A    between atoms: C10_10  and  C11_11 
REMARK   10  A    between atoms: N1_15  and  C15_16 
REMARK   11  A    between atoms: C15_16  and  O1_17 
REMARK   12  A    between atoms: C15_16  and  C16_19 
REMARK   13  A    between atoms: C16_19  and  C17_21 
REMARK   14  A    between atoms: C17_21  and  S1_22 
ROOT
HETATM    1  S1  UNL     1      33.123  39.209  13.927  1.00  0.00    -0.043 SA
HETATM    2  C18 UNL     1      33.252  40.282  15.346  1.00  0.00     0.134 C 
HETATM    3  N2  UNL     1      33.316  40.977  16.266  1.00  0.00    -0.184 NA
ENDROOT
BRANCH   1   4
HETATM    4  C17 UNL     1      33.484  37.541  14.414  1.00  0.00     0.177 C 
BRANCH   4   5
HETATM    5  C16 UNL     1      32.244  36.684  14.411  1.00  0.00     0.209 C 
HETATM    6  O2  UNL     1      31.473  36.847  15.444  1.00  0.00    -0.288 OA
BRANCH   5   7
HETATM    7  C15 UNL     1      31.880  35.755  13.411  1.00  0.00     0.186 C 
BRANCH   7   8
HETATM    8  N1  UNL     1      31.596  34.405  13.532  1.00  0.00    -0.359 N 
HETATM    9  C14 UNL     1      32.538  33.332  13.436  1.00  0.00     0.125 C 
HETATM   10  C13 UNL     1      32.579  32.500  14.717  1.00  0.00     0.020 C 
HETATM   11  C12 UNL     1      31.246  32.609  15.429  1.00  0.00     0.008 C 
HETATM   12  C11 UNL     1      30.171  32.615  14.365  1.00  0.00     0.004 C 
HETATM   13  C19 UNL     1      30.171  34.037  13.801  1.00  0.00     0.129 C 
BRANCH  12  14
HETATM   14  C10 UNL     1      28.810  32.351  14.897  1.00  0.00     0.006 C 
BRANCH  14  15
HETATM   15  C9  UNL     1      28.431  30.914  15.077  1.00  0.00     0.000 C 
BRANCH  15  16
HETATM   16  C8  UNL     1      28.385  30.118  13.839  1.00  0.00     0.000 C 
BRANCH  16  17
HETATM   17  C7  UNL     1      29.242  28.886  13.818  1.00  0.00     0.000 C 
BRANCH  17  18
HETATM   18  C6  UNL     1      30.684  29.169  13.460  1.00  0.00     0.000 C 
BRANCH  18  19
HETATM   19  C5  UNL     1      31.605  28.612  14.480  1.00  0.00     0.000 C 
BRANCH  19  20
HETATM   20  C4  UNL     1      31.468  29.083  15.855  1.00  0.00     0.000 C 
BRANCH  20  21
HETATM   21  C3  UNL     1      30.931  28.180  16.880  1.00  0.00    -0.000 C 
BRANCH  21  22
HETATM   22  C2  UNL     1      29.778  28.601  17.699  1.00  0.00    -0.005 C 
HETATM   23  C1  UNL     1      30.055  30.020  18.266  1.00  0.00     0.005 C 
ENDBRANCH  21  22
ENDBRANCH  20  21
ENDBRANCH  19  20
ENDBRANCH  18  19
ENDBRANCH  17  18
ENDBRANCH  16  17
ENDBRANCH  15  16
ENDBRANCH  14  15
ENDBRANCH  12  14
ENDBRANCH   7   8
BRANCH   7  24
HETATM   24  O1  UNL     1      31.790  36.208  12.191  1.00  0.00    -0.344 OA
ATOM     25  H1  UNL     1      32.600  36.572  11.854  1.00  0.00     0.219 HD
ENDBRANCH   7  24
ENDBRANCH   5   7
ENDBRANCH   4   5
ENDBRANCH   1   4
TORSDOF 14
ENDMDL
MODEL 2
REMARK VINA RESULT: -7.181386292      1.168      2.507
REMARK  14 active torsions:
REMARK  status: ('A' for Active; 'I' for Inactive)
REMARK    1  A    between atoms: C2_2  and  C3_3 
REMARK    2  A    between atoms: C3_3  and  C4_4 
REMARK    3  A    between atoms: C4_4  and  C5_5 
REMARK    4  A    between atoms: C5_5  and  C6_6 
REMARK    5  A    between atoms: C6_6  and  C7_7 
REMARK    6  A    between atoms: C7_7  and  C8_8 
REMARK    7  A    between atoms: C8_8  and  C9_9 
REMARK    8  A    between atoms: C9_9  and  C10_10 
REMARK    9  A    between atoms: C10_10  and  C11_11 
REMARK   10  A    between atoms: N1_15  and  C15_16 
REMARK   11  A    between atoms: C15_16  and  O1_17 
REMARK   12  A    between atoms: C15_16  and  C16_19 
REMARK   13  A    between atoms: C16_19  and  C17_21 
REMARK   14  A    between atoms: C17_21  and  S1_22 
ROOT
HETATM    1  S1  UNL     1      33.598  39.466  14.802  1.00  0.00    -0.043 SA
HETATM    2  C18 UNL     1      31.880  39.787  15.161  1.00  0.00     0.134 C 
HETATM    3  N2  UNL     1      30.766  40.003  15.376  1.00  0.00    -0.184 NA
ENDROOT
BRANCH   1   4
HETATM    4  C17 UNL     1      33.805  37.750  14.398  1.00  0.00     0.177 C 
BRANCH   4   5
HETATM    5  C16 UNL     1      32.530  37.151  13.861  1.00  0.00     0.209 C 
HETATM    6  O2  UNL     1      32.135  37.650  12.729  1.00  0.00    -0.288 OA
BRANCH   5   7
HETATM    7  C15 UNL     1      31.767  36.135  14.478  1.00  0.00     0.186 C 
BRANCH   7   8
HETATM    8  N1  UNL     1      31.513  34.845  14.042  1.00  0.00    -0.359 N 
HETATM    9  C14 UNL     1      31.953  34.269  12.808  1.00  0.00     0.125 C 
HETATM   10  C13 UNL     1      32.826  33.035  13.041  1.00  0.00     0.020 C 
HETATM   11  C12 UNL     1      32.466  32.410  14.372  1.00  0.00     0.008 C 
HETATM   12  C11 UNL     1      30.965  32.523  14.527  1.00  0.00     0.004 C 
HETATM   13  C19 UNL     1      30.713  33.970  14.953  1.00  0.00     0.129 C 
BRANCH  12  14
HETATM   14  C10 UNL     1      30.412  31.646  15.590  1.00  0.00     0.006 C 
BRANCH  14  15
HETATM   15  C9  UNL     1      28.953  31.321  15.495  1.00  0.00     0.000 C 
BRANCH  15  16
HETATM   16  C8  UNL     1      28.511  30.179  16.314  1.00  0.00     0.000 C 
BRANCH  16  17
HETATM   17  C7  UNL     1      29.558  29.559  17.194  1.00  0.00     0.000 C 
BRANCH  17  18
HETATM   18  C6  UNL     1      30.040  28.216  16.692  1.00  0.00     0.000 C 
BRANCH  18  19
HETATM   19  C5  UNL     1      31.370  28.334  16.049  1.00  0.00     0.000 C 
BRANCH  19  20
HETATM   20  C4  UNL     1      31.432  28.292  14.591  1.00  0.00     0.000 C 
BRANCH  20  21
HETATM   21  C3  UNL     1      30.244  27.893  13.827  1.00  0.00    -0.000 C 
BRANCH  21  22
HETATM   22  C2  UNL     1      29.701  28.791  12.789  1.00  0.00    -0.005 C 
HETATM   23  C1  UNL     1      28.153  28.825  12.913  1.00  0.00     0.005 C 
ENDBRANCH  21  22
ENDBRANCH  20  21
ENDBRANCH  19  20
ENDBRANCH  18  19
ENDBRANCH  17  18
ENDBRANCH  16  17
ENDBRANCH  15  16
ENDBRANCH  14  15
ENDBRANCH  12  14
ENDBRANCH   7   8
BRANCH   7  24
HETATM   24  O1  UNL     1      31.215  36.426  15.622  1.00  0.00    -0.344 OA
ATOM     25  H1  UNL     1      31.164  37.357  15.801  1.00  0.00     0.219 HD
ENDBRANCH   7  24
ENDBRANCH   5   7
ENDBRANCH   4   5
ENDBRANCH   1   4
TORSDOF 14
ENDMDL
MODEL 3
REMARK VINA RESULT: -7.044241229      0.981      1.794
REMARK  14 active torsions:
REMARK  status: ('A' for Active; 'I' for Inactive)
REMARK    1  A    between atoms: C2_2  and  C3_3 
REMARK    2  A    between atoms: C3_3  and  C4_4 
REMARK    3  A    between atoms: C4_4  and  C5_5 
REMARK    4  A    between atoms: C5_5  and  C6_6 
REMARK    5  A    between atoms: C6_6  and  C7_7 
REMARK    6  A    between atoms: C7_7  and  C8_8 
REMARK    7  A    between atoms: C8_8  and  C9_9 
REMARK    8  A    between atoms: C9_9  and  C10_10 
REMARK    9  A    between atoms: C10_10  and  C11_11 
REMARK   10  A    between atoms: N1_15  and  C15_16 
REMARK   11  A    between atoms: C15_16  and  O1_17 
REMARK   12  A    between atoms: C15_16  and  C16_19 
REMARK   13  A    between atoms: C16_19  and  C17_21 
REMARK   14  A    between atoms: C17_21  and  S1_22 
ROOT
HETATM    1  S1  UNL     1      33.249  39.181  13.912  1.00  0.00    -0.043 SA
HETATM    2  C18 UNL     1      33.201  40.151  15.407  1.00  0.00     0.134 C 
HETATM    3  N2  UNL     1      33.150  40.781  16.375  1.00  0.00    -0.184 NA
ENDROOT
BRANCH   1   4
HETATM    4  C17 UNL     1      33.430  37.465  14.327  1.00  0.00     0.177 C 
BRANCH   4   5
HETATM    5  C16 UNL     1      32.313  36.636  13.745  1.00  0.00     0.209 C 
HETATM    6  O2  UNL     1      31.995  36.940  12.523  1.00  0.00    -0.288 OA
BRANCH   5   7
HETATM    7  C15 UNL     1      31.617  35.601  14.409  1.00  0.00     0.186 C 
BRANCH   7   8
HETATM    8  N1  UNL     1      31.442  34.281  14.029  1.00  0.00    -0.359 N 
HETATM    9  C14 UNL     1      32.350  33.501  13.246  1.00  0.00     0.125 C 
HETATM   10  C13 UNL     1      32.825  32.260  14.002  1.00  0.00     0.020 C 
HETATM   11  C12 UNL     1      31.780  31.864  15.024  1.00  0.00     0.008 C 
HETATM   12  C11 UNL     1      30.426  32.098  14.391  1.00  0.00     0.004 C 
HETATM   13  C19 UNL     1      30.190  33.606  14.492  1.00  0.00     0.129 C 
BRANCH  12  14
HETATM   14  C10 UNL     1      29.313  31.427  15.109  1.00  0.00     0.006 C 
BRANCH  14  15
HETATM   15  C9  UNL     1      28.710  30.232  14.439  1.00  0.00     0.000 C 
BRANCH  15  16
HETATM   16  C8  UNL     1      29.674  29.323  13.793  1.00  0.00     0.000 C 
BRANCH  16  17
HETATM   17  C7  UNL     1      29.862  27.989  14.455  1.00  0.00     0.000 C 
BRANCH  17  18
HETATM   18  C6  UNL     1      28.717  27.608  15.367  1.00  0.00     0.000 C 
BRANCH  18  19
HETATM   19  C5  UNL     1      29.216  27.008  16.627  1.00  0.00     0.000 C 
BRANCH  19  20
HETATM   20  C4  UNL     1      28.923  27.700  17.878  1.00  0.00     0.000 C 
BRANCH  20  21
HETATM   21  C3  UNL     1      28.952  29.167  17.918  1.00  0.00    -0.000 C 
BRANCH  21  22
HETATM   22  C2  UNL     1      30.055  29.862  18.609  1.00  0.00    -0.005 C 
HETATM   23  C1  UNL     1      31.368  29.639  17.810  1.00  0.00     0.005 C 
ENDBRANCH  21  22
ENDBRANCH  20  21
ENDBRANCH  19  20
ENDBRANCH  18  19
ENDBRANCH  17  18
ENDBRANCH  16  17
ENDBRANCH  15  16
ENDBRANCH  14  15
ENDBRANCH  12  14
ENDBRANCH   7   8
BRANCH   7  24
HETATM   24  O1  UNL     1      31.051  35.906  15.543  1.00  0.00    -0.344 OA
ATOM     25  H1  UNL     1      31.186  36.807  15.812  1.00  0.00     0.219 HD
ENDBRANCH   7  24
ENDBRANCH   5   7
ENDBRANCH   4   5
ENDBRANCH   1   4
TORSDOF 14
ENDMDL
MODEL 4
REMARK VINA RESULT: -6.996959352      1.808      3.187
REMARK  14 active torsions:
REMARK  status: ('A' for Active; 'I' for Inactive)
REMARK    1  A    between atoms: C2_2  and  C3_3 
REMARK    2  A    between atoms: C3_3  and  C4_4 
REMARK    3  A    between atoms: C4_4  and  C5_5 
REMARK    4  A    between atoms: C5_5  and  C6_6 
REMARK    5  A    between atoms: C6_6  and  C7_7 
REMARK    6  A    between atoms: C7_7  and  C8_8 
REMARK    7  A    between atoms: C8_8  and  C9_9 
REMARK    8  A    between atoms: C9_9  and  C10_10 
REMARK    9  A    between atoms: C10_10  and  C11_11 
REMARK   10  A    between atoms: N1_15  and  C15_16 
REMARK   11  A    between atoms: C15_16  and  O1_17 
REMARK   12  A    between atoms: C15_16  and  C16_19 
REMARK   13  A    between atoms: C16_19  and  C17_21 
REMARK   14  A    between atoms: C17_21  and  S1_22 
ROOT
HETATM    1  S1  UNL     1      33.754  40.490  15.671  1.00  0.00    -0.043 SA
HETATM    2  C18 UNL     1      33.496  42.253  15.587  1.00  0.00     0.134 C 
HETATM    3  N2  UNL     1      33.337  43.395  15.515  1.00  0.00    -0.184 NA
ENDROOT
BRANCH   1   4
HETATM    4  C17 UNL     1      32.243  39.652  15.269  1.00  0.00     0.177 C 
BRANCH   4   5
HETATM    5  C16 UNL     1      32.423  38.721  14.097  1.00  0.00     0.209 C 
HETATM    6  O2  UNL     1      32.198  39.263  12.938  1.00  0.00    -0.288 OA
BRANCH   5   7
HETATM    7  C15 UNL     1      32.798  37.361  14.169  1.00  0.00     0.186 C 
BRANCH   7   8
HETATM    8  N1  UNL     1      32.077  36.234  13.806  1.00  0.00    -0.359 N 
HETATM    9  C14 UNL     1      31.867  35.761  12.473  1.00  0.00     0.125 C 
HETATM   10  C13 UNL     1      32.413  34.345  12.283  1.00  0.00     0.020 C 
HETATM   11  C12 UNL     1      32.422  33.629  13.618  1.00  0.00     0.008 C 
HETATM   12  C11 UNL     1      31.169  34.044  14.356  1.00  0.00     0.004 C 
HETATM   13  C19 UNL     1      31.474  35.434  14.916  1.00  0.00     0.129 C 
BRANCH  12  14
HETATM   14  C10 UNL     1      30.841  33.165  15.507  1.00  0.00     0.006 C 
BRANCH  14  15
HETATM   15  C9  UNL     1      31.904  32.201  15.935  1.00  0.00     0.000 C 
BRANCH  15  16
HETATM   16  C8  UNL     1      31.421  31.029  16.685  1.00  0.00     0.000 C 
BRANCH  16  17
HETATM   17  C7  UNL     1      29.953  30.736  16.572  1.00  0.00     0.000 C 
BRANCH  17  18
HETATM   18  C6  UNL     1      29.661  29.381  15.969  1.00  0.00     0.000 C 
BRANCH  18  19
HETATM   19  C5  UNL     1      30.034  29.344  14.534  1.00  0.00     0.000 C 
BRANCH  19  20
HETATM   20  C4  UNL     1      31.066  28.398  14.120  1.00  0.00     0.000 C 
BRANCH  20  21
HETATM   21  C3  UNL     1      32.366  28.900  13.659  1.00  0.00    -0.000 C 
BRANCH  21  22
HETATM   22  C2  UNL     1      32.476  30.266  13.112  1.00  0.00    -0.005 C 
HETATM   23  C1  UNL     1      33.909  30.469  12.548  1.00  0.00     0.005 C 
ENDBRANCH  21  22
ENDBRANCH  20  21
ENDBRANCH  19  20
ENDBRANCH  18  19
ENDBRANCH  17  18
ENDBRANCH  16  17
ENDBRANCH  15  16
ENDBRANCH  14  15
ENDBRANCH  12  14
ENDBRANCH   7   8
BRANCH   7  24
HETATM   24  O1  UNL     1      33.987  37.101  14.637  1.00  0.00    -0.344 OA
ATOM     25  H1  UNL     1      33.990  36.494  15.368  1.00  0.00     0.219 HD
ENDBRANCH   7  24
ENDBRANCH   5   7
ENDBRANCH   4   5
ENDBRANCH   1   4
TORSDOF 14
ENDMDL
MODEL 5
REMARK VINA RESULT: -6.946219965      1.646      2.227
REMARK  14 active torsions:
REMARK  status: ('A' for Active; 'I' for Inactive)
REMARK    1  A    between atoms: C2_2  and  C3_3 
REMARK    2  A    between atoms: C3_3  and  C4_4 
REMARK    3  A    between atoms: C4_4  and  C5_5 
REMARK    4  A    between atoms: C5_5  and  C6_6 
REMARK    5  A    between atoms: C6_6  and  C7_7 
REMARK    6  A    between atoms: C7_7  and  C8_8 
REMARK    7  A    between atoms: C8_8  and  C9_9 
REMARK    8  A    between atoms: C9_9  and  C10_10 
REMARK    9  A    between atoms: C10_10  and  C11_11 
REMARK   10  A    between atoms: N1_15  and  C15_16 
REMARK   11  A    between atoms: C15_16  and  O1_17 
REMARK   12  A    between atoms: C15_16  and  C16_19 
REMARK   13  A    between atoms: C16_19  and  C17_21 
REMARK   14  A    between atoms: C17_21  and  S1_22 
ROOT
HETATM    1  S1  UNL     1      33.478  39.609  14.673  1.00  0.00    -0.043 SA
HETATM    2  C18 UNL     1      31.787  39.942  15.132  1.00  0.00     0.134 C 
HETATM    3  N2  UNL     1      30.687  40.161  15.411  1.00  0.00    -0.184 NA
ENDROOT
BRANCH   1   4
HETATM    4  C17 UNL     1      33.718  37.857  14.530  1.00  0.00     0.177 C 
BRANCH   4   5
HETATM    5  C16 UNL     1      32.511  37.182  13.930  1.00  0.00     0.209 C 
HETATM    6  O2  UNL     1      32.198  37.596  12.739  1.00  0.00    -0.288 OA
BRANCH   5   7
HETATM    7  C15 UNL     1      31.730  36.178  14.546  1.00  0.00     0.186 C 
BRANCH   7   8
HETATM    8  N1  UNL     1      31.490  34.879  14.132  1.00  0.00    -0.359 N 
HETATM    9  C14 UNL     1      31.754  34.345  12.831  1.00  0.00     0.125 C 
HETATM   10  C13 UNL     1      32.730  33.170  12.890  1.00  0.00     0.020 C 
HETATM   11  C12 UNL     1      32.637  32.509  14.250  1.00  0.00     0.008 C 
HETATM   12  C11 UNL     1      31.179  32.521  14.653  1.00  0.00     0.004 C 
HETATM   13  C19 UNL     1      30.910  33.944  15.145  1.00  0.00     0.129 C 
BRANCH  12  14
HETATM   14  C10 UNL     1      30.868  31.599  15.775  1.00  0.00     0.006 C 
BRANCH  14  15
HETATM   15  C9  UNL     1      29.535  30.918  15.729  1.00  0.00     0.000 C 
BRANCH  15  16
HETATM   16  C8  UNL     1      28.880  30.913  14.409  1.00  0.00     0.000 C 
BRANCH  16  17
HETATM   17  C7  UNL     1      28.691  29.565  13.776  1.00  0.00     0.000 C 
BRANCH  17  18
HETATM   18  C6  UNL     1      29.991  28.911  13.366  1.00  0.00     0.000 C 
BRANCH  18  19
HETATM   19  C5  UNL     1      30.072  27.521  13.874  1.00  0.00     0.000 C 
BRANCH  19  20
HETATM   20  C4  UNL     1      29.659  27.271  15.252  1.00  0.00     0.000 C 
BRANCH  20  21
HETATM   21  C3  UNL     1      28.910  26.050  15.574  1.00  0.00    -0.000 C 
BRANCH  21  22
HETATM   22  C2  UNL     1      29.622  24.865  16.091  1.00  0.00    -0.005 C 
HETATM   23  C1  UNL     1      30.683  25.329  17.126  1.00  0.00     0.005 C 
ENDBRANCH  21  22
ENDBRANCH  20  21
ENDBRANCH  19  20
ENDBRANCH  18  19
ENDBRANCH  17  18
ENDBRANCH  16  17
ENDBRANCH  15  16
ENDBRANCH  14  15
ENDBRANCH  12  14
ENDBRANCH   7   8
BRANCH   7  24
HETATM   24  O1  UNL     1      31.142  36.495  15.666  1.00  0.00    -0.344 OA
ATOM     25  H1  UNL     1      31.134  37.427  15.848  1.00  0.00     0.219 HD
ENDBRANCH   7  24
ENDBRANCH   5   7
ENDBRANCH   4   5
ENDBRANCH   1   4
TORSDOF 14
ENDMDL
