MODEL 1
REMARK VINA RESULT: -5.536387770      0.000      0.000
REMARK  22 active torsions:
REMARK  status: ('A' for Active; 'I' for Inactive)
REMARK    1  A    between atoms: N1_1  and  C1_5 
REMARK    2  A    between atoms: C1_5  and  C2_6 
REMARK    3  A    between atoms: C2_6  and  C3_7 
REMARK    4  A    between atoms: C3_7  and  C4_8 
REMARK    5  A    between atoms: C4_8  and  N2_9 
REMARK    6  A    between atoms: C4_8  and  C5_13 
REMARK    7  A    between atoms: C6_14  and  C7_15 
REMARK    8  A    between atoms: C7_15  and  O1_16 
REMARK    9  A    between atoms: C7_15  and  C8_18 
REMARK   10  A    between atoms: C8_18  and  C9_19 
REMARK   11  A    between atoms: C9_19  and  O2_20 
REMARK   12  A    between atoms: C10_22  and  C11_23 
REMARK   13  A    between atoms: C11_23  and  C12_24 
REMARK   14  A    between atoms: C12_24  and  C13_25 
REMARK   15  A    between atoms: C13_25  and  C14_26 
REMARK   16  A    between atoms: C15_29  and  C16_30 
REMARK   17  A    between atoms: C16_30  and  C17_31 
REMARK   18  A    between atoms: C17_31  and  C18_33 
REMARK   19  A    between atoms: C18_33  and  C19_34 
REMARK   20  A    between atoms: C18_33  and  N5_40 
REMARK   21  A    between atoms: C19_34  and  N4_35 
REMARK       I    between atoms: N5_40  and  C24_41 
REMARK   22  A    between atoms: C25_44  and  O4_45 
ROOT
HETATM    1  C12 UNL     1      53.933   2.367  43.637  1.00  0.00     0.004 C 
ENDROOT
BRANCH   1   2
HETATM    2  C11 UNL     1      54.582   1.067  43.409  1.00  0.00     0.003 C 
BRANCH   2   3
HETATM    3  C10 UNL     1      54.073   0.315  42.506  1.00  0.00     0.032 C 
HETATM    4  C9  UNL     1      54.333  -0.064  41.182  1.00  0.00     0.046 C 
BRANCH   4   5
HETATM    5  C8  UNL     1      55.242   0.658  40.275  1.00  0.00     0.100 C 
BRANCH   5   6
HETATM    6  C7  UNL     1      55.656  -0.396  39.228  1.00  0.00     0.146 C 
BRANCH   6   7
HETATM    7  C6  UNL     1      55.369  -0.078  37.827  1.00  0.00     0.003 C 
HETATM    8  C5  UNL     1      54.278   0.698  37.629  1.00  0.00     0.004 C 
BRANCH   8   9
HETATM    9  C4  UNL     1      53.877   1.100  36.257  1.00  0.00     0.206 C 
BRANCH   9  10
HETATM   10  C3  UNL     1      52.507   1.715  36.300  1.00  0.00     0.038 C 
BRANCH  10  11
HETATM   11  C2  UNL     1      51.969   2.193  35.013  1.00  0.00     0.029 C 
BRANCH  11  12
HETATM   12  C1  UNL     1      50.862   3.183  35.025  1.00  0.00     0.230 C 
BRANCH  12  13
HETATM   13  N1  UNL     1      49.761   2.603  34.244  1.00  0.00    -0.079 N 
ATOM     14  H13 UNL     1      49.270   3.290  33.672  1.00  0.00     0.274 HD
ATOM     15  H12 UNL     1      50.081   2.005  33.482  1.00  0.00     0.274 HD
ATOM     16  H11 UNL     1      49.152   2.119  34.904  1.00  0.00     0.274 HD
ENDBRANCH  12  13
ENDBRANCH  11  12
ENDBRANCH  10  11
ENDBRANCH   9  10
BRANCH   9  17
HETATM   17  N2  UNL     1      54.819   2.223  35.953  1.00  0.00    -0.072 N 
ATOM     18  H23 UNL     1      55.320   2.108  35.072  1.00  0.00     0.275 HD
ATOM     19  H22 UNL     1      54.349   3.096  35.713  1.00  0.00     0.275 HD
ATOM     20  H21 UNL     1      55.432   2.299  36.765  1.00  0.00     0.275 HD
ENDBRANCH   9  17
ENDBRANCH   8   9
ENDBRANCH   6   7
BRANCH   6  21
HETATM   21  O1  UNL     1      57.109  -0.360  39.379  1.00  0.00    -0.391 OA
ATOM     22  H1  UNL     1      57.375  -1.222  39.674  1.00  0.00     0.210 HD
ENDBRANCH   6  21
ENDBRANCH   5   6
ENDBRANCH   4   5
BRANCH   4  23
HETATM   23  O2  UNL     1      53.322  -0.785  40.492  1.00  0.00    -0.365 OA
ATOM     24  H2  UNL     1      53.487  -1.721  40.466  1.00  0.00     0.217 HD
ENDBRANCH   4  23
ENDBRANCH   2   3
ENDBRANCH   1   2
BRANCH   1  25
HETATM   25  C13 UNL     1      54.539   3.505  43.844  1.00  0.00     0.048 C 
BRANCH  25  26
HETATM   26  C14 UNL     1      55.450   3.988  42.760  1.00  0.00     0.107 A 
HETATM   27  N3  UNL     1      56.463   3.456  42.097  1.00  0.00    -0.342 N 
HETATM   28  C15 UNL     1      57.089   4.342  41.335  1.00  0.00     0.069 A 
ATOM     29  H3  UNL     1      56.732   2.474  42.163  1.00  0.00     0.167 HD
HETATM   30  C25 UNL     1      56.416   5.559  41.527  1.00  0.00     0.165 A 
HETATM   31  N8  UNL     1      55.421   5.319  42.393  1.00  0.00    -0.322 N 
ATOM     32  H8  UNL     1      54.750   6.010  42.728  1.00  0.00     0.169 HD
BRANCH  28  33
HETATM   33  C16 UNL     1      58.259   4.338  40.410  1.00  0.00     0.143 C 
BRANCH  33  34
HETATM   34  C17 UNL     1      58.456   2.984  39.929  1.00  0.00     0.169 C 
HETATM   35  O3  UNL     1      57.802   2.637  38.927  1.00  0.00    -0.294 OA
BRANCH  34  36
HETATM   36  C18 UNL     1      59.361   1.931  40.478  1.00  0.00     0.253 C 
BRANCH  36  37
HETATM   37  C19 UNL     1      60.769   2.406  40.656  1.00  0.00     0.169 C 
BRANCH  37  38
HETATM   38  N4  UNL     1      61.419   2.659  39.350  1.00  0.00    -0.387 N 
HETATM   39  C20 UNL     1      62.181   3.825  39.087  1.00  0.00     0.081 C 
HETATM   40  C21 UNL     1      62.844   3.673  37.961  1.00  0.00    -0.008 C 
HETATM   41  C22 UNL     1      62.574   2.368  37.353  1.00  0.00     0.048 C 
HETATM   42  C23 UNL     1      61.423   1.854  38.175  1.00  0.00     0.126 C 
ENDBRANCH  37  38
ENDBRANCH  36  37
BRANCH  36  43
HETATM   43  N5  UNL     1      58.851   1.318  41.569  1.00  0.00    -0.406 NA
HETATM   44  C24 UNL     1      58.404   0.765  42.508  1.00  0.00     0.270 C 
HETATM   45  N6  UNL     1      58.300   1.455  43.773  1.00  0.00    -0.053 NA
HETATM   46  N7  UNL     1      57.893  -0.585  42.545  1.00  0.00    -0.053 NA
ENDBRANCH  36  43
ENDBRANCH  34  36
ENDBRANCH  33  34
ENDBRANCH  28  33
BRANCH  30  47
HETATM   47  O4  UNL     1      56.694   6.772  40.948  1.00  0.00    -0.345 OA
ATOM     48  H4  UNL     1      57.545   7.119  40.704  1.00  0.00     0.219 HD
ENDBRANCH  30  47
ENDBRANCH  25  26
ENDBRANCH   1  25
TORSDOF 22
ENDMDL
MODEL 2
REMARK VINA RESULT: -5.511483429      2.658      6.830
REMARK  22 active torsions:
REMARK  status: ('A' for Active; 'I' for Inactive)
REMARK    1  A    between atoms: N1_1  and  C1_5 
REMARK    2  A    between atoms: C1_5  and  C2_6 
REMARK    3  A    between atoms: C2_6  and  C3_7 
REMARK    4  A    between atoms: C3_7  and  C4_8 
REMARK    5  A    between atoms: C4_8  and  N2_9 
REMARK    6  A    between atoms: C4_8  and  C5_13 
REMARK    7  A    between atoms: C6_14  and  C7_15 
REMARK    8  A    between atoms: C7_15  and  O1_16 
REMARK    9  A    between atoms: C7_15  and  C8_18 
REMARK   10  A    between atoms: C8_18  and  C9_19 
REMARK   11  A    between atoms: C9_19  and  O2_20 
REMARK   12  A    between atoms: C10_22  and  C11_23 
REMARK   13  A    between atoms: C11_23  and  C12_24 
REMARK   14  A    between atoms: C12_24  and  C13_25 
REMARK   15  A    between atoms: C13_25  and  C14_26 
REMARK   16  A    between atoms: C15_29  and  C16_30 
REMARK   17  A    between atoms: C16_30  and  C17_31 
REMARK   18  A    between atoms: C17_31  and  C18_33 
REMARK   19  A    between atoms: C18_33  and  C19_34 
REMARK   20  A    between atoms: C18_33  and  N5_40 
REMARK   21  A    between atoms: C19_34  and  N4_35 
REMARK       I    between atoms: N5_40  and  C24_41 
REMARK   22  A    between atoms: C25_44  and  O4_45 
ROOT
HETATM    1  C12 UNL     1      56.205   1.896  38.021  1.00  0.00     0.004 C 
ENDROOT
BRANCH   1   2
HETATM    2  C11 UNL     1      55.516   1.374  36.832  1.00  0.00     0.003 C 
BRANCH   2   3
HETATM    3  C10 UNL     1      54.253   1.185  36.930  1.00  0.00     0.032 C 
HETATM    4  C9  UNL     1      53.368   0.209  37.407  1.00  0.00     0.046 C 
BRANCH   4   5
HETATM    5  C8  UNL     1      53.747  -1.186  37.694  1.00  0.00     0.100 C 
BRANCH   5   6
HETATM    6  C7  UNL     1      53.803  -1.260  39.232  1.00  0.00     0.146 C 
BRANCH   6   7
HETATM    7  C6  UNL     1      54.960  -0.636  39.879  1.00  0.00     0.003 C 
HETATM    8  C5  UNL     1      54.695  -0.025  41.058  1.00  0.00     0.004 C 
BRANCH   8   9
HETATM    9  C4  UNL     1      55.779   0.643  41.822  1.00  0.00     0.206 C 
BRANCH   9  10
HETATM   10  C3  UNL     1      55.182   1.389  42.982  1.00  0.00     0.038 C 
BRANCH  10  11
HETATM   11  C2  UNL     1      53.799   1.030  43.342  1.00  0.00     0.029 C 
BRANCH  11  12
HETATM   12  C1  UNL     1      53.527   0.520  44.711  1.00  0.00     0.230 C 
BRANCH  12  13
HETATM   13  N1  UNL     1      54.788   0.611  45.459  1.00  0.00    -0.079 N 
ATOM     14  H13 UNL     1      55.118  -0.291  45.800  1.00  0.00     0.274 HD
ATOM     15  H12 UNL     1      55.591   0.828  44.868  1.00  0.00     0.274 HD
ATOM     16  H11 UNL     1      54.642   1.294  46.203  1.00  0.00     0.274 HD
ENDBRANCH  12  13
ENDBRANCH  11  12
ENDBRANCH  10  11
ENDBRANCH   9  10
BRANCH   9  17
HETATM   17  N2  UNL     1      56.522  -0.511  42.419  1.00  0.00    -0.072 N 
ATOM     18  H23 UNL     1      57.535  -0.428  42.342  1.00  0.00     0.275 HD
ATOM     19  H22 UNL     1      56.478  -0.542  43.438  1.00  0.00     0.275 HD
ATOM     20  H21 UNL     1      56.145  -1.347  41.969  1.00  0.00     0.275 HD
ENDBRANCH   9  17
ENDBRANCH   8   9
ENDBRANCH   6   7
BRANCH   6  21
HETATM   21  O1  UNL     1      52.639  -0.448  39.578  1.00  0.00    -0.391 OA
ATOM     22  H1  UNL     1      51.876  -0.914  39.257  1.00  0.00     0.210 HD
ENDBRANCH   6  21
ENDBRANCH   5   6
ENDBRANCH   4   5
BRANCH   4  23
HETATM   23  O2  UNL     1      51.991   0.353  37.087  1.00  0.00    -0.365 OA
ATOM     24  H2  UNL     1      51.848   0.647  36.195  1.00  0.00     0.217 HD
ENDBRANCH   4  23
ENDBRANCH   2   3
ENDBRANCH   1   2
BRANCH   1  25
HETATM   25  C13 UNL     1      57.433   1.632  38.377  1.00  0.00     0.048 C 
BRANCH  25  26
HETATM   26  C14 UNL     1      58.025   2.501  39.442  1.00  0.00     0.107 A 
HETATM   27  N3  UNL     1      57.544   3.424  40.257  1.00  0.00    -0.342 N 
HETATM   28  C15 UNL     1      58.500   4.060  40.920  1.00  0.00     0.069 A 
ATOM     29  H3  UNL     1      56.549   3.623  40.365  1.00  0.00     0.167 HD
HETATM   30  C25 UNL     1      59.710   3.494  40.489  1.00  0.00     0.165 A 
HETATM   31  N8  UNL     1      59.398   2.546  39.595  1.00  0.00    -0.322 N 
ATOM     32  H8  UNL     1      60.067   1.951  39.105  1.00  0.00     0.169 HD
BRANCH  28  33
HETATM   33  C16 UNL     1      58.571   5.161  41.923  1.00  0.00     0.143 C 
BRANCH  33  34
HETATM   34  C17 UNL     1      57.249   5.744  42.056  1.00  0.00     0.169 C 
HETATM   35  O3  UNL     1      57.035   6.811  41.448  1.00  0.00    -0.294 OA
BRANCH  34  36
HETATM   36  C18 UNL     1      56.084   5.224  42.830  1.00  0.00     0.253 C 
BRANCH  36  37
HETATM   37  C19 UNL     1      55.703   6.107  43.976  1.00  0.00     0.169 C 
BRANCH  37  38
HETATM   38  N4  UNL     1      54.562   5.544  44.732  1.00  0.00    -0.387 N 
HETATM   39  C20 UNL     1      53.335   6.237  44.897  1.00  0.00     0.081 C 
HETATM   40  C21 UNL     1      52.427   5.416  45.378  1.00  0.00    -0.008 C 
HETATM   41  C22 UNL     1      52.976   4.074  45.589  1.00  0.00     0.048 C 
HETATM   42  C23 UNL     1      54.453   4.290  45.398  1.00  0.00     0.126 C 
ENDBRANCH  37  38
ENDBRANCH  36  37
BRANCH  36  43
HETATM   43  N5  UNL     1      55.043   4.875  42.042  1.00  0.00    -0.406 NA
HETATM   44  C24 UNL     1      54.123   4.585  41.367  1.00  0.00     0.270 C 
HETATM   45  N6  UNL     1      54.284   3.630  40.295  1.00  0.00    -0.053 NA
HETATM   46  N7  UNL     1      52.770   5.073  41.504  1.00  0.00    -0.053 NA
ENDBRANCH  36  43
ENDBRANCH  34  36
ENDBRANCH  33  34
ENDBRANCH  28  33
BRANCH  30  47
HETATM   47  O4  UNL     1      60.981   3.821  40.894  1.00  0.00    -0.345 OA
ATOM     48  H4  UNL     1      61.774   3.822  40.371  1.00  0.00     0.219 HD
ENDBRANCH  30  47
ENDBRANCH  25  26
ENDBRANCH   1  25
TORSDOF 22
ENDMDL
MODEL 3
REMARK VINA RESULT: -5.497159664      2.692      7.097
REMARK  22 active torsions:
REMARK  status: ('A' for Active; 'I' for Inactive)
REMARK    1  A    between atoms: N1_1  and  C1_5 
REMARK    2  A    between atoms: C1_5  and  C2_6 
REMARK    3  A    between atoms: C2_6  and  C3_7 
REMARK    4  A    between atoms: C3_7  and  C4_8 
REMARK    5  A    between atoms: C4_8  and  N2_9 
REMARK    6  A    between atoms: C4_8  and  C5_13 
REMARK    7  A    between atoms: C6_14  and  C7_15 
REMARK    8  A    between atoms: C7_15  and  O1_16 
REMARK    9  A    between atoms: C7_15  and  C8_18 
REMARK   10  A    between atoms: C8_18  and  C9_19 
REMARK   11  A    between atoms: C9_19  and  O2_20 
REMARK   12  A    between atoms: C10_22  and  C11_23 
REMARK   13  A    between atoms: C11_23  and  C12_24 
REMARK   14  A    between atoms: C12_24  and  C13_25 
REMARK   15  A    between atoms: C13_25  and  C14_26 
REMARK   16  A    between atoms: C15_29  and  C16_30 
REMARK   17  A    between atoms: C16_30  and  C17_31 
REMARK   18  A    between atoms: C17_31  and  C18_33 
REMARK   19  A    between atoms: C18_33  and  C19_34 
REMARK   20  A    between atoms: C18_33  and  N5_40 
REMARK   21  A    between atoms: C19_34  and  N4_35 
REMARK       I    between atoms: N5_40  and  C24_41 
REMARK   22  A    between atoms: C25_44  and  O4_45 
ROOT
HETATM    1  C12 UNL     1      54.040  -1.173  39.231  1.00  0.00     0.004 C 
ENDROOT
BRANCH   1   2
HETATM    2  C11 UNL     1      53.161  -1.236  38.053  1.00  0.00     0.003 C 
BRANCH   2   3
HETATM    3  C10 UNL     1      52.788  -0.121  37.547  1.00  0.00     0.032 C 
HETATM    4  C9  UNL     1      53.309   0.893  36.733  1.00  0.00     0.046 C 
BRANCH   4   5
HETATM    5  C8  UNL     1      54.745   1.083  36.461  1.00  0.00     0.100 C 
BRANCH   5   6
HETATM    6  C7  UNL     1      55.364   1.363  37.845  1.00  0.00     0.146 C 
BRANCH   6   7
HETATM    7  C6  UNL     1      56.815   1.557  37.888  1.00  0.00     0.003 C 
HETATM    8  C5  UNL     1      57.503   0.584  38.532  1.00  0.00     0.004 C 
BRANCH   8   9
HETATM    9  C4  UNL     1      58.982   0.654  38.644  1.00  0.00     0.206 C 
BRANCH   9  10
HETATM   10  C3  UNL     1      59.433   2.065  38.387  1.00  0.00     0.038 C 
BRANCH  10  11
HETATM   11  C2  UNL     1      60.472   2.237  37.355  1.00  0.00     0.029 C 
BRANCH  11  12
HETATM   12  C1  UNL     1      61.831   2.664  37.774  1.00  0.00     0.230 C 
BRANCH  12  13
HETATM   13  N1  UNL     1      62.493   1.482  38.344  1.00  0.00    -0.079 N 
ATOM     14  H13 UNL     1      63.187   1.071  37.721  1.00  0.00     0.274 HD
ATOM     15  H12 UNL     1      63.125   1.708  39.112  1.00  0.00     0.274 HD
ATOM     16  H11 UNL     1      61.756   0.829  38.611  1.00  0.00     0.274 HD
ENDBRANCH  12  13
ENDBRANCH  11  12
ENDBRANCH  10  11
ENDBRANCH   9  10
BRANCH   9  17
HETATM   17  N2  UNL     1      59.216   0.411  40.102  1.00  0.00    -0.072 N 
ATOM     18  H23 UNL     1      58.727   1.069  40.709  1.00  0.00     0.275 HD
ATOM     19  H22 UNL     1      58.766  -0.436  40.451  1.00  0.00     0.275 HD
ATOM     20  H21 UNL     1      60.229   0.415  40.226  1.00  0.00     0.275 HD
ENDBRANCH   9  17
ENDBRANCH   8   9
ENDBRANCH   6   7
BRANCH   6  21
HETATM   21  O1  UNL     1      54.757   2.657  38.148  1.00  0.00    -0.391 OA
ATOM     22  H1  UNL     1      55.419   3.171  38.595  1.00  0.00     0.210 HD
ENDBRANCH   6  21
ENDBRANCH   5   6
ENDBRANCH   4   5
BRANCH   4  23
HETATM   23  O2  UNL     1      52.560   2.095  36.614  1.00  0.00    -0.365 OA
ATOM     24  H2  UNL     1      51.621   1.947  36.621  1.00  0.00     0.217 HD
ENDBRANCH   4  23
ENDBRANCH   2   3
ENDBRANCH   1   2
BRANCH   1  25
HETATM   25  C13 UNL     1      53.706  -0.744  40.418  1.00  0.00     0.048 C 
BRANCH  25  26
HETATM   26  C14 UNL     1      54.660   0.195  41.086  1.00  0.00     0.107 A 
HETATM   27  N3  UNL     1      54.805   1.509  41.103  1.00  0.00    -0.342 N 
HETATM   28  C15 UNL     1      55.923   1.886  41.709  1.00  0.00     0.069 A 
ATOM     29  H3  UNL     1      54.132   2.160  40.697  1.00  0.00     0.167 HD
HETATM   30  C25 UNL     1      56.557   0.703  42.118  1.00  0.00     0.165 A 
HETATM   31  N8  UNL     1      55.770  -0.312  41.734  1.00  0.00    -0.322 N 
ATOM     32  H8  UNL     1      55.959  -1.301  41.894  1.00  0.00     0.169 HD
BRANCH  28  33
HETATM   33  C16 UNL     1      56.607   3.176  42.011  1.00  0.00     0.143 C 
BRANCH  33  34
HETATM   34  C17 UNL     1      55.709   4.261  41.663  1.00  0.00     0.169 C 
HETATM   35  O3  UNL     1      55.479   4.441  40.452  1.00  0.00    -0.294 OA
BRANCH  34  36
HETATM   36  C18 UNL     1      55.002   5.204  42.579  1.00  0.00     0.253 C 
BRANCH  36  37
HETATM   37  C19 UNL     1      53.965   4.533  43.422  1.00  0.00     0.169 C 
BRANCH  37  38
HETATM   38  N4  UNL     1      52.599   4.908  42.993  1.00  0.00    -0.387 N 
HETATM   39  C20 UNL     1      51.476   4.826  43.856  1.00  0.00     0.081 C 
HETATM   40  C21 UNL     1      50.456   5.452  43.310  1.00  0.00    -0.008 C 
HETATM   41  C22 UNL     1      50.809   6.016  42.005  1.00  0.00     0.048 C 
HETATM   42  C23 UNL     1      52.152   5.395  41.732  1.00  0.00     0.126 C 
ENDBRANCH  37  38
ENDBRANCH  36  37
BRANCH  36  43
HETATM   43  N5  UNL     1      55.850   5.989  43.281  1.00  0.00    -0.406 NA
HETATM   44  C24 UNL     1      56.598   6.654  43.900  1.00  0.00     0.270 C 
HETATM   45  N6  UNL     1      56.534   8.094  43.808  1.00  0.00    -0.053 NA
HETATM   46  N7  UNL     1      57.612   6.181  44.815  1.00  0.00    -0.053 NA
ENDBRANCH  36  43
ENDBRANCH  34  36
ENDBRANCH  33  34
ENDBRANCH  28  33
BRANCH  30  47
HETATM   47  O4  UNL     1      57.747   0.577  42.791  1.00  0.00    -0.345 OA
ATOM     48  H4  UNL     1      58.015  -0.126  43.372  1.00  0.00     0.219 HD
ENDBRANCH  30  47
ENDBRANCH  25  26
ENDBRANCH   1  25
TORSDOF 22
ENDMDL
MODEL 4
REMARK VINA RESULT: -5.478189351      2.972      5.588
REMARK  22 active torsions:
REMARK  status: ('A' for Active; 'I' for Inactive)
REMARK    1  A    between atoms: N1_1  and  C1_5 
REMARK    2  A    between atoms: C1_5  and  C2_6 
REMARK    3  A    between atoms: C2_6  and  C3_7 
REMARK    4  A    between atoms: C3_7  and  C4_8 
REMARK    5  A    between atoms: C4_8  and  N2_9 
REMARK    6  A    between atoms: C4_8  and  C5_13 
REMARK    7  A    between atoms: C6_14  and  C7_15 
REMARK    8  A    between atoms: C7_15  and  O1_16 
REMARK    9  A    between atoms: C7_15  and  C8_18 
REMARK   10  A    between atoms: C8_18  and  C9_19 
REMARK   11  A    between atoms: C9_19  and  O2_20 
REMARK   12  A    between atoms: C10_22  and  C11_23 
REMARK   13  A    between atoms: C11_23  and  C12_24 
REMARK   14  A    between atoms: C12_24  and  C13_25 
REMARK   15  A    between atoms: C13_25  and  C14_26 
REMARK   16  A    between atoms: C15_29  and  C16_30 
REMARK   17  A    between atoms: C16_30  and  C17_31 
REMARK   18  A    between atoms: C17_31  and  C18_33 
REMARK   19  A    between atoms: C18_33  and  C19_34 
REMARK   20  A    between atoms: C18_33  and  N5_40 
REMARK   21  A    between atoms: C19_34  and  N4_35 
REMARK       I    between atoms: N5_40  and  C24_41 
REMARK   22  A    between atoms: C25_44  and  O4_45 
ROOT
HETATM    1  C12 UNL     1      54.943   2.653  38.039  1.00  0.00     0.004 C 
ENDROOT
BRANCH   1   2
HETATM    2  C11 UNL     1      54.050   1.929  37.121  1.00  0.00     0.003 C 
BRANCH   2   3
HETATM    3  C10 UNL     1      53.453   0.897  37.587  1.00  0.00     0.032 C 
HETATM    4  C9  UNL     1      53.744  -0.438  37.899  1.00  0.00     0.046 C 
BRANCH   4   5
HETATM    5  C8  UNL     1      54.929  -1.164  37.411  1.00  0.00     0.100 C 
BRANCH   5   6
HETATM    6  C7  UNL     1      55.932  -1.090  38.579  1.00  0.00     0.146 C 
BRANCH   6   7
HETATM    7  C6  UNL     1      56.979  -0.068  38.483  1.00  0.00     0.003 C 
HETATM    8  C5  UNL     1      58.112  -0.345  39.170  1.00  0.00     0.004 C 
BRANCH   8   9
HETATM    9  C4  UNL     1      59.255   0.603  39.153  1.00  0.00     0.206 C 
BRANCH   9  10
HETATM   10  C3  UNL     1      58.861   1.840  38.396  1.00  0.00     0.038 C 
BRANCH  10  11
HETATM   11  C2  UNL     1      59.851   2.356  37.433  1.00  0.00     0.029 C 
BRANCH  11  12
HETATM   12  C1  UNL     1      61.288   2.050  37.654  1.00  0.00     0.230 C 
BRANCH  12  13
HETATM   13  N1  UNL     1      61.813   3.089  38.551  1.00  0.00    -0.079 N 
ATOM     14  H13 UNL     1      62.382   3.785  38.070  1.00  0.00     0.274 HD
ATOM     15  H12 UNL     1      61.092   3.724  38.894  1.00  0.00     0.274 HD
ATOM     16  H11 UNL     1      62.312   2.609  39.300  1.00  0.00     0.274 HD
ENDBRANCH  12  13
ENDBRANCH  11  12
ENDBRANCH  10  11
ENDBRANCH   9  10
BRANCH   9  17
HETATM   17  N2  UNL     1      59.363   1.018  40.586  1.00  0.00    -0.072 N 
ATOM     18  H23 UNL     1      60.283   1.379  40.839  1.00  0.00     0.275 HD
ATOM     19  H22 UNL     1      58.835   1.864  40.807  1.00  0.00     0.275 HD
ATOM     20  H21 UNL     1      59.078   0.206  41.134  1.00  0.00     0.275 HD
ENDBRANCH   9  17
ENDBRANCH   8   9
ENDBRANCH   6   7
BRANCH   6  21
HETATM   21  O1  UNL     1      55.044  -0.680  39.665  1.00  0.00    -0.391 OA
ATOM     22  H1  UNL     1      54.598  -1.464  39.963  1.00  0.00     0.210 HD
ENDBRANCH   6  21
ENDBRANCH   5   6
ENDBRANCH   4   5
BRANCH   4  23
HETATM   23  O2  UNL     1      52.653  -1.298  38.201  1.00  0.00    -0.365 OA
ATOM     24  H2  UNL     1      52.085  -0.951  38.879  1.00  0.00     0.217 HD
ENDBRANCH   4  23
ENDBRANCH   2   3
ENDBRANCH   1   2
BRANCH   1  25
HETATM   25  C13 UNL     1      54.770   2.801  39.324  1.00  0.00     0.048 C 
BRANCH  25  26
HETATM   26  C14 UNL     1      55.799   3.609  40.051  1.00  0.00     0.107 A 
HETATM   27  N3  UNL     1      56.781   3.319  40.887  1.00  0.00    -0.342 N 
HETATM   28  C15 UNL     1      57.326   4.404  41.421  1.00  0.00     0.069 A 
ATOM     29  H3  UNL     1      57.085   2.368  41.099  1.00  0.00     0.167 HD
HETATM   30  C25 UNL     1      56.629   5.493  40.877  1.00  0.00     0.165 A 
HETATM   31  N8  UNL     1      55.708   4.987  40.044  1.00  0.00    -0.322 N 
ATOM     32  H8  UNL     1      55.046   5.533  39.492  1.00  0.00     0.169 HD
BRANCH  28  33
HETATM   33  C16 UNL     1      58.413   4.698  42.399  1.00  0.00     0.143 C 
BRANCH  33  34
HETATM   34  C17 UNL     1      59.651   4.881  41.664  1.00  0.00     0.169 C 
HETATM   35  O3  UNL     1      59.926   4.032  40.795  1.00  0.00    -0.294 OA
BRANCH  34  36
HETATM   36  C18 UNL     1      60.656   5.976  41.807  1.00  0.00     0.253 C 
BRANCH  36  37
HETATM   37  C19 UNL     1      61.583   6.073  40.637  1.00  0.00     0.169 C 
BRANCH  37  38
HETATM   38  N4  UNL     1      62.645   7.076  40.876  1.00  0.00    -0.387 N 
HETATM   39  C20 UNL     1      62.914   8.137  39.972  1.00  0.00     0.081 C 
HETATM   40  C21 UNL     1      63.715   9.009  40.544  1.00  0.00    -0.008 C 
HETATM   41  C22 UNL     1      64.067   8.601  41.907  1.00  0.00     0.048 C 
HETATM   42  C23 UNL     1      63.549   7.189  41.971  1.00  0.00     0.126 C 
ENDBRANCH  37  38
ENDBRANCH  36  37
BRANCH  36  43
HETATM   43  N5  UNL     1      60.100   7.156  42.160  1.00  0.00    -0.406 NA
HETATM   44  C24 UNL     1      59.633   8.195  42.458  1.00  0.00     0.270 C 
HETATM   45  N6  UNL     1      58.404   8.245  43.217  1.00  0.00    -0.053 NA
HETATM   46  N7  UNL     1      60.182   9.498  42.166  1.00  0.00    -0.053 NA
ENDBRANCH  36  43
ENDBRANCH  34  36
ENDBRANCH  33  34
ENDBRANCH  28  33
BRANCH  30  47
HETATM   47  O4  UNL     1      56.832   6.828  41.124  1.00  0.00    -0.345 OA
ATOM     48  H4  UNL     1      57.470   7.404  40.718  1.00  0.00     0.219 HD
ENDBRANCH  30  47
ENDBRANCH  25  26
ENDBRANCH   1  25
TORSDOF 22
ENDMDL
MODEL 5
REMARK VINA RESULT: -5.476853912      3.263      7.747
REMARK  22 active torsions:
REMARK  status: ('A' for Active; 'I' for Inactive)
REMARK    1  A    between atoms: N1_1  and  C1_5 
REMARK    2  A    between atoms: C1_5  and  C2_6 
REMARK    3  A    between atoms: C2_6  and  C3_7 
REMARK    4  A    between atoms: C3_7  and  C4_8 
REMARK    5  A    between atoms: C4_8  and  N2_9 
REMARK    6  A    between atoms: C4_8  and  C5_13 
REMARK    7  A    between atoms: C6_14  and  C7_15 
REMARK    8  A    between atoms: C7_15  and  O1_16 
REMARK    9  A    between atoms: C7_15  and  C8_18 
REMARK   10  A    between atoms: C8_18  and  C9_19 
REMARK   11  A    between atoms: C9_19  and  O2_20 
REMARK   12  A    between atoms: C10_22  and  C11_23 
REMARK   13  A    between atoms: C11_23  and  C12_24 
REMARK   14  A    between atoms: C12_24  and  C13_25 
REMARK   15  A    between atoms: C13_25  and  C14_26 
REMARK   16  A    between atoms: C15_29  and  C16_30 
REMARK   17  A    between atoms: C16_30  and  C17_31 
REMARK   18  A    between atoms: C17_31  and  C18_33 
REMARK   19  A    between atoms: C18_33  and  C19_34 
REMARK   20  A    between atoms: C18_33  and  N5_40 
REMARK   21  A    between atoms: C19_34  and  N4_35 
REMARK       I    between atoms: N5_40  and  C24_41 
REMARK   22  A    between atoms: C25_44  and  O4_45 
ROOT
HETATM    1  C12 UNL     1      54.800   2.902  38.337  1.00  0.00     0.004 C 
ENDROOT
BRANCH   1   2
HETATM    2  C11 UNL     1      54.326   2.074  37.218  1.00  0.00     0.003 C 
BRANCH   2   3
HETATM    3  C10 UNL     1      53.557   1.092  37.509  1.00  0.00     0.032 C 
HETATM    4  C9  UNL     1      53.639  -0.297  37.673  1.00  0.00     0.046 C 
BRANCH   4   5
HETATM    5  C8  UNL     1      54.756  -1.125  37.187  1.00  0.00     0.100 C 
BRANCH   5   6
HETATM    6  C7  UNL     1      55.707  -1.236  38.395  1.00  0.00     0.146 C 
BRANCH   6   7
HETATM    7  C6  UNL     1      56.805  -0.268  38.459  1.00  0.00     0.003 C 
HETATM    8  C5  UNL     1      57.354  -0.107  39.686  1.00  0.00     0.004 C 
BRANCH   8   9
HETATM    9  C4  UNL     1      58.480   0.840  39.889  1.00  0.00     0.206 C 
BRANCH   9  10
HETATM   10  C3  UNL     1      58.390   1.944  38.873  1.00  0.00     0.038 C 
BRANCH  10  11
HETATM   11  C2  UNL     1      59.589   2.164  38.045  1.00  0.00     0.029 C 
BRANCH  11  12
HETATM   12  C1  UNL     1      60.634   1.109  38.006  1.00  0.00     0.230 C 
BRANCH  12  13
HETATM   13  N1  UNL     1      61.508   1.416  36.865  1.00  0.00    -0.079 N 
ATOM     14  H13 UNL     1      61.680   2.414  36.749  1.00  0.00     0.274 HD
ATOM     15  H12 UNL     1      62.476   1.132  37.013  1.00  0.00     0.274 HD
ATOM     16  H11 UNL     1      61.085   0.983  36.043  1.00  0.00     0.274 HD
ENDBRANCH  12  13
ENDBRANCH  11  12
ENDBRANCH  10  11
ENDBRANCH   9  10
BRANCH   9  17
HETATM   17  N2  UNL     1      58.150   1.469  41.206  1.00  0.00    -0.072 N 
ATOM     18  H23 UNL     1      57.940   2.465  41.140  1.00  0.00     0.275 HD
ATOM     19  H22 UNL     1      57.247   1.179  41.582  1.00  0.00     0.275 HD
ATOM     20  H21 UNL     1      58.936   1.257  41.821  1.00  0.00     0.275 HD
ENDBRANCH   9  17
ENDBRANCH   8   9
ENDBRANCH   6   7
BRANCH   6  21
HETATM   21  O1  UNL     1      54.790  -0.904  39.483  1.00  0.00    -0.391 OA
ATOM     22  H1  UNL     1      53.994  -0.578  39.080  1.00  0.00     0.210 HD
ENDBRANCH   6  21
ENDBRANCH   5   6
ENDBRANCH   4   5
BRANCH   4  23
HETATM   23  O2  UNL     1      52.422  -1.021  37.786  1.00  0.00    -0.365 OA
ATOM     24  H2  UNL     1      52.108  -1.350  36.952  1.00  0.00     0.217 HD
ENDBRANCH   4  23
ENDBRANCH   2   3
ENDBRANCH   1   2
BRANCH   1  25
HETATM   25  C13 UNL     1      54.798   2.567  39.599  1.00  0.00     0.048 C 
BRANCH  25  26
HETATM   26  C14 UNL     1      55.304   3.589  40.567  1.00  0.00     0.107 A 
HETATM   27  N3  UNL     1      55.219   3.745  41.877  1.00  0.00    -0.342 N 
HETATM   28  C15 UNL     1      55.685   4.920  42.277  1.00  0.00     0.069 A 
ATOM     29  H3  UNL     1      54.839   3.040  42.510  1.00  0.00     0.167 HD
HETATM   30  C25 UNL     1      56.108   5.583  41.115  1.00  0.00     0.165 A 
HETATM   31  N8  UNL     1      55.872   4.754  40.088  1.00  0.00    -0.322 N 
ATOM     32  H8  UNL     1      56.078   4.952  39.109  1.00  0.00     0.169 HD
BRANCH  28  33
HETATM   33  C16 UNL     1      55.832   5.640  43.575  1.00  0.00     0.143 C 
BRANCH  33  34
HETATM   34  C17 UNL     1      54.694   5.309  44.412  1.00  0.00     0.169 C 
HETATM   35  O3  UNL     1      54.764   4.255  45.074  1.00  0.00    -0.294 OA
BRANCH  34  36
HETATM   36  C18 UNL     1      53.428   6.078  44.597  1.00  0.00     0.253 C 
BRANCH  36  37
HETATM   37  C19 UNL     1      53.664   7.511  44.957  1.00  0.00     0.169 C 
BRANCH  37  38
HETATM   38  N4  UNL     1      52.543   8.055  45.757  1.00  0.00    -0.387 N 
HETATM   39  C20 UNL     1      52.331   9.447  45.932  1.00  0.00     0.081 C 
HETATM   40  C21 UNL     1      51.143   9.648  46.459  1.00  0.00    -0.008 C 
HETATM   41  C22 UNL     1      50.440   8.384  46.695  1.00  0.00     0.048 C 
HETATM   42  C23 UNL     1      51.519   7.361  46.462  1.00  0.00     0.126 C 
ENDBRANCH  37  38
ENDBRANCH  36  37
BRANCH  36  43
HETATM   43  N5  UNL     1      52.557   5.909  43.579  1.00  0.00    -0.406 NA
HETATM   44  C24 UNL     1      51.782   5.754  42.706  1.00  0.00     0.270 C 
HETATM   45  N6  UNL     1      52.172   6.008  41.338  1.00  0.00    -0.053 NA
HETATM   46  N7  UNL     1      50.420   5.291  42.839  1.00  0.00    -0.053 NA
ENDBRANCH  36  43
ENDBRANCH  34  36
ENDBRANCH  33  34
ENDBRANCH  28  33
BRANCH  30  47
HETATM   47  O4  UNL     1      56.667   6.833  41.017  1.00  0.00    -0.345 OA
ATOM     48  H4  UNL     1      57.475   7.076  40.581  1.00  0.00     0.219 HD
ENDBRANCH  30  47
ENDBRANCH  25  26
ENDBRANCH   1  25
TORSDOF 22
ENDMDL
