MODEL 1
REMARK VINA RESULT: -5.417343316      0.000      0.000
REMARK  19 active torsions:
REMARK  status: ('A' for Active; 'I' for Inactive)
REMARK    1  A    between atoms: C2_2  and  O1_3 
REMARK    2  A    between atoms: O1_3  and  C3_4 
REMARK    3  A    between atoms: C3_4  and  C4_6 
REMARK    4  A    between atoms: C4_6  and  N1_8 
REMARK    5  A    between atoms: N1_8  and  C6_10 
REMARK    6  A    between atoms: C6_10  and  O3_11 
REMARK    7  A    between atoms: C6_10  and  C7_13 
REMARK    8  A    between atoms: C7_13  and  O4_14 
REMARK    9  A    between atoms: C7_13  and  N2_16 
REMARK   10  A    between atoms: N2_16  and  C8_18 
REMARK   11  A    between atoms: C8_18  and  C9_19 
REMARK   12  A    between atoms: C8_18  and  C13_27 
REMARK   13  A    between atoms: C10_20  and  C11_21 
REMARK   14  A    between atoms: C11_21  and  N3_22 
REMARK   15  A    between atoms: C13_27  and  N6_29 
REMARK       I    between atoms: N6_29  and  C15_31 
REMARK   16  A    between atoms: C15_31  and  C16_33 
REMARK   17  A    between atoms: C16_33  and  N7_34 
REMARK   18  A    between atoms: C16_33  and  C17_38 
REMARK   19  A    between atoms: C17_38  and  C18_39 
ROOT
HETATM    1  C8  UNL     1      55.332   0.296  40.852  1.00  0.00     0.033 C 
ENDROOT
BRANCH   1   2
HETATM    2  N2  UNL     1      54.891   1.622  41.220  1.00  0.00    -0.335 N 
ATOM      3  H2  UNL     1      54.598   1.686  42.195  1.00  0.00     0.168 HD
BRANCH   2   4
HETATM    4  C7  UNL     1      54.782   2.773  40.575  1.00  0.00     0.192 C 
BRANCH   4   5
HETATM    5  C6  UNL     1      54.585   4.154  40.917  1.00  0.00     0.193 C 
BRANCH   5   6
HETATM    6  N1  UNL     1      55.524   5.217  40.858  1.00  0.00    -0.332 N 
ATOM      7  H1  UNL     1      55.410   5.863  40.077  1.00  0.00     0.168 HD
BRANCH   6   8
HETATM    8  C4  UNL     1      56.575   5.498  41.719  1.00  0.00     0.083 C 
HETATM    9  C5  UNL     1      57.508   6.659  41.461  1.00  0.00     0.075 C 
BRANCH   8  10
HETATM   10  C3  UNL     1      57.345   4.325  42.214  1.00  0.00     0.305 C 
HETATM   11  O2  UNL     1      57.204   3.980  43.441  1.00  0.00    -0.258 OA
BRANCH  10  12
HETATM   12  O1  UNL     1      58.167   3.622  41.348  1.00  0.00    -0.317 OA
BRANCH  12  13
HETATM   13  C2  UNL     1      59.510   3.390  41.641  1.00  0.00     0.175 C 
HETATM   14  C1  UNL     1      60.388   4.405  40.940  1.00  0.00     0.034 C 
ENDBRANCH  12  13
ENDBRANCH  10  12
ENDBRANCH   8  10
ENDBRANCH   6   8
ENDBRANCH   5   6
BRANCH   5  15
HETATM   15  O3  UNL     1      53.433   4.606  41.357  1.00  0.00    -0.343 OA
ATOM     16  H3  UNL     1      52.747   4.389  40.736  1.00  0.00     0.219 HD
ENDBRANCH   5  15
ENDBRANCH   4   5
BRANCH   4  17
HETATM   17  O4  UNL     1      55.864   2.871  39.550  1.00  0.00    -0.343 OA
ATOM     18  H4  UNL     1      55.406   2.600  38.763  1.00  0.00     0.219 HD
ENDBRANCH   4  17
ENDBRANCH   2   4
ENDBRANCH   1   2
BRANCH   1  19
HETATM   19  C9  UNL     1      54.373  -0.270  39.907  1.00  0.00     0.025 C 
HETATM   20  C10 UNL     1      54.415  -1.257  38.891  1.00  0.00    -0.005 C 
BRANCH  20  21
HETATM   21  C11 UNL     1      55.169  -1.040  37.619  1.00  0.00     0.149 C 
BRANCH  21  22
HETATM   22  N3  UNL     1      54.378  -0.289  36.630  1.00  0.00    -0.363 N 
HETATM   23  C12 UNL     1      54.745   0.942  36.432  1.00  0.00     0.197 C 
HETATM   24  N4  UNL     1      54.056   1.761  35.496  1.00  0.00    -0.067 NA
HETATM   25  N5  UNL     1      55.872   1.509  37.099  1.00  0.00    -0.067 NA
ATOM     26  H3  UNL     1      53.592  -0.707  36.132  1.00  0.00     0.162 HD
ENDBRANCH  21  22
ENDBRANCH  20  21
ENDBRANCH   1  19
BRANCH   1  27
HETATM   27  C13 UNL     1      56.672  -0.035  41.265  1.00  0.00     0.130 C 
HETATM   28  C14 UNL     1      57.110   0.497  42.651  1.00  0.00     0.039 C 
BRANCH  27  29
HETATM   29  N6  UNL     1      57.642   0.657  40.370  1.00  0.00    -0.350 N 
HETATM   30  C15 UNL     1      58.371   0.079  39.346  1.00  0.00     0.248 C 
HETATM   31  O5  UNL     1      58.274  -1.139  39.092  1.00  0.00    -0.271 OA
ATOM     32  H6  UNL     1      57.782   1.654  40.528  1.00  0.00     0.163 HD
BRANCH  30  33
HETATM   33  C16 UNL     1      59.329   0.840  38.470  1.00  0.00     0.275 C 
BRANCH  33  34
HETATM   34  N7  UNL     1      58.733   2.185  38.476  1.00  0.00    -0.066 N 
ATOM     35  H73 UNL     1      58.667   2.628  39.393  1.00  0.00     0.275 HD
ATOM     36  H72 UNL     1      59.308   2.917  38.059  1.00  0.00     0.275 HD
ATOM     37  H71 UNL     1      57.841   2.017  38.011  1.00  0.00     0.275 HD
ENDBRANCH  33  34
BRANCH  33  38
HETATM   38  C17 UNL     1      60.707   1.017  39.003  1.00  0.00     0.047 C 
BRANCH  38  39
HETATM   39  C18 UNL     1      61.625   1.955  38.348  1.00  0.00    -0.012 C 
HETATM   40  C19 UNL     1      61.974   1.437  36.965  1.00  0.00     0.005 C 
HETATM   41  C20 UNL     1      63.366   1.844  36.516  1.00  0.00     0.000 C 
HETATM   42  C21 UNL     1      63.675   3.295  36.846  1.00  0.00     0.000 C 
HETATM   43  C22 UNL     1      63.330   3.686  38.238  1.00  0.00     0.000 C 
HETATM   44  C23 UNL     1      62.875   2.402  38.990  1.00  0.00     0.005 C 
ENDBRANCH  38  39
ENDBRANCH  33  38
ENDBRANCH  30  33
ENDBRANCH  27  29
ENDBRANCH   1  27
TORSDOF 19
ENDMDL
MODEL 2
REMARK VINA RESULT: -5.357245387      2.186      3.801
REMARK  19 active torsions:
REMARK  status: ('A' for Active; 'I' for Inactive)
REMARK    1  A    between atoms: C2_2  and  O1_3 
REMARK    2  A    between atoms: O1_3  and  C3_4 
REMARK    3  A    between atoms: C3_4  and  C4_6 
REMARK    4  A    between atoms: C4_6  and  N1_8 
REMARK    5  A    between atoms: N1_8  and  C6_10 
REMARK    6  A    between atoms: C6_10  and  O3_11 
REMARK    7  A    between atoms: C6_10  and  C7_13 
REMARK    8  A    between atoms: C7_13  and  O4_14 
REMARK    9  A    between atoms: C7_13  and  N2_16 
REMARK   10  A    between atoms: N2_16  and  C8_18 
REMARK   11  A    between atoms: C8_18  and  C9_19 
REMARK   12  A    between atoms: C8_18  and  C13_27 
REMARK   13  A    between atoms: C10_20  and  C11_21 
REMARK   14  A    between atoms: C11_21  and  N3_22 
REMARK   15  A    between atoms: C13_27  and  N6_29 
REMARK       I    between atoms: N6_29  and  C15_31 
REMARK   16  A    between atoms: C15_31  and  C16_33 
REMARK   17  A    between atoms: C16_33  and  N7_34 
REMARK   18  A    between atoms: C16_33  and  C17_38 
REMARK   19  A    between atoms: C17_38  and  C18_39 
ROOT
HETATM    1  C8  UNL     1      56.335   0.496  40.172  1.00  0.00     0.033 C 
ENDROOT
BRANCH   1   2
HETATM    2  N2  UNL     1      55.968   1.851  39.827  1.00  0.00    -0.335 N 
ATOM      3  H2  UNL     1      56.501   2.217  39.038  1.00  0.00     0.168 HD
BRANCH   2   4
HETATM    4  C7  UNL     1      55.094   2.723  40.305  1.00  0.00     0.192 C 
BRANCH   4   5
HETATM    5  C6  UNL     1      55.108   3.830  41.219  1.00  0.00     0.193 C 
BRANCH   5   6
HETATM    6  N1  UNL     1      54.098   4.803  41.437  1.00  0.00    -0.332 N 
ATOM      7  H1  UNL     1      54.022   5.528  40.723  1.00  0.00     0.168 HD
BRANCH   6   8
HETATM    8  C4  UNL     1      53.198   4.902  42.488  1.00  0.00     0.083 C 
HETATM    9  C5  UNL     1      53.033   3.776  43.484  1.00  0.00     0.075 C 
BRANCH   8  10
HETATM   10  C3  UNL     1      51.871   5.491  42.161  1.00  0.00     0.305 C 
HETATM   11  O2  UNL     1      51.801   6.328  41.191  1.00  0.00    -0.258 OA
BRANCH  10  12
HETATM   12  O1  UNL     1      50.750   5.110  42.880  1.00  0.00    -0.317 OA
BRANCH  12  13
HETATM   13  C2  UNL     1      49.564   5.841  42.827  1.00  0.00     0.175 C 
HETATM   14  C1  UNL     1      48.416   5.027  43.384  1.00  0.00     0.034 C 
ENDBRANCH  12  13
ENDBRANCH  10  12
ENDBRANCH   8  10
ENDBRANCH   6   8
ENDBRANCH   5   6
BRANCH   5  15
HETATM   15  O3  UNL     1      56.135   4.078  42.000  1.00  0.00    -0.343 OA
ATOM     16  H3  UNL     1      55.828   4.286  42.874  1.00  0.00     0.219 HD
ENDBRANCH   5  15
ENDBRANCH   4   5
BRANCH   4  17
HETATM   17  O4  UNL     1      54.278   3.274  39.181  1.00  0.00    -0.343 OA
ATOM     18  H4  UNL     1      54.491   2.671  38.479  1.00  0.00     0.219 HD
ENDBRANCH   4  17
ENDBRANCH   2   4
ENDBRANCH   1   2
BRANCH   1  19
HETATM   19  C9  UNL     1      55.364  -0.417  39.577  1.00  0.00     0.025 C 
HETATM   20  C10 UNL     1      55.188  -1.019  38.305  1.00  0.00    -0.005 C 
BRANCH  20  21
HETATM   21  C11 UNL     1      54.802  -0.215  37.106  1.00  0.00     0.149 C 
BRANCH  21  22
HETATM   22  N3  UNL     1      53.410   0.260  37.184  1.00  0.00    -0.363 N 
HETATM   23  C12 UNL     1      53.097   1.223  36.371  1.00  0.00     0.197 C 
HETATM   24  N4  UNL     1      51.779   1.758  36.356  1.00  0.00    -0.067 NA
HETATM   25  N5  UNL     1      54.032   1.751  35.432  1.00  0.00    -0.067 NA
ATOM     26  H3  UNL     1      52.735  -0.142  37.835  1.00  0.00     0.162 HD
ENDBRANCH  21  22
ENDBRANCH  20  21
ENDBRANCH   1  19
BRANCH   1  27
HETATM   27  C13 UNL     1      57.643   0.352  40.759  1.00  0.00     0.130 C 
HETATM   28  C14 UNL     1      57.825   0.947  42.176  1.00  0.00     0.039 C 
BRANCH  27  29
HETATM   29  N6  UNL     1      58.619   1.163  39.978  1.00  0.00    -0.350 N 
HETATM   30  C15 UNL     1      59.355   0.736  38.888  1.00  0.00     0.248 C 
HETATM   31  O5  UNL     1      59.261  -0.434  38.463  1.00  0.00    -0.271 OA
ATOM     32  H6  UNL     1      58.757   2.128  40.276  1.00  0.00     0.163 HD
BRANCH  30  33
HETATM   33  C16 UNL     1      60.319   1.613  38.135  1.00  0.00     0.275 C 
BRANCH  33  34
HETATM   34  N7  UNL     1      60.702   2.589  39.167  1.00  0.00    -0.066 N 
ATOM     35  H73 UNL     1      61.228   2.206  39.952  1.00  0.00     0.275 HD
ATOM     36  H72 UNL     1      61.421   3.256  38.888  1.00  0.00     0.275 HD
ATOM     37  H71 UNL     1      59.800   2.999  39.407  1.00  0.00     0.275 HD
ENDBRANCH  33  34
BRANCH  33  38
HETATM   38  C17 UNL     1      61.592   0.972  37.706  1.00  0.00     0.047 C 
BRANCH  38  39
HETATM   39  C18 UNL     1      62.567   1.743  36.927  1.00  0.00    -0.012 C 
HETATM   40  C19 UNL     1      62.827   1.040  35.607  1.00  0.00     0.005 C 
HETATM   41  C20 UNL     1      64.235   1.267  35.085  1.00  0.00     0.000 C 
HETATM   42  C21 UNL     1      64.678   2.712  35.236  1.00  0.00     0.000 C 
HETATM   43  C22 UNL     1      64.411   3.290  36.580  1.00  0.00     0.000 C 
HETATM   44  C23 UNL     1      63.871   2.147  37.487  1.00  0.00     0.005 C 
ENDBRANCH  38  39
ENDBRANCH  33  38
ENDBRANCH  30  33
ENDBRANCH  27  29
ENDBRANCH   1  27
TORSDOF 19
ENDMDL
MODEL 3
REMARK VINA RESULT: -5.296131359      3.710      6.958
REMARK  19 active torsions:
REMARK  status: ('A' for Active; 'I' for Inactive)
REMARK    1  A    between atoms: C2_2  and  O1_3 
REMARK    2  A    between atoms: O1_3  and  C3_4 
REMARK    3  A    between atoms: C3_4  and  C4_6 
REMARK    4  A    between atoms: C4_6  and  N1_8 
REMARK    5  A    between atoms: N1_8  and  C6_10 
REMARK    6  A    between atoms: C6_10  and  O3_11 
REMARK    7  A    between atoms: C6_10  and  C7_13 
REMARK    8  A    between atoms: C7_13  and  O4_14 
REMARK    9  A    between atoms: C7_13  and  N2_16 
REMARK   10  A    between atoms: N2_16  and  C8_18 
REMARK   11  A    between atoms: C8_18  and  C9_19 
REMARK   12  A    between atoms: C8_18  and  C13_27 
REMARK   13  A    between atoms: C10_20  and  C11_21 
REMARK   14  A    between atoms: C11_21  and  N3_22 
REMARK   15  A    between atoms: C13_27  and  N6_29 
REMARK       I    between atoms: N6_29  and  C15_31 
REMARK   16  A    between atoms: C15_31  and  C16_33 
REMARK   17  A    between atoms: C16_33  and  N7_34 
REMARK   18  A    between atoms: C16_33  and  C17_38 
REMARK   19  A    between atoms: C17_38  and  C18_39 
ROOT
HETATM    1  C8  UNL     1      54.780   3.683  43.863  1.00  0.00     0.033 C 
ENDROOT
BRANCH   1   2
HETATM    2  N2  UNL     1      53.564   4.436  43.654  1.00  0.00    -0.335 N 
ATOM      3  H2  UNL     1      53.100   4.691  44.527  1.00  0.00     0.168 HD
BRANCH   2   4
HETATM    4  C7  UNL     1      52.917   4.870  42.584  1.00  0.00     0.192 C 
BRANCH   4   5
HETATM    5  C6  UNL     1      51.808   5.739  42.307  1.00  0.00     0.193 C 
BRANCH   5   6
HETATM    6  N1  UNL     1      50.652   5.969  43.099  1.00  0.00    -0.332 N 
ATOM      7  H1  UNL     1      50.350   6.941  43.167  1.00  0.00     0.168 HD
BRANCH   6   8
HETATM    8  C4  UNL     1      49.876   5.050  43.791  1.00  0.00     0.083 C 
HETATM    9  C5  UNL     1      48.369   5.058  43.679  1.00  0.00     0.075 C 
BRANCH   8  10
HETATM   10  C3  UNL     1      50.281   4.781  45.198  1.00  0.00     0.305 C 
HETATM   11  O2  UNL     1      49.779   5.513  46.125  1.00  0.00    -0.258 OA
BRANCH  10  12
HETATM   12  O1  UNL     1      51.156   3.745  45.479  1.00  0.00    -0.317 OA
BRANCH  12  13
HETATM   13  C2  UNL     1      50.896   2.437  45.074  1.00  0.00     0.175 C 
HETATM   14  C1  UNL     1      49.662   1.903  45.769  1.00  0.00     0.034 C 
ENDBRANCH  12  13
ENDBRANCH  10  12
ENDBRANCH   8  10
ENDBRANCH   6   8
ENDBRANCH   5   6
BRANCH   5  15
HETATM   15  O3  UNL     1      51.742   6.460  41.211  1.00  0.00    -0.343 OA
ATOM     16  H3  UNL     1      52.391   6.153  40.589  1.00  0.00     0.219 HD
ENDBRANCH   5  15
ENDBRANCH   4   5
BRANCH   4  17
HETATM   17  O4  UNL     1      53.904   5.309  41.552  1.00  0.00    -0.343 OA
ATOM     18  H4  UNL     1      54.325   4.487  41.329  1.00  0.00     0.219 HD
ENDBRANCH   4  17
ENDBRANCH   2   4
ENDBRANCH   1   2
BRANCH   1  19
HETATM   19  C9  UNL     1      55.529   4.300  44.954  1.00  0.00     0.025 C 
HETATM   20  C10 UNL     1      55.850   5.626  45.339  1.00  0.00    -0.005 C 
BRANCH  20  21
HETATM   21  C11 UNL     1      56.795   6.465  44.541  1.00  0.00     0.149 C 
BRANCH  21  22
HETATM   22  N3  UNL     1      56.294   6.718  43.179  1.00  0.00    -0.363 N 
HETATM   23  C12 UNL     1      57.036   6.266  42.214  1.00  0.00     0.197 C 
HETATM   24  N4  UNL     1      56.649   6.449  40.857  1.00  0.00    -0.067 NA
HETATM   25  N5  UNL     1      58.235   5.532  42.463  1.00  0.00    -0.067 NA
ATOM     26  H3  UNL     1      55.421   7.215  43.005  1.00  0.00     0.162 HD
ENDBRANCH  21  22
ENDBRANCH  20  21
ENDBRANCH   1  19
BRANCH   1  27
HETATM   27  C13 UNL     1      54.838   2.419  43.174  1.00  0.00     0.130 C 
HETATM   28  C14 UNL     1      55.360   1.216  43.997  1.00  0.00     0.039 C 
BRANCH  27  29
HETATM   29  N6  UNL     1      55.864   2.499  42.096  1.00  0.00    -0.350 N 
HETATM   30  C15 UNL     1      55.623   2.646  40.742  1.00  0.00     0.248 C 
HETATM   31  O5  UNL     1      54.459   2.712  40.297  1.00  0.00    -0.271 OA
ATOM     32  H6  UNL     1      56.840   2.440  42.386  1.00  0.00     0.163 HD
BRANCH  30  33
HETATM   33  C16 UNL     1      56.709   2.731  39.705  1.00  0.00     0.275 C 
BRANCH  33  34
HETATM   34  N7  UNL     1      57.795   3.371  40.463  1.00  0.00    -0.066 N 
ATOM     35  H73 UNL     1      58.727   3.261  40.064  1.00  0.00     0.275 HD
ATOM     36  H72 UNL     1      57.801   4.391  40.437  1.00  0.00     0.275 HD
ATOM     37  H71 UNL     1      57.669   2.962  41.389  1.00  0.00     0.275 HD
ENDBRANCH  33  34
BRANCH  33  38
HETATM   38  C17 UNL     1      57.268   1.436  39.232  1.00  0.00     0.047 C 
BRANCH  38  39
HETATM   39  C18 UNL     1      56.473   0.581  38.345  1.00  0.00    -0.012 C 
HETATM   40  C19 UNL     1      55.777   1.440  37.306  1.00  0.00     0.005 C 
HETATM   41  C20 UNL     1      54.449   0.861  36.853  1.00  0.00     0.000 C 
HETATM   42  C21 UNL     1      54.525  -0.638  36.620  1.00  0.00     0.000 C 
HETATM   43  C22 UNL     1      55.191  -1.388  37.718  1.00  0.00     0.000 C 
HETATM   44  C23 UNL     1      55.484  -0.382  38.867  1.00  0.00     0.005 C 
ENDBRANCH  38  39
ENDBRANCH  33  38
ENDBRANCH  30  33
ENDBRANCH  27  29
ENDBRANCH   1  27
TORSDOF 19
ENDMDL
MODEL 4
REMARK VINA RESULT: -5.295591789      2.589      5.630
REMARK  19 active torsions:
REMARK  status: ('A' for Active; 'I' for Inactive)
REMARK    1  A    between atoms: C2_2  and  O1_3 
REMARK    2  A    between atoms: O1_3  and  C3_4 
REMARK    3  A    between atoms: C3_4  and  C4_6 
REMARK    4  A    between atoms: C4_6  and  N1_8 
REMARK    5  A    between atoms: N1_8  and  C6_10 
REMARK    6  A    between atoms: C6_10  and  O3_11 
REMARK    7  A    between atoms: C6_10  and  C7_13 
REMARK    8  A    between atoms: C7_13  and  O4_14 
REMARK    9  A    between atoms: C7_13  and  N2_16 
REMARK   10  A    between atoms: N2_16  and  C8_18 
REMARK   11  A    between atoms: C8_18  and  C9_19 
REMARK   12  A    between atoms: C8_18  and  C13_27 
REMARK   13  A    between atoms: C10_20  and  C11_21 
REMARK   14  A    between atoms: C11_21  and  N3_22 
REMARK   15  A    between atoms: C13_27  and  N6_29 
REMARK       I    between atoms: N6_29  and  C15_31 
REMARK   16  A    between atoms: C15_31  and  C16_33 
REMARK   17  A    between atoms: C16_33  and  N7_34 
REMARK   18  A    between atoms: C16_33  and  C17_38 
REMARK   19  A    between atoms: C17_38  and  C18_39 
ROOT
HETATM    1  C8  UNL     1      57.021   2.482  40.692  1.00  0.00     0.033 C 
ENDROOT
BRANCH   1   2
HETATM    2  N2  UNL     1      56.277   1.547  39.879  1.00  0.00    -0.335 N 
ATOM      3  H2  UNL     1      56.640   1.473  38.928  1.00  0.00     0.168 HD
BRANCH   2   4
HETATM    4  C7  UNL     1      55.231   0.765  40.091  1.00  0.00     0.192 C 
BRANCH   4   5
HETATM    5  C6  UNL     1      54.259   0.071  39.294  1.00  0.00     0.193 C 
BRANCH   5   6
HETATM    6  N1  UNL     1      54.315  -0.235  37.908  1.00  0.00    -0.332 N 
ATOM      7  H1  UNL     1      54.512  -1.210  37.680  1.00  0.00     0.168 HD
BRANCH   6   8
HETATM    8  C4  UNL     1      54.139   0.611  36.823  1.00  0.00     0.083 C 
HETATM    9  C5  UNL     1      55.059   1.787  36.591  1.00  0.00     0.075 C 
BRANCH   8  10
HETATM   10  C3  UNL     1      52.735   0.994  36.515  1.00  0.00     0.305 C 
HETATM   11  O2  UNL     1      51.798   0.515  37.249  1.00  0.00    -0.258 OA
BRANCH  10  12
HETATM   12  O1  UNL     1      52.470   1.870  35.474  1.00  0.00    -0.317 OA
BRANCH  12  13
HETATM   13  C2  UNL     1      51.337   2.682  35.472  1.00  0.00     0.175 C 
HETATM   14  C1  UNL     1      50.364   2.230  34.403  1.00  0.00     0.034 C 
ENDBRANCH  12  13
ENDBRANCH  10  12
ENDBRANCH   8  10
ENDBRANCH   6   8
ENDBRANCH   5   6
BRANCH   5  15
HETATM   15  O3  UNL     1      53.134  -0.379  39.800  1.00  0.00    -0.343 OA
ATOM     16  H3  UNL     1      52.648   0.340  40.186  1.00  0.00     0.219 HD
ENDBRANCH   5  15
ENDBRANCH   4   5
BRANCH   4  17
HETATM   17  O4  UNL     1      55.588  -0.277  41.100  1.00  0.00    -0.343 OA
ATOM     18  H4  UNL     1      56.393  -0.626  40.737  1.00  0.00     0.219 HD
ENDBRANCH   4  17
ENDBRANCH   2   4
ENDBRANCH   1   2
BRANCH   1  19
HETATM   19  C9  UNL     1      56.399   3.798  40.579  1.00  0.00     0.025 C 
HETATM   20  C10 UNL     1      55.709   4.671  41.457  1.00  0.00    -0.005 C 
BRANCH  20  21
HETATM   21  C11 UNL     1      54.348   4.343  41.977  1.00  0.00     0.149 C 
BRANCH  21  22
HETATM   22  N3  UNL     1      53.301   5.159  41.340  1.00  0.00    -0.363 N 
HETATM   23  C12 UNL     1      52.211   5.316  42.029  1.00  0.00     0.197 C 
HETATM   24  N4  UNL     1      51.134   6.090  41.514  1.00  0.00    -0.067 NA
HETATM   25  N5  UNL     1      52.061   4.768  43.338  1.00  0.00    -0.067 NA
ATOM     26  H3  UNL     1      53.424   5.576  40.417  1.00  0.00     0.162 HD
ENDBRANCH  21  22
ENDBRANCH  20  21
ENDBRANCH   1  19
BRANCH   1  27
HETATM   27  C13 UNL     1      57.980   1.882  41.585  1.00  0.00     0.130 C 
HETATM   28  C14 UNL     1      58.674   2.839  42.585  1.00  0.00     0.039 C 
BRANCH  27  29
HETATM   29  N6  UNL     1      59.145   1.398  40.793  1.00  0.00    -0.350 N 
HETATM   30  C15 UNL     1      59.302   0.134  40.251  1.00  0.00     0.248 C 
HETATM   31  O5  UNL     1      58.434  -0.748  40.409  1.00  0.00    -0.271 OA
ATOM     32  H6  UNL     1      59.902   2.063  40.634  1.00  0.00     0.163 HD
BRANCH  30  33
HETATM   33  C16 UNL     1      60.503  -0.288  39.449  1.00  0.00     0.275 C 
BRANCH  33  34
HETATM   34  N7  UNL     1      60.247  -1.725  39.264  1.00  0.00    -0.066 N 
ATOM     35  H73 UNL     1      60.757  -2.342  39.894  1.00  0.00     0.275 HD
ATOM     36  H72 UNL     1      59.321  -2.041  39.551  1.00  0.00     0.275 HD
ATOM     37  H71 UNL     1      60.458  -1.845  38.273  1.00  0.00     0.275 HD
ENDBRANCH  33  34
BRANCH  33  38
HETATM   38  C17 UNL     1      60.607   0.275  38.076  1.00  0.00     0.047 C 
BRANCH  38  39
HETATM   39  C18 UNL     1      61.778   1.076  37.705  1.00  0.00    -0.012 C 
HETATM   40  C19 UNL     1      61.680   2.445  38.351  1.00  0.00     0.005 C 
HETATM   41  C20 UNL     1      62.341   3.536  37.528  1.00  0.00     0.000 C 
HETATM   42  C21 UNL     1      63.681   3.096  36.962  1.00  0.00     0.000 C 
HETATM   43  C22 UNL     1      63.656   1.757  36.317  1.00  0.00     0.000 C 
HETATM   44  C23 UNL     1      62.178   1.270  36.298  1.00  0.00     0.005 C 
ENDBRANCH  38  39
ENDBRANCH  33  38
ENDBRANCH  30  33
ENDBRANCH  27  29
ENDBRANCH   1  27
TORSDOF 19
ENDMDL
MODEL 5
REMARK VINA RESULT: -5.144457425      2.914      5.972
REMARK  19 active torsions:
REMARK  status: ('A' for Active; 'I' for Inactive)
REMARK    1  A    between atoms: C2_2  and  O1_3 
REMARK    2  A    between atoms: O1_3  and  C3_4 
REMARK    3  A    between atoms: C3_4  and  C4_6 
REMARK    4  A    between atoms: C4_6  and  N1_8 
REMARK    5  A    between atoms: N1_8  and  C6_10 
REMARK    6  A    between atoms: C6_10  and  O3_11 
REMARK    7  A    between atoms: C6_10  and  C7_13 
REMARK    8  A    between atoms: C7_13  and  O4_14 
REMARK    9  A    between atoms: C7_13  and  N2_16 
REMARK   10  A    between atoms: N2_16  and  C8_18 
REMARK   11  A    between atoms: C8_18  and  C9_19 
REMARK   12  A    between atoms: C8_18  and  C13_27 
REMARK   13  A    between atoms: C10_20  and  C11_21 
REMARK   14  A    between atoms: C11_21  and  N3_22 
REMARK   15  A    between atoms: C13_27  and  N6_29 
REMARK       I    between atoms: N6_29  and  C15_31 
REMARK   16  A    between atoms: C15_31  and  C16_33 
REMARK   17  A    between atoms: C16_33  and  N7_34 
REMARK   18  A    between atoms: C16_33  and  C17_38 
REMARK   19  A    between atoms: C17_38  and  C18_39 
ROOT
HETATM    1  C8  UNL     1      56.765   2.329  43.059  1.00  0.00     0.033 C 
ENDROOT
BRANCH   1   2
HETATM    2  N2  UNL     1      55.371   2.709  43.101  1.00  0.00    -0.335 N 
ATOM      3  H2  UNL     1      54.938   2.527  44.006  1.00  0.00     0.168 HD
BRANCH   2   4
HETATM    4  C7  UNL     1      54.531   3.242  42.228  1.00  0.00     0.192 C 
BRANCH   4   5
HETATM    5  C6  UNL     1      54.290   4.538  41.658  1.00  0.00     0.193 C 
BRANCH   5   6
HETATM    6  N1  UNL     1      53.046   5.189  41.446  1.00  0.00    -0.332 N 
ATOM      7  H1  UNL     1      52.914   5.598  40.521  1.00  0.00     0.168 HD
BRANCH   6   8
HETATM    8  C4  UNL     1      51.985   5.343  42.327  1.00  0.00     0.083 C 
HETATM    9  C5  UNL     1      50.722   6.062  41.910  1.00  0.00     0.075 C 
BRANCH   8  10
HETATM   10  C3  UNL     1      52.343   5.710  43.724  1.00  0.00     0.305 C 
HETATM   11  O2  UNL     1      51.893   4.980  44.677  1.00  0.00    -0.258 OA
BRANCH  10  12
HETATM   12  O1  UNL     1      53.165   6.799  43.964  1.00  0.00    -0.317 OA
BRANCH  12  13
HETATM   13  C2  UNL     1      54.007   6.849  45.074  1.00  0.00     0.175 C 
HETATM   14  C1  UNL     1      55.433   6.541  44.669  1.00  0.00     0.034 C 
ENDBRANCH  12  13
ENDBRANCH  10  12
ENDBRANCH   8  10
ENDBRANCH   6   8
ENDBRANCH   5   6
BRANCH   5  15
HETATM   15  O3  UNL     1      55.268   5.308  41.236  1.00  0.00    -0.343 OA
ATOM     16  H3  UNL     1      56.102   4.925  41.480  1.00  0.00     0.219 HD
ENDBRANCH   5  15
ENDBRANCH   4   5
BRANCH   4  17
HETATM   17  O4  UNL     1      54.447   2.365  41.022  1.00  0.00    -0.343 OA
ATOM     18  H4  UNL     1      53.755   2.788  40.527  1.00  0.00     0.219 HD
ENDBRANCH   4  17
ENDBRANCH   2   4
ENDBRANCH   1   2
BRANCH   1  19
HETATM   19  C9  UNL     1      57.569   3.447  43.542  1.00  0.00     0.025 C 
HETATM   20  C10 UNL     1      58.158   4.597  42.958  1.00  0.00    -0.005 C 
BRANCH  20  21
HETATM   21  C11 UNL     1      59.312   4.493  42.015  1.00  0.00     0.149 C 
BRANCH  21  22
HETATM   22  N3  UNL     1      58.898   4.007  40.687  1.00  0.00    -0.363 N 
HETATM   23  C12 UNL     1      59.406   2.869  40.320  1.00  0.00     0.197 C 
HETATM   24  N4  UNL     1      59.073   2.301  39.060  1.00  0.00    -0.067 NA
HETATM   25  N5  UNL     1      60.273   2.120  41.172  1.00  0.00    -0.067 NA
ATOM     26  H3  UNL     1      58.253   4.530  40.095  1.00  0.00     0.162 HD
ENDBRANCH  21  22
ENDBRANCH  20  21
ENDBRANCH   1  19
BRANCH   1  27
HETATM   27  C13 UNL     1      57.005   0.928  42.822  1.00  0.00     0.130 C 
HETATM   28  C14 UNL     1      58.293   0.341  43.449  1.00  0.00     0.039 C 
BRANCH  27  29
HETATM   29  N6  UNL     1      57.268   0.717  41.371  1.00  0.00    -0.350 N 
HETATM   30  C15 UNL     1      56.453   0.048  40.477  1.00  0.00     0.248 C 
HETATM   31  O5  UNL     1      55.380  -0.472  40.846  1.00  0.00    -0.271 OA
ATOM     32  H6  UNL     1      58.136   1.106  41.000  1.00  0.00     0.163 HD
BRANCH  30  33
HETATM   33  C16 UNL     1      56.774  -0.120  39.016  1.00  0.00     0.275 C 
BRANCH  33  34
HETATM   34  N7  UNL     1      58.038  -0.871  39.074  1.00  0.00    -0.066 N 
ATOM     35  H73 UNL     1      58.812  -0.385  39.528  1.00  0.00     0.275 HD
ATOM     36  H72 UNL     1      58.041  -1.667  39.711  1.00  0.00     0.275 HD
ATOM     37  H71 UNL     1      58.186  -1.101  38.092  1.00  0.00     0.275 HD
ENDBRANCH  33  34
BRANCH  33  38
HETATM   38  C17 UNL     1      55.842  -0.975  38.233  1.00  0.00     0.047 C 
BRANCH  38  39
HETATM   39  C18 UNL     1      54.702  -0.365  37.542  1.00  0.00    -0.012 C 
HETATM   40  C19 UNL     1      55.179   0.829  36.736  1.00  0.00     0.005 C 
HETATM   41  C20 UNL     1      54.125   1.914  36.607  1.00  0.00     0.000 C 
HETATM   42  C21 UNL     1      52.747   1.346  36.314  1.00  0.00     0.000 C 
HETATM   43  C22 UNL     1      52.364   0.205  37.188  1.00  0.00     0.000 C 
HETATM   44  C23 UNL     1      53.478   0.039  38.261  1.00  0.00     0.005 C 
ENDBRANCH  38  39
ENDBRANCH  33  38
ENDBRANCH  30  33
ENDBRANCH  27  29
ENDBRANCH   1  27
TORSDOF 19
ENDMDL
