MODEL 1
REMARK VINA RESULT: -6.621309430      0.000      0.000
REMARK  19 active torsions:
REMARK  status: ('A' for Active; 'I' for Inactive)
REMARK    1  A    between atoms: C2_2  and  C3_3 
REMARK    2  A    between atoms: C3_3  and  C4_4 
REMARK    3  A    between atoms: C4_4  and  C6_6 
REMARK    4  A    between atoms: C6_6  and  N1_7 
REMARK    5  A    between atoms: C6_6  and  C7_11 
REMARK       I    between atoms: C7_11  and  N2_13 
REMARK    6  A    between atoms: N2_13  and  C8_15 
REMARK    7  A    between atoms: C8_15  and  N3_16 
REMARK    8  A    between atoms: C8_15  and  C9_20 
REMARK    9  A    between atoms: N3_16  and  O2_18 
REMARK   10  A    between atoms: C9_20  and  C11_22 
REMARK       I    between atoms: C11_22  and  N4_24 
REMARK   11  A    between atoms: N4_24  and  C12_26 
REMARK   12  A    between atoms: C12_26  and  C13_27 
REMARK   13  A    between atoms: C12_26  and  C20_34 
REMARK   14  A    between atoms: C13_27  and  C14_28 
REMARK       I    between atoms: C20_34  and  N5_36 
REMARK   15  A    between atoms: N5_36  and  C21_38 
REMARK   16  A    between atoms: C21_38  and  C22_39 
REMARK   17  A    between atoms: C21_38  and  C23_41 
REMARK   18  A    between atoms: C23_41  and  O6_42 
REMARK   19  A    between atoms: C23_41  and  O7_44 
ROOT
HETATM    1  C11 UNL     1      59.297  -0.360  40.365  1.00  0.00     0.226 C 
HETATM    2  O3  UNL     1      59.269  -0.845  41.532  1.00  0.00    -0.273 OA
HETATM    3  N4  UNL     1      58.099   0.219  39.898  1.00  0.00    -0.347 N 
ATOM      4  H4  UNL     1      58.086   0.623  38.960  1.00  0.00     0.163 HD
ENDROOT
BRANCH   1   5
HETATM    5  C9  UNL     1      60.541  -0.430  39.594  1.00  0.00     0.118 C 
HETATM    6  C10 UNL     1      60.526  -1.534  38.558  1.00  0.00     0.024 C 
BRANCH   5   7
HETATM    7  C8  UNL     1      60.848   0.867  38.860  1.00  0.00     0.218 C 
BRANCH   7   8
HETATM    8  N2  UNL     1      62.059   0.702  38.088  1.00  0.00    -0.336 N 
HETATM    9  C7  UNL     1      62.550   1.759  37.283  1.00  0.00     0.250 C 
HETATM   10  O1  UNL     1      61.926   2.836  37.252  1.00  0.00    -0.271 OA
ATOM     11  H2  UNL     1      62.564  -0.184  38.122  1.00  0.00     0.164 HD
BRANCH   9  12
HETATM   12  C6  UNL     1      63.789   1.610  36.481  1.00  0.00     0.278 C 
BRANCH  12  13
HETATM   13  C4  UNL     1      64.473   2.899  36.184  1.00  0.00     0.021 C 
HETATM   14  C5  UNL     1      65.529   3.192  37.230  1.00  0.00     0.012 C 
BRANCH  13  15
HETATM   15  C3  UNL     1      64.996   2.955  34.796  1.00  0.00     0.006 C 
BRANCH  15  16
HETATM   16  C2  UNL     1      66.030   4.083  34.635  1.00  0.00    -0.004 C 
HETATM   17  C1  UNL     1      65.647   4.902  33.449  1.00  0.00     0.005 C 
ENDBRANCH  15  16
ENDBRANCH  13  15
ENDBRANCH  12  13
BRANCH  12  18
HETATM   18  N1  UNL     1      63.389   0.947  35.229  1.00  0.00    -0.066 N 
ATOM     19  H13 UNL     1      63.538   1.546  34.416  1.00  0.00     0.275 HD
ATOM     20  H12 UNL     1      64.027   0.191  34.977  1.00  0.00     0.275 HD
ATOM     21  H11 UNL     1      62.423   0.625  35.294  1.00  0.00     0.275 HD
ENDBRANCH  12  18
ENDBRANCH   9  12
ENDBRANCH   7   8
BRANCH   7  22
HETATM   22  N3  UNL     1      60.900   1.989  39.730  1.00  0.00    -0.281 N 
ATOM     23  H3  UNL     1      61.719   2.103  40.326  1.00  0.00     0.189 HD
BRANCH  22  24
HETATM   24  O2  UNL     1      60.028   2.810  39.796  1.00  0.00    -0.292 OA
ATOM     25  H2  UNL     1      60.191   3.729  39.972  1.00  0.00     0.244 HD
ENDBRANCH  22  24
ENDBRANCH   7  22
ENDBRANCH   5   7
ENDBRANCH   1   5
BRANCH   3  26
HETATM   26  C12 UNL     1      56.857   0.269  40.706  1.00  0.00     0.177 C 
BRANCH  26  27
HETATM   27  C13 UNL     1      55.762  -0.063  39.729  1.00  0.00     0.039 C 
BRANCH  27  28
HETATM   28  C14 UNL     1      56.128  -0.192  38.305  1.00  0.00    -0.012 C 
HETATM   29  C15 UNL     1      55.793   1.010  37.463  1.00  0.00     0.005 C 
HETATM   30  C16 UNL     1      54.594   0.814  36.570  1.00  0.00     0.000 C 
HETATM   31  C17 UNL     1      53.421   0.270  37.356  1.00  0.00     0.000 C 
HETATM   32  C18 UNL     1      53.811  -1.086  37.859  1.00  0.00     0.000 C 
HETATM   33  C19 UNL     1      55.279  -1.345  37.739  1.00  0.00     0.005 C 
ENDBRANCH  27  28
ENDBRANCH  26  27
BRANCH  26  34
HETATM   34  C20 UNL     1      56.810   1.671  41.215  1.00  0.00     0.241 C 
HETATM   35  O4  UNL     1      57.767   2.132  41.937  1.00  0.00    -0.271 OA
HETATM   36  N5  UNL     1      55.764   2.563  40.960  1.00  0.00    -0.344 N 
ATOM     37  H5  UNL     1      54.971   2.255  40.397  1.00  0.00     0.163 HD
BRANCH  36  38
HETATM   38  C21 UNL     1      55.781   3.909  41.474  1.00  0.00     0.200 C 
BRANCH  38  39
HETATM   39  C22 UNL     1      54.400   4.332  41.749  1.00  0.00     0.261 C 
HETATM   40  O5  UNL     1      53.562   4.294  40.881  1.00  0.00    -0.304 OA
ENDBRANCH  38  39
BRANCH  38  41
HETATM   41  C23 UNL     1      56.370   4.865  40.436  1.00  0.00     0.283 C 
BRANCH  41  42
HETATM   42  O6  UNL     1      55.873   6.139  40.690  1.00  0.00    -0.369 OA
ATOM     43  H6  UNL     1      56.080   6.691  39.944  1.00  0.00     0.212 HD
ENDBRANCH  41  42
BRANCH  41  44
HETATM   44  O7  UNL     1      57.757   4.939  40.591  1.00  0.00    -0.369 OA
ATOM     45  H7  UNL     1      58.058   4.235  41.153  1.00  0.00     0.212 HD
ENDBRANCH  41  44
ENDBRANCH  38  41
ENDBRANCH  36  38
ENDBRANCH  26  34
ENDBRANCH   3  26
TORSDOF 19
ENDMDL
MODEL 2
REMARK VINA RESULT: -6.513919813      3.163      6.783
REMARK  19 active torsions:
REMARK  status: ('A' for Active; 'I' for Inactive)
REMARK    1  A    between atoms: C2_2  and  C3_3 
REMARK    2  A    between atoms: C3_3  and  C4_4 
REMARK    3  A    between atoms: C4_4  and  C6_6 
REMARK    4  A    between atoms: C6_6  and  N1_7 
REMARK    5  A    between atoms: C6_6  and  C7_11 
REMARK       I    between atoms: C7_11  and  N2_13 
REMARK    6  A    between atoms: N2_13  and  C8_15 
REMARK    7  A    between atoms: C8_15  and  N3_16 
REMARK    8  A    between atoms: C8_15  and  C9_20 
REMARK    9  A    between atoms: N3_16  and  O2_18 
REMARK   10  A    between atoms: C9_20  and  C11_22 
REMARK       I    between atoms: C11_22  and  N4_24 
REMARK   11  A    between atoms: N4_24  and  C12_26 
REMARK   12  A    between atoms: C12_26  and  C13_27 
REMARK   13  A    between atoms: C12_26  and  C20_34 
REMARK   14  A    between atoms: C13_27  and  C14_28 
REMARK       I    between atoms: C20_34  and  N5_36 
REMARK   15  A    between atoms: N5_36  and  C21_38 
REMARK   16  A    between atoms: C21_38  and  C22_39 
REMARK   17  A    between atoms: C21_38  and  C23_41 
REMARK   18  A    between atoms: C23_41  and  O6_42 
REMARK   19  A    between atoms: C23_41  and  O7_44 
ROOT
HETATM    1  C11 UNL     1      55.440   2.184  40.417  1.00  0.00     0.226 C 
HETATM    2  O3  UNL     1      55.521   2.865  39.356  1.00  0.00    -0.273 OA
HETATM    3  N4  UNL     1      56.032   0.904  40.388  1.00  0.00    -0.347 N 
ATOM      4  H4  UNL     1      55.988   0.328  41.229  1.00  0.00     0.163 HD
ENDROOT
BRANCH   1   5
HETATM    5  C9  UNL     1      54.755   2.755  41.580  1.00  0.00     0.118 C 
HETATM    6  C10 UNL     1      55.422   2.391  42.890  1.00  0.00     0.024 C 
BRANCH   5   7
HETATM    7  C8  UNL     1      54.676   4.273  41.525  1.00  0.00     0.218 C 
BRANCH   7   8
HETATM    8  N2  UNL     1      55.882   4.833  42.093  1.00  0.00    -0.336 N 
HETATM    9  C7  UNL     1      56.560   5.893  41.442  1.00  0.00     0.250 C 
HETATM   10  O1  UNL     1      56.101   6.339  40.374  1.00  0.00    -0.271 OA
ATOM     11  H2  UNL     1      56.248   4.462  42.970  1.00  0.00     0.164 HD
BRANCH   9  12
HETATM   12  C6  UNL     1      57.799   6.481  42.006  1.00  0.00     0.278 C 
BRANCH  12  13
HETATM   13  C4  UNL     1      59.015   6.223  41.185  1.00  0.00     0.021 C 
HETATM   14  C5  UNL     1      59.741   7.519  40.890  1.00  0.00     0.012 C 
BRANCH  13  15
HETATM   15  C3  UNL     1      59.893   5.187  41.785  1.00  0.00     0.006 C 
BRANCH  15  16
HETATM   16  C2  UNL     1      60.244   4.093  40.761  1.00  0.00    -0.004 C 
HETATM   17  C1  UNL     1      59.003   3.327  40.453  1.00  0.00     0.005 C 
ENDBRANCH  15  16
ENDBRANCH  13  15
ENDBRANCH  12  13
BRANCH  12  18
HETATM   18  N1  UNL     1      57.958   5.894  43.347  1.00  0.00    -0.066 N 
ATOM     19  H13 UNL     1      58.387   4.969  43.310  1.00  0.00     0.275 HD
ATOM     20  H12 UNL     1      58.678   6.372  43.889  1.00  0.00     0.275 HD
ATOM     21  H11 UNL     1      57.061   5.879  43.833  1.00  0.00     0.275 HD
ENDBRANCH  12  18
ENDBRANCH   9  12
ENDBRANCH   7   8
BRANCH   7  22
HETATM   22  N3  UNL     1      53.496   4.783  42.130  1.00  0.00    -0.281 N 
ATOM     23  H3  UNL     1      53.264   4.478  43.075  1.00  0.00     0.189 HD
BRANCH  22  24
HETATM   24  O2  UNL     1      52.758   5.554  41.584  1.00  0.00    -0.292 OA
ATOM     25  H2  UNL     1      51.968   5.893  41.987  1.00  0.00     0.244 HD
ENDBRANCH  22  24
ENDBRANCH   7  22
ENDBRANCH   5   7
ENDBRANCH   1   5
BRANCH   3  26
HETATM   26  C12 UNL     1      56.715   0.358  39.192  1.00  0.00     0.177 C 
BRANCH  26  27
HETATM   27  C13 UNL     1      55.827  -0.767  38.735  1.00  0.00     0.039 C 
BRANCH  27  28
HETATM   28  C14 UNL     1      55.387  -0.767  37.327  1.00  0.00    -0.012 C 
HETATM   29  C15 UNL     1      54.815   0.542  36.852  1.00  0.00     0.005 C 
HETATM   30  C16 UNL     1      53.313   0.536  36.711  1.00  0.00     0.000 C 
HETATM   31  C17 UNL     1      52.658  -0.000  37.965  1.00  0.00     0.000 C 
HETATM   32  C18 UNL     1      53.083  -1.429  38.114  1.00  0.00     0.000 C 
HETATM   33  C19 UNL     1      54.234  -1.784  37.228  1.00  0.00     0.005 C 
ENDBRANCH  27  28
ENDBRANCH  26  27
BRANCH  26  34
HETATM   34  C20 UNL     1      58.043  -0.090  39.703  1.00  0.00     0.241 C 
HETATM   35  O4  UNL     1      58.173  -0.482  40.919  1.00  0.00    -0.271 OA
HETATM   36  N5  UNL     1      59.211  -0.119  38.934  1.00  0.00    -0.344 N 
ATOM     37  H5  UNL     1      59.175   0.186  37.961  1.00  0.00     0.163 HD
BRANCH  36  38
HETATM   38  C21 UNL     1      60.464  -0.571  39.484  1.00  0.00     0.200 C 
BRANCH  38  39
HETATM   39  C22 UNL     1      61.408   0.556  39.509  1.00  0.00     0.261 C 
HETATM   40  O5  UNL     1      61.381   1.398  38.644  1.00  0.00    -0.304 OA
ENDBRANCH  38  39
BRANCH  38  41
HETATM   41  C23 UNL     1      61.063  -1.669  38.605  1.00  0.00     0.283 C 
BRANCH  41  42
HETATM   42  O6  UNL     1      60.157  -2.723  38.551  1.00  0.00    -0.369 OA
ATOM     43  H6  UNL     1      59.684  -2.663  37.729  1.00  0.00     0.212 HD
ENDBRANCH  41  42
BRANCH  41  44
HETATM   44  O7  UNL     1      61.211  -1.202  37.296  1.00  0.00    -0.369 OA
ATOM     45  H7  UNL     1      60.649  -0.449  37.156  1.00  0.00     0.212 HD
ENDBRANCH  41  44
ENDBRANCH  38  41
ENDBRANCH  36  38
ENDBRANCH  26  34
ENDBRANCH   3  26
TORSDOF 19
ENDMDL
MODEL 3
REMARK VINA RESULT: -6.481891909      3.201      9.659
REMARK  19 active torsions:
REMARK  status: ('A' for Active; 'I' for Inactive)
REMARK    1  A    between atoms: C2_2  and  C3_3 
REMARK    2  A    between atoms: C3_3  and  C4_4 
REMARK    3  A    between atoms: C4_4  and  C6_6 
REMARK    4  A    between atoms: C6_6  and  N1_7 
REMARK    5  A    between atoms: C6_6  and  C7_11 
REMARK       I    between atoms: C7_11  and  N2_13 
REMARK    6  A    between atoms: N2_13  and  C8_15 
REMARK    7  A    between atoms: C8_15  and  N3_16 
REMARK    8  A    between atoms: C8_15  and  C9_20 
REMARK    9  A    between atoms: N3_16  and  O2_18 
REMARK   10  A    between atoms: C9_20  and  C11_22 
REMARK       I    between atoms: C11_22  and  N4_24 
REMARK   11  A    between atoms: N4_24  and  C12_26 
REMARK   12  A    between atoms: C12_26  and  C13_27 
REMARK   13  A    between atoms: C12_26  and  C20_34 
REMARK   14  A    between atoms: C13_27  and  C14_28 
REMARK       I    between atoms: C20_34  and  N5_36 
REMARK   15  A    between atoms: N5_36  and  C21_38 
REMARK   16  A    between atoms: C21_38  and  C22_39 
REMARK   17  A    between atoms: C21_38  and  C23_41 
REMARK   18  A    between atoms: C23_41  and  O6_42 
REMARK   19  A    between atoms: C23_41  and  O7_44 
ROOT
HETATM    1  C11 UNL     1      55.133   2.629  39.981  1.00  0.00     0.226 C 
HETATM    2  O3  UNL     1      54.688   3.165  38.926  1.00  0.00    -0.273 OA
HETATM    3  N4  UNL     1      56.155   1.672  39.815  1.00  0.00    -0.347 N 
ATOM      4  H4  UNL     1      56.540   1.222  40.646  1.00  0.00     0.163 HD
ENDROOT
BRANCH   1   5
HETATM    5  C9  UNL     1      54.572   3.029  41.274  1.00  0.00     0.118 C 
HETATM    6  C10 UNL     1      55.094   2.191  42.423  1.00  0.00     0.024 C 
BRANCH   5   7
HETATM    7  C8  UNL     1      54.862   4.483  41.614  1.00  0.00     0.218 C 
BRANCH   7   8
HETATM    8  N2  UNL     1      53.612   5.187  41.800  1.00  0.00    -0.336 N 
HETATM    9  C7  UNL     1      53.052   5.330  43.094  1.00  0.00     0.250 C 
HETATM   10  O1  UNL     1      53.653   4.844  44.070  1.00  0.00    -0.271 OA
ATOM     11  H2  UNL     1      53.130   5.583  40.994  1.00  0.00     0.164 HD
BRANCH   9  12
HETATM   12  C6  UNL     1      51.771   6.045  43.307  1.00  0.00     0.278 C 
BRANCH  12  13
HETATM   13  C4  UNL     1      50.638   5.153  43.681  1.00  0.00     0.021 C 
HETATM   14  C5  UNL     1      50.479   5.101  45.187  1.00  0.00     0.012 C 
BRANCH  13  15
HETATM   15  C3  UNL     1      49.381   5.508  42.974  1.00  0.00     0.006 C 
BRANCH  15  16
HETATM   16  C2  UNL     1      48.146   5.119  43.805  1.00  0.00    -0.004 C 
HETATM   17  C1  UNL     1      47.162   4.463  42.897  1.00  0.00     0.005 C 
ENDBRANCH  15  16
ENDBRANCH  13  15
ENDBRANCH  12  13
BRANCH  12  18
HETATM   18  N1  UNL     1      51.474   6.740  42.044  1.00  0.00    -0.066 N 
ATOM     19  H13 UNL     1      50.739   7.439  42.157  1.00  0.00     0.275 HD
ATOM     20  H12 UNL     1      52.232   7.363  41.764  1.00  0.00     0.275 HD
ATOM     21  H11 UNL     1      51.248   6.063  41.314  1.00  0.00     0.275 HD
ENDBRANCH  12  18
ENDBRANCH   9  12
ENDBRANCH   7   8
BRANCH   7  22
HETATM   22  N3  UNL     1      55.709   5.110  40.662  1.00  0.00    -0.281 N 
ATOM     23  H3  UNL     1      56.140   4.532  39.941  1.00  0.00     0.189 HD
BRANCH  22  24
HETATM   24  O2  UNL     1      55.941   6.286  40.662  1.00  0.00    -0.292 OA
ATOM     25  H2  UNL     1      56.557   6.695  40.066  1.00  0.00     0.244 HD
ENDBRANCH  22  24
ENDBRANCH   7  22
ENDBRANCH   5   7
ENDBRANCH   1   5
BRANCH   3  26
HETATM   26  C12 UNL     1      56.697   1.291  38.489  1.00  0.00     0.177 C 
BRANCH  26  27
HETATM   27  C13 UNL     1      56.128  -0.078  38.233  1.00  0.00     0.039 C 
BRANCH  27  28
HETATM   28  C14 UNL     1      55.311  -0.265  37.018  1.00  0.00    -0.012 C 
HETATM   29  C15 UNL     1      54.303   0.826  36.770  1.00  0.00     0.005 C 
HETATM   30  C16 UNL     1      52.883   0.427  37.080  1.00  0.00     0.000 C 
HETATM   31  C17 UNL     1      52.787  -0.194  38.457  1.00  0.00     0.000 C 
HETATM   32  C18 UNL     1      53.595  -1.455  38.435  1.00  0.00     0.000 C 
HETATM   33  C19 UNL     1      54.487  -1.548  37.238  1.00  0.00     0.005 C 
ENDBRANCH  27  28
ENDBRANCH  26  27
BRANCH  26  34
HETATM   34  C20 UNL     1      58.177   1.304  38.683  1.00  0.00     0.241 C 
HETATM   35  O4  UNL     1      58.805   2.416  38.815  1.00  0.00    -0.271 OA
HETATM   36  N5  UNL     1      58.971   0.154  38.734  1.00  0.00    -0.344 N 
ATOM     37  H5  UNL     1      58.532  -0.760  38.630  1.00  0.00     0.163 HD
BRANCH  36  38
HETATM   38  C21 UNL     1      60.397   0.233  38.932  1.00  0.00     0.200 C 
BRANCH  38  39
HETATM   39  C22 UNL     1      61.072  -0.390  37.785  1.00  0.00     0.261 C 
HETATM   40  O5  UNL     1      60.865  -1.545  37.504  1.00  0.00    -0.304 OA
ENDBRANCH  38  39
BRANCH  38  41
HETATM   41  C23 UNL     1      60.799  -0.535  40.192  1.00  0.00     0.283 C 
BRANCH  41  42
HETATM   42  O6  UNL     1      59.938  -1.618  40.333  1.00  0.00    -0.369 OA
ATOM     43  H6  UNL     1      60.434  -2.413  40.177  1.00  0.00     0.212 HD
ENDBRANCH  41  42
BRANCH  41  44
HETATM   44  O7  UNL     1      62.084  -1.065  40.035  1.00  0.00    -0.369 OA
ATOM     45  H7  UNL     1      62.063  -1.784  39.414  1.00  0.00     0.212 HD
ENDBRANCH  41  44
ENDBRANCH  38  41
ENDBRANCH  36  38
ENDBRANCH  26  34
ENDBRANCH   3  26
TORSDOF 19
ENDMDL
MODEL 4
REMARK VINA RESULT: -6.477407873      1.433      1.774
REMARK  19 active torsions:
REMARK  status: ('A' for Active; 'I' for Inactive)
REMARK    1  A    between atoms: C2_2  and  C3_3 
REMARK    2  A    between atoms: C3_3  and  C4_4 
REMARK    3  A    between atoms: C4_4  and  C6_6 
REMARK    4  A    between atoms: C6_6  and  N1_7 
REMARK    5  A    between atoms: C6_6  and  C7_11 
REMARK       I    between atoms: C7_11  and  N2_13 
REMARK    6  A    between atoms: N2_13  and  C8_15 
REMARK    7  A    between atoms: C8_15  and  N3_16 
REMARK    8  A    between atoms: C8_15  and  C9_20 
REMARK    9  A    between atoms: N3_16  and  O2_18 
REMARK   10  A    between atoms: C9_20  and  C11_22 
REMARK       I    between atoms: C11_22  and  N4_24 
REMARK   11  A    between atoms: N4_24  and  C12_26 
REMARK   12  A    between atoms: C12_26  and  C13_27 
REMARK   13  A    between atoms: C12_26  and  C20_34 
REMARK   14  A    between atoms: C13_27  and  C14_28 
REMARK       I    between atoms: C20_34  and  N5_36 
REMARK   15  A    between atoms: N5_36  and  C21_38 
REMARK   16  A    between atoms: C21_38  and  C22_39 
REMARK   17  A    between atoms: C21_38  and  C23_41 
REMARK   18  A    between atoms: C23_41  and  O6_42 
REMARK   19  A    between atoms: C23_41  and  O7_44 
ROOT
HETATM    1  C11 UNL     1      59.248   0.261  38.973  1.00  0.00     0.226 C 
HETATM    2  O3  UNL     1      59.702  -0.396  39.952  1.00  0.00    -0.273 OA
HETATM    3  N4  UNL     1      57.865   0.539  38.991  1.00  0.00    -0.347 N 
ATOM      4  H4  UNL     1      57.465   1.070  38.217  1.00  0.00     0.163 HD
ENDROOT
BRANCH   1   5
HETATM    5  C9  UNL     1      60.165   0.681  37.909  1.00  0.00     0.118 C 
HETATM    6  C10 UNL     1      60.463   2.165  37.946  1.00  0.00     0.024 C 
BRANCH   5   7
HETATM    7  C8  UNL     1      61.501  -0.046  37.968  1.00  0.00     0.218 C 
BRANCH   7   8
HETATM    8  N2  UNL     1      62.444   0.623  37.100  1.00  0.00    -0.336 N 
HETATM    9  C7  UNL     1      63.817   0.274  37.124  1.00  0.00     0.250 C 
HETATM   10  O1  UNL     1      64.200  -0.619  37.902  1.00  0.00    -0.271 OA
ATOM     11  H2  UNL     1      62.119   1.352  36.465  1.00  0.00     0.164 HD
BRANCH   9  12
HETATM   12  C6  UNL     1      64.802   0.948  36.244  1.00  0.00     0.278 C 
BRANCH  12  13
HETATM   13  C4  UNL     1      64.448   2.357  35.912  1.00  0.00     0.021 C 
HETATM   14  C5  UNL     1      64.838   3.283  37.045  1.00  0.00     0.012 C 
BRANCH  13  15
HETATM   15  C3  UNL     1      64.992   2.781  34.597  1.00  0.00     0.006 C 
BRANCH  15  16
HETATM   16  C2  UNL     1      65.816   4.074  34.726  1.00  0.00    -0.004 C 
HETATM   17  C1  UNL     1      65.657   4.856  33.466  1.00  0.00     0.005 C 
ENDBRANCH  15  16
ENDBRANCH  13  15
ENDBRANCH  12  13
BRANCH  12  18
HETATM   18  N1  UNL     1      64.876   0.140  35.016  1.00  0.00    -0.066 N 
ATOM     19  H13 UNL     1      64.611   0.677  34.190  1.00  0.00     0.275 HD
ATOM     20  H12 UNL     1      65.840  -0.071  34.756  1.00  0.00     0.275 HD
ATOM     21  H11 UNL     1      64.314  -0.706  35.117  1.00  0.00     0.275 HD
ENDBRANCH  12  18
ENDBRANCH   9  12
ENDBRANCH   7   8
BRANCH   7  22
HETATM   22  N3  UNL     1      61.383  -1.433  37.687  1.00  0.00    -0.281 N 
ATOM     23  H3  UNL     1      61.022  -1.715  36.776  1.00  0.00     0.189 HD
BRANCH  22  24
HETATM   24  O2  UNL     1      61.687  -2.290  38.468  1.00  0.00    -0.292 OA
ATOM     25  H2  UNL     1      62.567  -2.642  38.538  1.00  0.00     0.244 HD
ENDBRANCH  22  24
ENDBRANCH   7  22
ENDBRANCH   5   7
ENDBRANCH   1   5
BRANCH   3  26
HETATM   26  C12 UNL     1      56.967   0.096  40.083  1.00  0.00     0.177 C 
BRANCH  26  27
HETATM   27  C13 UNL     1      55.735  -0.400  39.376  1.00  0.00     0.039 C 
BRANCH  27  28
HETATM   28  C14 UNL     1      55.708  -0.315  37.903  1.00  0.00    -0.012 C 
HETATM   29  C15 UNL     1      55.053   0.929  37.362  1.00  0.00     0.005 C 
HETATM   30  C16 UNL     1      53.677   0.695  36.791  1.00  0.00     0.000 C 
HETATM   31  C17 UNL     1      52.815  -0.077  37.766  1.00  0.00     0.000 C 
HETATM   32  C18 UNL     1      53.442  -1.425  37.946  1.00  0.00     0.000 C 
HETATM   33  C19 UNL     1      54.838  -1.488  37.413  1.00  0.00     0.005 C 
ENDBRANCH  27  28
ENDBRANCH  26  27
BRANCH  26  34
HETATM   34  C20 UNL     1      56.745   1.328  40.895  1.00  0.00     0.241 C 
HETATM   35  O4  UNL     1      56.840   1.288  42.175  1.00  0.00    -0.271 OA
HETATM   36  N5  UNL     1      56.427   2.577  40.353  1.00  0.00    -0.344 N 
ATOM     37  H5  UNL     1      56.331   2.672  39.342  1.00  0.00     0.163 HD
BRANCH  36  38
HETATM   38  C21 UNL     1      56.232   3.733  41.192  1.00  0.00     0.200 C 
BRANCH  38  39
HETATM   39  C22 UNL     1      54.791   3.997  41.312  1.00  0.00     0.261 C 
HETATM   40  O5  UNL     1      54.050   3.796  40.381  1.00  0.00    -0.304 OA
ENDBRANCH  38  39
BRANCH  38  41
HETATM   41  C23 UNL     1      56.885   4.962  40.558  1.00  0.00     0.283 C 
BRANCH  41  42
HETATM   42  O6  UNL     1      55.944   5.985  40.525  1.00  0.00    -0.369 OA
ATOM     43  H6  UNL     1      55.636   6.075  39.631  1.00  0.00     0.212 HD
ENDBRANCH  41  42
BRANCH  41  44
HETATM   44  O7  UNL     1      57.935   5.412  41.366  1.00  0.00    -0.369 OA
ATOM     45  H7  UNL     1      58.272   6.234  41.029  1.00  0.00     0.212 HD
ENDBRANCH  41  44
ENDBRANCH  38  41
ENDBRANCH  36  38
ENDBRANCH  26  34
ENDBRANCH   3  26
TORSDOF 19
ENDMDL
MODEL 5
REMARK VINA RESULT: -6.419141966      3.015      9.463
REMARK  19 active torsions:
REMARK  status: ('A' for Active; 'I' for Inactive)
REMARK    1  A    between atoms: C2_2  and  C3_3 
REMARK    2  A    between atoms: C3_3  and  C4_4 
REMARK    3  A    between atoms: C4_4  and  C6_6 
REMARK    4  A    between atoms: C6_6  and  N1_7 
REMARK    5  A    between atoms: C6_6  and  C7_11 
REMARK       I    between atoms: C7_11  and  N2_13 
REMARK    6  A    between atoms: N2_13  and  C8_15 
REMARK    7  A    between atoms: C8_15  and  N3_16 
REMARK    8  A    between atoms: C8_15  and  C9_20 
REMARK    9  A    between atoms: N3_16  and  O2_18 
REMARK   10  A    between atoms: C9_20  and  C11_22 
REMARK       I    between atoms: C11_22  and  N4_24 
REMARK   11  A    between atoms: N4_24  and  C12_26 
REMARK   12  A    between atoms: C12_26  and  C13_27 
REMARK   13  A    between atoms: C12_26  and  C20_34 
REMARK   14  A    between atoms: C13_27  and  C14_28 
REMARK       I    between atoms: C20_34  and  N5_36 
REMARK   15  A    between atoms: N5_36  and  C21_38 
REMARK   16  A    between atoms: C21_38  and  C22_39 
REMARK   17  A    between atoms: C21_38  and  C23_41 
REMARK   18  A    between atoms: C23_41  and  O6_42 
REMARK   19  A    between atoms: C23_41  and  O7_44 
ROOT
HETATM    1  C11 UNL     1      55.101   2.483  40.594  1.00  0.00     0.226 C 
HETATM    2  O3  UNL     1      54.595   2.801  39.480  1.00  0.00    -0.273 OA
HETATM    3  N4  UNL     1      56.199   1.599  40.554  1.00  0.00    -0.347 N 
ATOM      4  H4  UNL     1      56.633   1.323  41.436  1.00  0.00     0.163 HD
ENDROOT
BRANCH   1   5
HETATM    5  C9  UNL     1      54.527   3.040  41.822  1.00  0.00     0.118 C 
HETATM    6  C10 UNL     1      54.945   2.277  43.061  1.00  0.00     0.024 C 
BRANCH   5   7
HETATM    7  C8  UNL     1      54.915   4.495  42.041  1.00  0.00     0.218 C 
BRANCH   7   8
HETATM    8  N2  UNL     1      53.912   5.136  42.862  1.00  0.00    -0.336 N 
HETATM    9  C7  UNL     1      52.628   5.424  42.337  1.00  0.00     0.250 C 
HETATM   10  O1  UNL     1      52.373   5.114  41.159  1.00  0.00    -0.271 OA
ATOM     11  H2  UNL     1      54.131   5.384  43.827  1.00  0.00     0.164 HD
BRANCH   9  12
HETATM   12  C6  UNL     1      51.586   6.082  43.162  1.00  0.00     0.278 C 
BRANCH  12  13
HETATM   13  C4  UNL     1      51.242   5.339  44.405  1.00  0.00     0.021 C 
HETATM   14  C5  UNL     1      51.013   6.300  45.553  1.00  0.00     0.012 C 
BRANCH  13  15
HETATM   15  C3  UNL     1      50.116   4.391  44.205  1.00  0.00     0.006 C 
BRANCH  15  16
HETATM   16  C2  UNL     1      50.350   3.078  44.973  1.00  0.00    -0.004 C 
HETATM   17  C1  UNL     1      51.801   2.744  44.894  1.00  0.00     0.005 C 
ENDBRANCH  15  16
ENDBRANCH  13  15
ENDBRANCH  12  13
BRANCH  12  18
HETATM   18  N1  UNL     1      50.399   6.206  42.299  1.00  0.00    -0.066 N 
ATOM     19  H13 UNL     1      49.909   7.089  42.450  1.00  0.00     0.275 HD
ATOM     20  H12 UNL     1      50.651   6.340  41.320  1.00  0.00     0.275 HD
ATOM     21  H11 UNL     1      49.784   5.402  42.429  1.00  0.00     0.275 HD
ENDBRANCH  12  18
ENDBRANCH   9  12
ENDBRANCH   7   8
BRANCH   7  22
HETATM   22  N3  UNL     1      55.153   5.188  40.824  1.00  0.00    -0.281 N 
ATOM     23  H3  UNL     1      54.667   4.875  39.984  1.00  0.00     0.189 HD
BRANCH  22  24
HETATM   24  O2  UNL     1      55.898   6.123  40.735  1.00  0.00    -0.292 OA
ATOM     25  H2  UNL     1      55.759   6.844  40.132  1.00  0.00     0.244 HD
ENDBRANCH  22  24
ENDBRANCH   7  22
ENDBRANCH   5   7
ENDBRANCH   1   5
BRANCH   3  26
HETATM   26  C12 UNL     1      56.751   1.053  39.292  1.00  0.00     0.177 C 
BRANCH  26  27
HETATM   27  C13 UNL     1      55.908  -0.161  39.010  1.00  0.00     0.039 C 
BRANCH  27  28
HETATM   28  C14 UNL     1      55.646  -0.502  37.599  1.00  0.00    -0.012 C 
HETATM   29  C15 UNL     1      55.143   0.645  36.763  1.00  0.00     0.005 C 
HETATM   30  C16 UNL     1      53.670   0.569  36.447  1.00  0.00     0.000 C 
HETATM   31  C17 UNL     1      52.863   0.326  37.703  1.00  0.00     0.000 C 
HETATM   32  C18 UNL     1      53.259  -1.017  38.235  1.00  0.00     0.000 C 
HETATM   33  C19 UNL     1      54.509  -1.541  37.604  1.00  0.00     0.005 C 
ENDBRANCH  27  28
ENDBRANCH  26  27
BRANCH  26  34
HETATM   34  C20 UNL     1      58.172   0.739  39.622  1.00  0.00     0.241 C 
HETATM   35  O4  UNL     1      58.657   1.051  40.769  1.00  0.00    -0.271 OA
HETATM   36  N5  UNL     1      59.059   0.105  38.746  1.00  0.00    -0.344 N 
ATOM     37  H5  UNL     1      58.736  -0.163  37.817  1.00  0.00     0.163 HD
BRANCH  36  38
HETATM   38  C21 UNL     1      60.420  -0.179  39.127  1.00  0.00     0.200 C 
BRANCH  38  39
HETATM   39  C22 UNL     1      61.294   0.033  37.965  1.00  0.00     0.261 C 
HETATM   40  O5  UNL     1      61.227  -0.695  37.005  1.00  0.00    -0.304 OA
ENDBRANCH  38  39
BRANCH  38  41
HETATM   41  C23 UNL     1      60.555  -1.639  39.560  1.00  0.00     0.283 C 
BRANCH  41  42
HETATM   42  O6  UNL     1      60.064  -1.754  40.856  1.00  0.00    -0.369 OA
ATOM     43  H6  UNL     1      59.585  -2.573  40.919  1.00  0.00     0.212 HD
ENDBRANCH  41  42
BRANCH  41  44
HETATM   44  O7  UNL     1      59.750  -2.450  38.754  1.00  0.00    -0.369 OA
ATOM     45  H7  UNL     1      60.285  -3.097  38.310  1.00  0.00     0.212 HD
ENDBRANCH  41  44
ENDBRANCH  38  41
ENDBRANCH  36  38
ENDBRANCH  26  34
ENDBRANCH   3  26
TORSDOF 19
ENDMDL
