MODEL 1
REMARK VINA RESULT: -7.063312783      0.000      0.000
REMARK  16 active torsions:
REMARK  status: ('A' for Active; 'I' for Inactive)
REMARK    1  A    between atoms: C2_2  and  C3_3 
REMARK    2  A    between atoms: C3_3  and  C4_4 
REMARK    3  A    between atoms: C4_4  and  O1_6 
REMARK    4  A    between atoms: O1_6  and  C6_7 
REMARK    5  A    between atoms: C6_7  and  C7_8 
REMARK    6  A    between atoms: C6_7  and  C12_16 
REMARK    7  A    between atoms: C7_8  and  C8_9 
REMARK       I    between atoms: C12_16  and  N2_18 
REMARK    8  A    between atoms: N2_18  and  C13_20 
REMARK    9  A    between atoms: C13_20  and  O3_21 
REMARK   10  A    between atoms: C13_20  and  C14_23 
REMARK   11  A    between atoms: C14_23  and  C15_24 
REMARK   12  A    between atoms: C14_23  and  C19_32 
REMARK   13  A    between atoms: C15_24  and  C16_25 
REMARK   14  A    between atoms: C16_25  and  C17_26 
REMARK   15  A    between atoms: C17_26  and  N3_27 
REMARK       I    between atoms: C19_32  and  N6_34 
REMARK   16  A    between atoms: N6_34  and  C20_36 
ROOT
HETATM    1  C13 UNL     1      54.995   0.882  39.545  1.00  0.00     0.233 C 
ENDROOT
BRANCH   1   2
HETATM    2  N2  UNL     1      55.223   1.941  40.464  1.00  0.00    -0.332 N 
HETATM    3  C12 UNL     1      54.892   3.291  40.250  1.00  0.00     0.248 C 
HETATM    4  O2  UNL     1      54.358   3.652  39.206  1.00  0.00    -0.271 OA
ATOM      5  H2  UNL     1      55.663   1.703  41.352  1.00  0.00     0.165 HD
BRANCH   3   6
HETATM    6  C6  UNL     1      55.202   4.359  41.345  1.00  0.00     0.214 C 
BRANCH   6   7
HETATM    7  O1  UNL     1      54.085   5.048  41.634  1.00  0.00    -0.372 OA
BRANCH   7   8
HETATM    8  C4  UNL     1      53.289   4.461  42.641  1.00  0.00     0.118 C 
HETATM    9  C5  UNL     1      54.010   3.977  43.838  1.00  0.00     0.039 C 
BRANCH   8  10
HETATM   10  C3  UNL     1      52.216   5.424  42.990  1.00  0.00     0.031 C 
BRANCH  10  11
HETATM   11  C2  UNL     1      51.345   5.994  41.948  1.00  0.00    -0.002 C 
HETATM   12  C1  UNL     1      49.883   6.055  42.183  1.00  0.00     0.005 C 
ENDBRANCH  10  11
ENDBRANCH   8  10
ENDBRANCH   7   8
ENDBRANCH   6   7
BRANCH   6  13
HETATM   13  C7  UNL     1      56.270   5.132  40.671  1.00  0.00     0.048 C 
BRANCH  13  14
HETATM   14  C8  UNL     1      57.689   4.855  40.910  1.00  0.00     0.016 C 
HETATM   15  C9  UNL     1      57.986   4.054  42.119  1.00  0.00     0.034 C 
HETATM   16  C10 UNL     1      58.803   4.982  42.998  1.00  0.00     0.232 C 
HETATM   17  N1  UNL     1      59.429   5.882  42.057  1.00  0.00    -0.075 N 
HETATM   18  C11 UNL     1      58.397   6.200  41.078  1.00  0.00     0.237 C 
ATOM     19  H12 UNL     1      59.849   6.703  42.491  1.00  0.00     0.277 HD
ATOM     20  H11 UNL     1      60.286   5.513  41.645  1.00  0.00     0.277 HD
ENDBRANCH  13  14
ENDBRANCH   6  13
ENDBRANCH   3   6
ENDBRANCH   1   2
BRANCH   1  21
HETATM   21  O3  UNL     1      55.403  -0.312  40.192  1.00  0.00    -0.376 OA
ATOM     22  H3  UNL     1      55.262  -1.020  39.573  1.00  0.00     0.212 HD
ENDBRANCH   1  21
BRANCH   1  23
HETATM   23  C14 UNL     1      55.726   1.006  38.218  1.00  0.00     0.126 C 
BRANCH  23  24
HETATM   24  C15 UNL     1      55.035   0.180  37.163  1.00  0.00     0.020 C 
BRANCH  24  25
HETATM   25  C16 UNL     1      53.560   0.344  37.074  1.00  0.00     0.021 C 
BRANCH  25  26
HETATM   26  C17 UNL     1      53.194   1.601  36.291  1.00  0.00     0.122 C 
BRANCH  26  27
HETATM   27  N3  UNL     1      51.789   1.579  36.036  1.00  0.00    -0.367 N 
HETATM   28  C18 UNL     1      51.318   2.068  34.949  1.00  0.00     0.196 C 
HETATM   29  N4  UNL     1      49.925   2.072  34.645  1.00  0.00    -0.067 NA
HETATM   30  N5  UNL     1      52.224   2.630  34.009  1.00  0.00    -0.067 NA
ATOM     31  H3  UNL     1      51.155   1.171  36.723  1.00  0.00     0.161 HD
ENDBRANCH  26  27
ENDBRANCH  25  26
ENDBRANCH  24  25
ENDBRANCH  23  24
BRANCH  23  32
HETATM   32  C19 UNL     1      57.159   0.725  38.347  1.00  0.00     0.226 C 
HETATM   33  O4  UNL     1      57.580  -0.459  38.468  1.00  0.00    -0.273 OA
HETATM   34  N6  UNL     1      58.104   1.772  38.339  1.00  0.00    -0.356 N 
ATOM     35  H6  UNL     1      57.771   2.731  38.243  1.00  0.00     0.162 HD
BRANCH  34  36
HETATM   36  C20 UNL     1      59.509   1.544  38.458  1.00  0.00     0.087 C 
HETATM   37  C21 UNL     1      60.071   1.973  39.793  1.00  0.00     0.044 C 
HETATM   38  C22 UNL     1      61.471   1.402  39.887  1.00  0.00     0.115 C 
HETATM   39  N7  UNL     1      61.907   0.796  38.671  1.00  0.00    -0.421 N 
HETATM   40  C23 UNL     1      61.745   1.607  37.502  1.00  0.00     0.115 C 
ATOM     41  H7  UNL     1      62.304  -0.142  38.636  1.00  0.00     0.153 HD
HETATM   42  C24 UNL     1      60.340   2.177  37.373  1.00  0.00     0.044 C 
ENDBRANCH  34  36
ENDBRANCH  23  32
ENDBRANCH   1  23
TORSDOF 16
ENDMDL
MODEL 2
REMARK VINA RESULT: -6.933897963      1.562      1.674
REMARK  16 active torsions:
REMARK  status: ('A' for Active; 'I' for Inactive)
REMARK    1  A    between atoms: C2_2  and  C3_3 
REMARK    2  A    between atoms: C3_3  and  C4_4 
REMARK    3  A    between atoms: C4_4  and  O1_6 
REMARK    4  A    between atoms: O1_6  and  C6_7 
REMARK    5  A    between atoms: C6_7  and  C7_8 
REMARK    6  A    between atoms: C6_7  and  C12_16 
REMARK    7  A    between atoms: C7_8  and  C8_9 
REMARK       I    between atoms: C12_16  and  N2_18 
REMARK    8  A    between atoms: N2_18  and  C13_20 
REMARK    9  A    between atoms: C13_20  and  O3_21 
REMARK   10  A    between atoms: C13_20  and  C14_23 
REMARK   11  A    between atoms: C14_23  and  C15_24 
REMARK   12  A    between atoms: C14_23  and  C19_32 
REMARK   13  A    between atoms: C15_24  and  C16_25 
REMARK   14  A    between atoms: C16_25  and  C17_26 
REMARK   15  A    between atoms: C17_26  and  N3_27 
REMARK       I    between atoms: C19_32  and  N6_34 
REMARK   16  A    between atoms: N6_34  and  C20_36 
ROOT
HETATM    1  C13 UNL     1      54.809   1.462  39.215  1.00  0.00     0.233 C 
ENDROOT
BRANCH   1   2
HETATM    2  N2  UNL     1      54.783   2.757  39.798  1.00  0.00    -0.332 N 
HETATM    3  C12 UNL     1      55.600   3.191  40.856  1.00  0.00     0.248 C 
HETATM    4  O2  UNL     1      56.428   2.441  41.363  1.00  0.00    -0.271 OA
ATOM      5  H2  UNL     1      54.115   3.427  39.417  1.00  0.00     0.165 HD
BRANCH   3   6
HETATM    6  C6  UNL     1      55.465   4.646  41.408  1.00  0.00     0.214 C 
BRANCH   6   7
HETATM    7  O1  UNL     1      54.211   5.088  41.217  1.00  0.00    -0.372 OA
BRANCH   7   8
HETATM    8  C4  UNL     1      53.317   4.755  42.257  1.00  0.00     0.118 C 
HETATM    9  C5  UNL     1      53.801   5.001  43.632  1.00  0.00     0.039 C 
BRANCH   8  10
HETATM   10  C3  UNL     1      52.032   5.444  41.988  1.00  0.00     0.031 C 
BRANCH  10  11
HETATM   11  C2  UNL     1      50.995   5.545  43.030  1.00  0.00    -0.002 C 
HETATM   12  C1  UNL     1      49.603   5.865  42.635  1.00  0.00     0.005 C 
ENDBRANCH  10  11
ENDBRANCH   8  10
ENDBRANCH   7   8
ENDBRANCH   6   7
BRANCH   6  13
HETATM   13  C7  UNL     1      56.510   5.331  40.614  1.00  0.00     0.048 C 
BRANCH  13  14
HETATM   14  C8  UNL     1      57.732   5.850  41.234  1.00  0.00     0.016 C 
HETATM   15  C9  UNL     1      58.919   4.970  41.136  1.00  0.00     0.034 C 
HETATM   16  C10 UNL     1      59.249   4.617  42.574  1.00  0.00     0.232 C 
HETATM   17  N1  UNL     1      58.730   5.734  43.329  1.00  0.00    -0.075 N 
HETATM   18  C11 UNL     1      57.443   6.048  42.722  1.00  0.00     0.237 C 
ATOM     19  H12 UNL     1      58.680   5.563  44.333  1.00  0.00     0.277 HD
ATOM     20  H11 UNL     1      59.367   6.529  43.375  1.00  0.00     0.277 HD
ENDBRANCH  13  14
ENDBRANCH   6  13
ENDBRANCH   3   6
ENDBRANCH   1   2
BRANCH   1  21
HETATM   21  O3  UNL     1      54.974   0.539  40.279  1.00  0.00    -0.376 OA
ATOM     22  H3  UNL     1      54.523   0.907  41.031  1.00  0.00     0.212 HD
ENDBRANCH   1  21
BRANCH   1  23
HETATM   23  C14 UNL     1      55.903   1.236  38.184  1.00  0.00     0.126 C 
BRANCH  23  24
HETATM   24  C15 UNL     1      55.297   0.943  36.835  1.00  0.00     0.020 C 
BRANCH  24  25
HETATM   25  C16 UNL     1      53.812   0.891  36.788  1.00  0.00     0.021 C 
BRANCH  25  26
HETATM   26  C17 UNL     1      53.258   1.920  35.809  1.00  0.00     0.122 C 
BRANCH  26  27
HETATM   27  N3  UNL     1      51.837   1.780  35.764  1.00  0.00    -0.367 N 
HETATM   28  C18 UNL     1      51.184   2.110  34.713  1.00  0.00     0.196 C 
HETATM   29  N4  UNL     1      49.767   1.991  34.616  1.00  0.00    -0.067 NA
HETATM   30  N5  UNL     1      51.904   2.618  33.598  1.00  0.00    -0.067 NA
ATOM     31  H3  UNL     1      51.339   1.413  36.575  1.00  0.00     0.161 HD
ENDBRANCH  26  27
ENDBRANCH  25  26
ENDBRANCH  24  25
ENDBRANCH  23  24
BRANCH  23  32
HETATM   32  C19 UNL     1      56.882   0.238  38.625  1.00  0.00     0.226 C 
HETATM   33  O4  UNL     1      56.746  -0.980  38.325  1.00  0.00    -0.273 OA
HETATM   34  N6  UNL     1      58.001   0.615  39.397  1.00  0.00    -0.356 N 
ATOM     35  H6  UNL     1      58.116   1.597  39.645  1.00  0.00     0.162 HD
BRANCH  34  36
HETATM   36  C20 UNL     1      58.980  -0.323  39.844  1.00  0.00     0.087 C 
HETATM   37  C21 UNL     1      59.534   0.000  41.213  1.00  0.00     0.044 C 
HETATM   38  C22 UNL     1      60.310  -1.216  41.673  1.00  0.00     0.115 C 
HETATM   39  N7  UNL     1      60.441  -2.210  40.658  1.00  0.00    -0.421 N 
HETATM   40  C23 UNL     1      60.917  -1.725  39.398  1.00  0.00     0.115 C 
ATOM     41  H7  UNL     1      60.212  -3.191  40.818  1.00  0.00     0.153 HD
HETATM   42  C24 UNL     1      60.139  -0.515  38.902  1.00  0.00     0.044 C 
ENDBRANCH  34  36
ENDBRANCH  23  32
ENDBRANCH   1  23
TORSDOF 16
ENDMDL
MODEL 3
REMARK VINA RESULT: -6.865284965      1.069      1.222
REMARK  16 active torsions:
REMARK  status: ('A' for Active; 'I' for Inactive)
REMARK    1  A    between atoms: C2_2  and  C3_3 
REMARK    2  A    between atoms: C3_3  and  C4_4 
REMARK    3  A    between atoms: C4_4  and  O1_6 
REMARK    4  A    between atoms: O1_6  and  C6_7 
REMARK    5  A    between atoms: C6_7  and  C7_8 
REMARK    6  A    between atoms: C6_7  and  C12_16 
REMARK    7  A    between atoms: C7_8  and  C8_9 
REMARK       I    between atoms: C12_16  and  N2_18 
REMARK    8  A    between atoms: N2_18  and  C13_20 
REMARK    9  A    between atoms: C13_20  and  O3_21 
REMARK   10  A    between atoms: C13_20  and  C14_23 
REMARK   11  A    between atoms: C14_23  and  C15_24 
REMARK   12  A    between atoms: C14_23  and  C19_32 
REMARK   13  A    between atoms: C15_24  and  C16_25 
REMARK   14  A    between atoms: C16_25  and  C17_26 
REMARK   15  A    between atoms: C17_26  and  N3_27 
REMARK       I    between atoms: C19_32  and  N6_34 
REMARK   16  A    between atoms: N6_34  and  C20_36 
ROOT
HETATM    1  C13 UNL     1      55.928   0.349  40.358  1.00  0.00     0.233 C 
ENDROOT
BRANCH   1   2
HETATM    2  N2  UNL     1      55.944   1.659  40.906  1.00  0.00    -0.332 N 
HETATM    3  C12 UNL     1      55.178   2.745  40.446  1.00  0.00     0.248 C 
HETATM    4  O2  UNL     1      54.410   2.619  39.497  1.00  0.00    -0.271 OA
ATOM      5  H2  UNL     1      56.562   1.826  41.700  1.00  0.00     0.165 HD
BRANCH   3   6
HETATM    6  C6  UNL     1      55.295   4.139  41.139  1.00  0.00     0.214 C 
BRANCH   6   7
HETATM    7  O1  UNL     1      54.124   4.791  41.044  1.00  0.00    -0.372 OA
BRANCH   7   8
HETATM    8  C4  UNL     1      53.315   4.695  42.196  1.00  0.00     0.118 C 
HETATM    9  C5  UNL     1      53.968   5.036  43.478  1.00  0.00     0.039 C 
BRANCH   8  10
HETATM   10  C3  UNL     1      52.094   5.504  41.962  1.00  0.00     0.031 C 
BRANCH  10  11
HETATM   11  C2  UNL     1      51.004   5.533  42.953  1.00  0.00    -0.002 C 
HETATM   12  C1  UNL     1      49.639   5.908  42.515  1.00  0.00     0.005 C 
ENDBRANCH  10  11
ENDBRANCH   8  10
ENDBRANCH   7   8
ENDBRANCH   6   7
BRANCH   6  13
HETATM   13  C7  UNL     1      56.415   4.727  40.370  1.00  0.00     0.048 C 
BRANCH  13  14
HETATM   14  C8  UNL     1      57.642   5.187  41.026  1.00  0.00     0.016 C 
HETATM   15  C9  UNL     1      58.035   4.435  42.239  1.00  0.00     0.034 C 
HETATM   16  C10 UNL     1      57.960   5.455  43.359  1.00  0.00     0.232 C 
HETATM   17  N1  UNL     1      58.183   6.715  42.690  1.00  0.00    -0.075 N 
HETATM   18  C11 UNL     1      57.419   6.639  41.452  1.00  0.00     0.237 C 
ATOM     19  H12 UNL     1      57.958   7.530  43.262  1.00  0.00     0.277 HD
ATOM     20  H11 UNL     1      59.169   6.937  42.551  1.00  0.00     0.277 HD
ENDBRANCH  13  14
ENDBRANCH   6  13
ENDBRANCH   3   6
ENDBRANCH   1   2
BRANCH   1  21
HETATM   21  O3  UNL     1      56.726  -0.458  41.209  1.00  0.00    -0.376 OA
ATOM     22  H3  UNL     1      57.629  -0.322  40.945  1.00  0.00     0.212 HD
ENDBRANCH   1  21
BRANCH   1  23
HETATM   23  C14 UNL     1      56.444   0.235  38.933  1.00  0.00     0.126 C 
BRANCH  23  24
HETATM   24  C15 UNL     1      55.947  -1.039  38.298  1.00  0.00     0.020 C 
BRANCH  24  25
HETATM   25  C16 UNL     1      54.851  -0.884  37.305  1.00  0.00     0.021 C 
BRANCH  25  26
HETATM   26  C17 UNL     1      54.676   0.577  36.905  1.00  0.00     0.122 C 
BRANCH  26  27
HETATM   27  N3  UNL     1      53.292   0.910  37.013  1.00  0.00    -0.367 N 
HETATM   28  C18 UNL     1      52.730   1.649  36.130  1.00  0.00     0.196 C 
HETATM   29  N4  UNL     1      51.353   2.012  36.190  1.00  0.00    -0.067 NA
HETATM   30  N5  UNL     1      53.515   2.126  35.045  1.00  0.00    -0.067 NA
ATOM     31  H3  UNL     1      52.746   0.558  37.799  1.00  0.00     0.161 HD
ENDBRANCH  26  27
ENDBRANCH  25  26
ENDBRANCH  24  25
ENDBRANCH  23  24
BRANCH  23  32
HETATM   32  C19 UNL     1      57.898   0.410  38.855  1.00  0.00     0.226 C 
HETATM   33  O4  UNL     1      58.669  -0.588  38.816  1.00  0.00    -0.273 OA
HETATM   34  N6  UNL     1      58.470   1.699  38.822  1.00  0.00    -0.356 N 
ATOM     35  H6  UNL     1      57.852   2.509  38.855  1.00  0.00     0.162 HD
BRANCH  34  36
HETATM   36  C20 UNL     1      59.879   1.915  38.743  1.00  0.00     0.087 C 
HETATM   37  C21 UNL     1      60.376   2.965  39.709  1.00  0.00     0.044 C 
HETATM   38  C22 UNL     1      61.887   2.867  39.728  1.00  0.00     0.115 C 
HETATM   39  N7  UNL     1      62.399   1.972  38.742  1.00  0.00    -0.421 N 
HETATM   40  C23 UNL     1      61.900   2.186  37.417  1.00  0.00     0.115 C 
ATOM     41  H7  UNL     1      63.069   1.236  38.964  1.00  0.00     0.153 HD
HETATM   42  C24 UNL     1      60.381   2.267  37.367  1.00  0.00     0.044 C 
ENDBRANCH  34  36
ENDBRANCH  23  32
ENDBRANCH   1  23
TORSDOF 16
ENDMDL
MODEL 4
REMARK VINA RESULT: -6.854841323      3.044      7.147
REMARK  16 active torsions:
REMARK  status: ('A' for Active; 'I' for Inactive)
REMARK    1  A    between atoms: C2_2  and  C3_3 
REMARK    2  A    between atoms: C3_3  and  C4_4 
REMARK    3  A    between atoms: C4_4  and  O1_6 
REMARK    4  A    between atoms: O1_6  and  C6_7 
REMARK    5  A    between atoms: C6_7  and  C7_8 
REMARK    6  A    between atoms: C6_7  and  C12_16 
REMARK    7  A    between atoms: C7_8  and  C8_9 
REMARK       I    between atoms: C12_16  and  N2_18 
REMARK    8  A    between atoms: N2_18  and  C13_20 
REMARK    9  A    between atoms: C13_20  and  O3_21 
REMARK   10  A    between atoms: C13_20  and  C14_23 
REMARK   11  A    between atoms: C14_23  and  C15_24 
REMARK   12  A    between atoms: C14_23  and  C19_32 
REMARK   13  A    between atoms: C15_24  and  C16_25 
REMARK   14  A    between atoms: C16_25  and  C17_26 
REMARK   15  A    between atoms: C17_26  and  N3_27 
REMARK       I    between atoms: C19_32  and  N6_34 
REMARK   16  A    between atoms: N6_34  and  C20_36 
ROOT
HETATM    1  C13 UNL     1      55.953   5.058  41.295  1.00  0.00     0.233 C 
ENDROOT
BRANCH   1   2
HETATM    2  N2  UNL     1      56.187   4.042  40.330  1.00  0.00    -0.332 N 
HETATM    3  C12 UNL     1      55.193   3.274  39.699  1.00  0.00     0.248 C 
HETATM    4  O2  UNL     1      54.005   3.445  39.954  1.00  0.00    -0.271 OA
ATOM      5  H2  UNL     1      57.156   3.854  40.074  1.00  0.00     0.165 HD
BRANCH   3   6
HETATM    6  C6  UNL     1      55.588   2.181  38.656  1.00  0.00     0.214 C 
BRANCH   6   7
HETATM    7  O1  UNL     1      54.588   1.292  38.531  1.00  0.00    -0.372 OA
BRANCH   7   8
HETATM    8  C4  UNL     1      54.240   0.997  37.196  1.00  0.00     0.118 C 
HETATM    9  C5  UNL     1      54.646   1.995  36.184  1.00  0.00     0.039 C 
BRANCH   8  10
HETATM   10  C3  UNL     1      54.758  -0.356  36.881  1.00  0.00     0.031 C 
BRANCH  10  11
HETATM   11  C2  UNL     1      54.322  -1.532  37.655  1.00  0.00    -0.002 C 
HETATM   12  C1  UNL     1      52.881  -1.709  37.949  1.00  0.00     0.005 C 
ENDBRANCH  10  11
ENDBRANCH   8  10
ENDBRANCH   7   8
ENDBRANCH   6   7
BRANCH   6  13
HETATM   13  C7  UNL     1      56.830   1.661  39.270  1.00  0.00     0.048 C 
BRANCH  13  14
HETATM   14  C8  UNL     1      57.741   0.778  38.535  1.00  0.00     0.016 C 
HETATM   15  C9  UNL     1      57.901  -0.582  39.099  1.00  0.00     0.034 C 
HETATM   16  C10 UNL     1      59.363  -0.660  39.493  1.00  0.00     0.232 C 
HETATM   17  N1  UNL     1      60.008   0.276  38.602  1.00  0.00    -0.075 N 
HETATM   18  C11 UNL     1      59.123   1.432  38.547  1.00  0.00     0.237 C 
ATOM     19  H12 UNL     1      60.965   0.505  38.870  1.00  0.00     0.277 HD
ATOM     20  H11 UNL     1      60.231  -0.115  37.687  1.00  0.00     0.277 HD
ENDBRANCH  13  14
ENDBRANCH   6  13
ENDBRANCH   3   6
ENDBRANCH   1   2
BRANCH   1  21
HETATM   21  O3  UNL     1      56.083   6.298  40.619  1.00  0.00    -0.376 OA
ATOM     22  H3  UNL     1      56.801   6.201  40.004  1.00  0.00     0.212 HD
ENDBRANCH   1  21
BRANCH   1  23
HETATM   23  C14 UNL     1      56.889   5.042  42.492  1.00  0.00     0.126 C 
BRANCH  23  24
HETATM   24  C15 UNL     1      56.229   4.355  43.661  1.00  0.00     0.020 C 
BRANCH  24  25
HETATM   25  C16 UNL     1      55.018   3.553  43.343  1.00  0.00     0.021 C 
BRANCH  25  26
HETATM   26  C17 UNL     1      55.355   2.070  43.235  1.00  0.00     0.122 C 
BRANCH  26  27
HETATM   27  N3  UNL     1      54.325   1.427  42.483  1.00  0.00    -0.367 N 
HETATM   28  C18 UNL     1      54.527   0.280  41.950  1.00  0.00     0.196 C 
HETATM   29  N4  UNL     1      53.534  -0.404  41.190  1.00  0.00    -0.067 NA
HETATM   30  N5  UNL     1      55.797  -0.335  42.126  1.00  0.00    -0.067 NA
ATOM     31  H3  UNL     1      53.420   1.886  42.368  1.00  0.00     0.161 HD
ENDBRANCH  26  27
ENDBRANCH  25  26
ENDBRANCH  24  25
ENDBRANCH  23  24
BRANCH  23  32
HETATM   32  C19 UNL     1      57.411   6.376  42.806  1.00  0.00     0.226 C 
HETATM   33  O4  UNL     1      56.653   7.279  43.254  1.00  0.00    -0.273 OA
HETATM   34  N6  UNL     1      58.775   6.681  42.615  1.00  0.00    -0.356 N 
ATOM     35  H6  UNL     1      59.392   5.955  42.251  1.00  0.00     0.162 HD
BRANCH  34  36
HETATM   36  C20 UNL     1      59.326   7.965  42.910  1.00  0.00     0.087 C 
HETATM   37  C21 UNL     1      60.405   8.387  41.940  1.00  0.00     0.044 C 
HETATM   38  C22 UNL     1      60.670   9.858  42.188  1.00  0.00     0.115 C 
HETATM   39  N7  UNL     1      59.984  10.361  43.334  1.00  0.00    -0.421 N 
HETATM   40  C23 UNL     1      60.152   9.585  44.525  1.00  0.00     0.115 C 
ATOM     41  H7  UNL     1      59.418  11.209  43.306  1.00  0.00     0.153 HD
HETATM   42  C24 UNL     1      59.870   8.106  44.307  1.00  0.00     0.044 C 
ENDBRANCH  34  36
ENDBRANCH  23  32
ENDBRANCH   1  23
TORSDOF 16
ENDMDL
MODEL 5
REMARK VINA RESULT: -6.829684733      2.738      6.621
REMARK  16 active torsions:
REMARK  status: ('A' for Active; 'I' for Inactive)
REMARK    1  A    between atoms: C2_2  and  C3_3 
REMARK    2  A    between atoms: C3_3  and  C4_4 
REMARK    3  A    between atoms: C4_4  and  O1_6 
REMARK    4  A    between atoms: O1_6  and  C6_7 
REMARK    5  A    between atoms: C6_7  and  C7_8 
REMARK    6  A    between atoms: C6_7  and  C12_16 
REMARK    7  A    between atoms: C7_8  and  C8_9 
REMARK       I    between atoms: C12_16  and  N2_18 
REMARK    8  A    between atoms: N2_18  and  C13_20 
REMARK    9  A    between atoms: C13_20  and  O3_21 
REMARK   10  A    between atoms: C13_20  and  C14_23 
REMARK   11  A    between atoms: C14_23  and  C15_24 
REMARK   12  A    between atoms: C14_23  and  C19_32 
REMARK   13  A    between atoms: C15_24  and  C16_25 
REMARK   14  A    between atoms: C16_25  and  C17_26 
REMARK   15  A    between atoms: C17_26  and  N3_27 
REMARK       I    between atoms: C19_32  and  N6_34 
REMARK   16  A    between atoms: N6_34  and  C20_36 
ROOT
HETATM    1  C13 UNL     1      54.685   4.238  42.300  1.00  0.00     0.233 C 
ENDROOT
BRANCH   1   2
HETATM    2  N2  UNL     1      55.509   3.412  41.489  1.00  0.00    -0.332 N 
HETATM    3  C12 UNL     1      55.225   3.023  40.168  1.00  0.00     0.248 C 
HETATM    4  O2  UNL     1      54.199   3.394  39.608  1.00  0.00    -0.271 OA
ATOM      5  H2  UNL     1      56.379   3.073  41.900  1.00  0.00     0.165 HD
BRANCH   3   6
HETATM    6  C6  UNL     1      56.218   2.105  39.388  1.00  0.00     0.214 C 
BRANCH   6   7
HETATM    7  O1  UNL     1      55.734   0.853  39.340  1.00  0.00    -0.372 OA
BRANCH   7   8
HETATM    8  C4  UNL     1      55.962   0.192  38.113  1.00  0.00     0.118 C 
HETATM    9  C5  UNL     1      55.297  -1.117  37.947  1.00  0.00     0.039 C 
BRANCH   8  10
HETATM   10  C3  UNL     1      55.617   1.134  37.021  1.00  0.00     0.031 C 
BRANCH  10  11
HETATM   11  C2  UNL     1      54.411   0.930  36.199  1.00  0.00    -0.002 C 
HETATM   12  C1  UNL     1      53.164   1.646  36.556  1.00  0.00     0.005 C 
ENDBRANCH  10  11
ENDBRANCH   8  10
ENDBRANCH   7   8
ENDBRANCH   6   7
BRANCH   6  13
HETATM   13  C7  UNL     1      57.442   2.283  40.201  1.00  0.00     0.048 C 
BRANCH  13  14
HETATM   14  C8  UNL     1      58.644   2.921  39.655  1.00  0.00     0.016 C 
HETATM   15  C9  UNL     1      59.338   2.162  38.590  1.00  0.00     0.034 C 
HETATM   16  C10 UNL     1      60.700   1.843  39.177  1.00  0.00     0.232 C 
HETATM   17  N1  UNL     1      60.917   2.903  40.133  1.00  0.00    -0.075 N 
HETATM   18  C11 UNL     1      59.638   3.089  40.805  1.00  0.00     0.237 C 
ATOM     19  H12 UNL     1      61.694   2.728  40.772  1.00  0.00     0.277 HD
ATOM     20  H11 UNL     1      61.292   3.757  39.721  1.00  0.00     0.277 HD
ENDBRANCH  13  14
ENDBRANCH   6  13
ENDBRANCH   3   6
ENDBRANCH   1   2
BRANCH   1  21
HETATM   21  O3  UNL     1      54.266   5.320  41.486  1.00  0.00    -0.376 OA
ATOM     22  H3  UNL     1      53.804   5.926  42.054  1.00  0.00     0.212 HD
ENDBRANCH   1  21
BRANCH   1  23
HETATM   23  C14 UNL     1      55.348   4.783  43.554  1.00  0.00     0.126 C 
BRANCH  23  24
HETATM   24  C15 UNL     1      54.501   5.874  44.160  1.00  0.00     0.020 C 
BRANCH  24  25
HETATM   25  C16 UNL     1      53.382   5.421  45.028  1.00  0.00     0.021 C 
BRANCH  25  26
HETATM   26  C17 UNL     1      52.115   6.223  44.752  1.00  0.00     0.122 C 
BRANCH  26  27
HETATM   27  N3  UNL     1      52.060   6.511  43.354  1.00  0.00    -0.367 N 
HETATM   28  C18 UNL     1      51.243   5.883  42.592  1.00  0.00     0.196 C 
HETATM   29  N4  UNL     1      51.149   6.132  41.192  1.00  0.00    -0.067 NA
HETATM   30  N5  UNL     1      50.398   4.897  43.170  1.00  0.00    -0.067 NA
ATOM     31  H3  UNL     1      52.675   7.222  42.959  1.00  0.00     0.161 HD
ENDBRANCH  26  27
ENDBRANCH  25  26
ENDBRANCH  24  25
ENDBRANCH  23  24
BRANCH  23  32
HETATM   32  C19 UNL     1      56.741   5.174  43.319  1.00  0.00     0.226 C 
HETATM   33  O4  UNL     1      57.687   4.375  43.556  1.00  0.00    -0.273 OA
HETATM   34  N6  UNL     1      57.057   6.456  42.820  1.00  0.00    -0.356 N 
ATOM     35  H6  UNL     1      56.297   7.107  42.628  1.00  0.00     0.162 HD
BRANCH  34  36
HETATM   36  C20 UNL     1      58.399   6.877  42.573  1.00  0.00     0.087 C 
HETATM   37  C21 UNL     1      58.708   8.243  43.141  1.00  0.00     0.044 C 
HETATM   38  C22 UNL     1      60.211   8.419  43.073  1.00  0.00     0.115 C 
HETATM   39  N7  UNL     1      60.863   7.366  42.364  1.00  0.00    -0.421 N 
HETATM   40  C23 UNL     1      60.307   7.072  41.078  1.00  0.00     0.115 C 
ATOM     41  H7  UNL     1      61.664   6.862  42.744  1.00  0.00     0.153 HD
HETATM   42  C24 UNL     1      58.800   6.869  41.122  1.00  0.00     0.044 C 
ENDBRANCH  34  36
ENDBRANCH  23  32
ENDBRANCH   1  23
TORSDOF 16
ENDMDL
