MODEL 1
REMARK VINA RESULT: -6.547424978      0.000      0.000
REMARK  20 active torsions:
REMARK  status: ('A' for Active; 'I' for Inactive)
REMARK       I    between atoms: C2_2  and  N1_4 
REMARK    1  A    between atoms: N1_4  and  C3_6 
REMARK    2  A    between atoms: C5_11  and  C6_12 
REMARK    3  A    between atoms: C6_12  and  N3_13 
REMARK    4  A    between atoms: N3_13  and  C7_16 
REMARK    5  A    between atoms: C7_16  and  C8_17 
REMARK    6  A    between atoms: C7_16  and  C16_29 
REMARK    7  A    between atoms: C8_17  and  C9_18 
REMARK    8  A    between atoms: C9_18  and  C10_19 
REMARK    9  A    between atoms: C10_19  and  C11_20 
REMARK   10  A    between atoms: C11_20  and  C12_21 
REMARK   11  A    between atoms: C12_21  and  C13_22 
REMARK   12  A    between atoms: C13_22  and  C14_23 
REMARK   13  A    between atoms: C14_23  and  C15_24 
REMARK   14  A    between atoms: C15_24  and  N4_25 
REMARK   15  A    between atoms: C16_29  and  O3_30 
REMARK   16  A    between atoms: C16_29  and  C17_32 
REMARK   17  A    between atoms: C17_32  and  N5_33 
REMARK   18  A    between atoms: N5_33  and  C18_35 
REMARK   19  A    between atoms: C23_42  and  C24_43 
REMARK   20  A    between atoms: C24_43  and  O5_44 
ROOT
HETATM    1  C7  UNL     1      55.404  -0.202  39.372  1.00  0.00     0.216 C 
ENDROOT
BRANCH   1   2
HETATM    2  N3  UNL     1      56.627  -0.439  40.083  1.00  0.00    -0.064 N 
ATOM      3  H32 UNL     1      56.733  -1.426  40.321  1.00  0.00     0.277 HD
ATOM      4  H31 UNL     1      56.589  -0.052  41.026  1.00  0.00     0.277 HD
BRANCH   2   5
HETATM    5  C6  UNL     1      57.760   0.048  39.367  1.00  0.00     0.286 C 
BRANCH   5   6
HETATM    6  C5  UNL     1      58.897  -0.900  39.208  1.00  0.00     0.249 C 
HETATM    7  N2  UNL     1      59.437  -1.372  40.470  1.00  0.00    -0.331 N 
HETATM    8  C4  UNL     1      60.435  -2.379  40.324  1.00  0.00     0.245 C 
ATOM      9  H2  UNL     1      59.131  -1.016  41.376  1.00  0.00     0.165 HD
HETATM   10  C3  UNL     1      61.011  -2.459  38.947  1.00  0.00     0.207 C 
HETATM   11  O2  UNL     1      60.783  -3.118  41.275  1.00  0.00    -0.271 OA
HETATM   12  C23 UNL     1      61.083  -1.019  38.465  1.00  0.00     0.179 C 
HETATM   13  O4  UNL     1      59.852  -0.422  38.328  1.00  0.00    -0.355 OA
BRANCH  10  14
HETATM   14  N1  UNL     1      62.325  -3.035  38.962  1.00  0.00    -0.346 N 
HETATM   15  C2  UNL     1      62.513  -4.376  38.571  1.00  0.00     0.214 C 
HETATM   16  C1  UNL     1      63.856  -4.984  38.588  1.00  0.00     0.117 C 
HETATM   17  O1  UNL     1      61.538  -5.068  38.205  1.00  0.00    -0.274 OA
ATOM     18  H1  UNL     1      63.125  -2.474  39.257  1.00  0.00     0.163 HD
ENDBRANCH  10  14
BRANCH  12  19
HETATM   19  C24 UNL     1      61.929  -0.861  37.227  1.00  0.00     0.198 C 
BRANCH  19  20
HETATM   20  O5  UNL     1      63.282  -0.633  37.550  1.00  0.00    -0.398 OA
ATOM     21  H5  UNL     1      63.860  -1.187  37.039  1.00  0.00     0.209 HD
ENDBRANCH  19  20
ENDBRANCH  12  19
ENDBRANCH   5   6
ENDBRANCH   2   5
ENDBRANCH   1   2
BRANCH   1  22
HETATM   22  C8  UNL     1      55.234  -1.062  38.185  1.00  0.00     0.036 C 
BRANCH  22  23
HETATM   23  C9  UNL     1      54.786  -0.457  36.933  1.00  0.00     0.002 C 
BRANCH  23  24
HETATM   24  C10 UNL     1      55.197   1.009  36.773  1.00  0.00     0.000 C 
BRANCH  24  25
HETATM   25  C11 UNL     1      54.141   1.795  36.070  1.00  0.00     0.000 C 
BRANCH  25  26
HETATM   26  C12 UNL     1      52.726   1.423  36.418  1.00  0.00     0.000 C 
BRANCH  26  27
HETATM   27  C13 UNL     1      51.748   2.412  35.842  1.00  0.00     0.002 C 
BRANCH  27  28
HETATM   28  C14 UNL     1      51.022   1.843  34.639  1.00  0.00     0.027 C 
BRANCH  28  29
HETATM   29  C15 UNL     1      49.818   2.718  34.368  1.00  0.00     0.229 C 
BRANCH  29  30
HETATM   30  N4  UNL     1      50.156   4.082  34.784  1.00  0.00    -0.079 N 
ATOM     31  H43 UNL     1      49.340   4.622  35.074  1.00  0.00     0.274 HD
ATOM     32  H42 UNL     1      50.660   4.113  35.671  1.00  0.00     0.274 HD
ATOM     33  H41 UNL     1      50.670   4.521  34.021  1.00  0.00     0.274 HD
ENDBRANCH  29  30
ENDBRANCH  28  29
ENDBRANCH  27  28
ENDBRANCH  26  27
ENDBRANCH  25  26
ENDBRANCH  24  25
ENDBRANCH  23  24
ENDBRANCH  22  23
ENDBRANCH   1  22
BRANCH   1  34
HETATM   34  C16 UNL     1      54.276   0.060  40.276  1.00  0.00     0.166 C 
BRANCH  34  35
HETATM   35  O3  UNL     1      53.235  -0.879  40.105  1.00  0.00    -0.392 OA
ATOM     36  H3  UNL     1      53.040  -1.342  40.910  1.00  0.00     0.210 HD
ENDBRANCH  34  35
BRANCH  34  37
HETATM   37  C17 UNL     1      54.588   0.230  41.744  1.00  0.00     0.148 C 
BRANCH  37  38
HETATM   38  N5  UNL     1      54.414   1.585  42.179  1.00  0.00    -0.413 N 
ATOM     39  H5  UNL     1      53.484   2.001  42.222  1.00  0.00     0.153 HD
BRANCH  38  40
HETATM   40  C18 UNL     1      55.549   2.332  42.548  1.00  0.00     0.106 C 
HETATM   41  C19 UNL     1      54.983   3.645  43.176  1.00  0.00     0.056 C 
HETATM   42  C20 UNL     1      54.486   4.310  41.906  1.00  0.00     0.274 C 
HETATM   43  N6  UNL     1      55.537   4.087  40.967  1.00  0.00     0.086 N 
HETATM   44  C21 UNL     1      56.366   5.204  40.666  1.00  0.00     0.310 C 
HETATM   45  C22 UNL     1      56.318   2.947  41.410  1.00  0.00     0.296 C 
ENDBRANCH  38  40
ENDBRANCH  37  38
ENDBRANCH  34  37
ENDBRANCH   1  34
TORSDOF 20
ENDMDL
MODEL 2
REMARK VINA RESULT: -6.543423418      3.049      6.778
REMARK  20 active torsions:
REMARK  status: ('A' for Active; 'I' for Inactive)
REMARK       I    between atoms: C2_2  and  N1_4 
REMARK    1  A    between atoms: N1_4  and  C3_6 
REMARK    2  A    between atoms: C5_11  and  C6_12 
REMARK    3  A    between atoms: C6_12  and  N3_13 
REMARK    4  A    between atoms: N3_13  and  C7_16 
REMARK    5  A    between atoms: C7_16  and  C8_17 
REMARK    6  A    between atoms: C7_16  and  C16_29 
REMARK    7  A    between atoms: C8_17  and  C9_18 
REMARK    8  A    between atoms: C9_18  and  C10_19 
REMARK    9  A    between atoms: C10_19  and  C11_20 
REMARK   10  A    between atoms: C11_20  and  C12_21 
REMARK   11  A    between atoms: C12_21  and  C13_22 
REMARK   12  A    between atoms: C13_22  and  C14_23 
REMARK   13  A    between atoms: C14_23  and  C15_24 
REMARK   14  A    between atoms: C15_24  and  N4_25 
REMARK   15  A    between atoms: C16_29  and  O3_30 
REMARK   16  A    between atoms: C16_29  and  C17_32 
REMARK   17  A    between atoms: C17_32  and  N5_33 
REMARK   18  A    between atoms: N5_33  and  C18_35 
REMARK   19  A    between atoms: C23_42  and  C24_43 
REMARK   20  A    between atoms: C24_43  and  O5_44 
ROOT
HETATM    1  C7  UNL     1      56.676  -0.407  39.694  1.00  0.00     0.216 C 
ENDROOT
BRANCH   1   2
HETATM    2  N3  UNL     1      56.690   0.267  40.960  1.00  0.00    -0.064 N 
ATOM      3  H32 UNL     1      57.641   0.500  41.247  1.00  0.00     0.277 HD
ATOM      4  H31 UNL     1      56.445  -0.366  41.721  1.00  0.00     0.277 HD
BRANCH   2   5
HETATM    5  C6  UNL     1      55.851   1.421  40.955  1.00  0.00     0.286 C 
BRANCH   5   6
HETATM    6  C5  UNL     1      56.534   2.733  41.126  1.00  0.00     0.249 C 
HETATM    7  N2  UNL     1      55.880   3.820  40.422  1.00  0.00    -0.331 N 
HETATM    8  C4  UNL     1      56.450   5.099  40.689  1.00  0.00     0.245 C 
ATOM      9  H2  UNL     1      55.087   3.683  39.795  1.00  0.00     0.165 HD
HETATM   10  C3  UNL     1      57.816   5.034  41.293  1.00  0.00     0.207 C 
HETATM   11  O2  UNL     1      55.845   6.168  40.434  1.00  0.00    -0.271 OA
HETATM   12  C23 UNL     1      58.491   3.852  40.614  1.00  0.00     0.179 C 
HETATM   13  O4  UNL     1      57.894   2.645  40.892  1.00  0.00    -0.355 OA
BRANCH  10  14
HETATM   14  N1  UNL     1      58.560   6.234  41.035  1.00  0.00    -0.346 N 
HETATM   15  C2  UNL     1      59.127   6.956  42.104  1.00  0.00     0.214 C 
HETATM   16  C1  UNL     1      59.888   8.194  41.856  1.00  0.00     0.117 C 
HETATM   17  O1  UNL     1      58.988   6.554  43.280  1.00  0.00    -0.274 OA
ATOM     18  H1  UNL     1      58.678   6.565  40.077  1.00  0.00     0.163 HD
ENDBRANCH  10  14
BRANCH  12  19
HETATM   19  C24 UNL     1      59.980   3.815  40.852  1.00  0.00     0.198 C 
BRANCH  19  20
HETATM   20  O5  UNL     1      60.284   3.858  42.228  1.00  0.00    -0.398 OA
ATOM     21  H5  UNL     1      61.218   3.954  42.375  1.00  0.00     0.209 HD
ENDBRANCH  19  20
ENDBRANCH  12  19
ENDBRANCH   5   6
ENDBRANCH   2   5
ENDBRANCH   1   2
BRANCH   1  22
HETATM   22  C8  UNL     1      55.371  -0.351  39.008  1.00  0.00     0.036 C 
BRANCH  22  23
HETATM   23  C9  UNL     1      55.171  -1.155  37.805  1.00  0.00     0.002 C 
BRANCH  23  24
HETATM   24  C10 UNL     1      54.420  -0.423  36.690  1.00  0.00     0.000 C 
BRANCH  24  25
HETATM   25  C11 UNL     1      54.766   1.029  36.666  1.00  0.00     0.000 C 
BRANCH  25  26
HETATM   26  C12 UNL     1      53.897   1.881  35.782  1.00  0.00     0.000 C 
BRANCH  26  27
HETATM   27  C13 UNL     1      52.456   1.812  36.211  1.00  0.00     0.002 C 
BRANCH  27  28
HETATM   28  C14 UNL     1      51.518   1.845  35.020  1.00  0.00     0.027 C 
BRANCH  28  29
HETATM   29  C15 UNL     1      50.776   3.163  35.052  1.00  0.00     0.229 C 
BRANCH  29  30
HETATM   30  N4  UNL     1      49.572   3.016  34.230  1.00  0.00    -0.079 N 
ATOM     31  H43 UNL     1      49.772   2.674  33.290  1.00  0.00     0.274 HD
ATOM     32  H42 UNL     1      48.978   2.243  34.531  1.00  0.00     0.274 HD
ATOM     33  H41 UNL     1      49.085   3.913  34.229  1.00  0.00     0.274 HD
ENDBRANCH  29  30
ENDBRANCH  28  29
ENDBRANCH  27  28
ENDBRANCH  26  27
ENDBRANCH  25  26
ENDBRANCH  24  25
ENDBRANCH  23  24
ENDBRANCH  22  23
ENDBRANCH   1  22
BRANCH   1  34
HETATM   34  C16 UNL     1      57.925  -0.210  38.946  1.00  0.00     0.166 C 
BRANCH  34  35
HETATM   35  O3  UNL     1      57.997   1.077  38.371  1.00  0.00    -0.392 OA
ATOM     36  H3  UNL     1      58.334   1.051  37.483  1.00  0.00     0.210 HD
ENDBRANCH  34  35
BRANCH  34  37
HETATM   37  C17 UNL     1      59.218  -0.538  39.654  1.00  0.00     0.148 C 
BRANCH  37  38
HETATM   38  N5  UNL     1      60.162   0.539  39.582  1.00  0.00    -0.413 N 
ATOM     39  H5  UNL     1      59.888   1.487  39.838  1.00  0.00     0.153 HD
BRANCH  38  40
HETATM   40  C18 UNL     1      61.474   0.264  39.152  1.00  0.00     0.106 C 
HETATM   41  C19 UNL     1      62.128   1.666  38.932  1.00  0.00     0.056 C 
HETATM   42  C20 UNL     1      61.389   2.067  37.669  1.00  0.00     0.274 C 
HETATM   43  N6  UNL     1      61.400   0.883  36.873  1.00  0.00     0.086 N 
HETATM   44  C21 UNL     1      62.303   0.865  35.774  1.00  0.00     0.310 C 
HETATM   45  C22 UNL     1      61.599  -0.258  37.746  1.00  0.00     0.296 C 
ENDBRANCH  38  40
ENDBRANCH  37  38
ENDBRANCH  34  37
ENDBRANCH   1  34
TORSDOF 20
ENDMDL
MODEL 3
REMARK VINA RESULT: -6.470565724      3.292      7.552
REMARK  20 active torsions:
REMARK  status: ('A' for Active; 'I' for Inactive)
REMARK       I    between atoms: C2_2  and  N1_4 
REMARK    1  A    between atoms: N1_4  and  C3_6 
REMARK    2  A    between atoms: C5_11  and  C6_12 
REMARK    3  A    between atoms: C6_12  and  N3_13 
REMARK    4  A    between atoms: N3_13  and  C7_16 
REMARK    5  A    between atoms: C7_16  and  C8_17 
REMARK    6  A    between atoms: C7_16  and  C16_29 
REMARK    7  A    between atoms: C8_17  and  C9_18 
REMARK    8  A    between atoms: C9_18  and  C10_19 
REMARK    9  A    between atoms: C10_19  and  C11_20 
REMARK   10  A    between atoms: C11_20  and  C12_21 
REMARK   11  A    between atoms: C12_21  and  C13_22 
REMARK   12  A    between atoms: C13_22  and  C14_23 
REMARK   13  A    between atoms: C14_23  and  C15_24 
REMARK   14  A    between atoms: C15_24  and  N4_25 
REMARK   15  A    between atoms: C16_29  and  O3_30 
REMARK   16  A    between atoms: C16_29  and  C17_32 
REMARK   17  A    between atoms: C17_32  and  N5_33 
REMARK   18  A    between atoms: N5_33  and  C18_35 
REMARK   19  A    between atoms: C23_42  and  C24_43 
REMARK   20  A    between atoms: C24_43  and  O5_44 
ROOT
HETATM    1  C7  UNL     1      56.544  -0.250  39.842  1.00  0.00     0.216 C 
ENDROOT
BRANCH   1   2
HETATM    2  N3  UNL     1      55.490   0.492  40.471  1.00  0.00    -0.064 N 
ATOM      3  H32 UNL     1      55.551   0.435  41.488  1.00  0.00     0.277 HD
ATOM      4  H31 UNL     1      54.587   0.038  40.340  1.00  0.00     0.277 HD
BRANCH   2   5
HETATM    5  C6  UNL     1      55.459   1.847  40.028  1.00  0.00     0.286 C 
BRANCH   5   6
HETATM    6  C5  UNL     1      55.392   2.888  41.091  1.00  0.00     0.249 C 
HETATM    7  N2  UNL     1      56.099   2.521  42.304  1.00  0.00    -0.331 N 
HETATM    8  C4  UNL     1      56.151   3.566  43.272  1.00  0.00     0.245 C 
ATOM      9  H2  UNL     1      56.519   1.604  42.449  1.00  0.00     0.165 HD
HETATM   10  C3  UNL     1      55.153   4.654  43.037  1.00  0.00     0.207 C 
HETATM   11  O2  UNL     1      56.966   3.554  44.226  1.00  0.00    -0.271 OA
HETATM   12  C23 UNL     1      53.912   3.945  42.518  1.00  0.00     0.179 C 
HETATM   13  O4  UNL     1      54.099   3.331  41.302  1.00  0.00    -0.355 OA
BRANCH  10  14
HETATM   14  N1  UNL     1      54.843   5.351  44.253  1.00  0.00    -0.346 N 
HETATM   15  C2  UNL     1      55.440   6.599  44.522  1.00  0.00     0.214 C 
HETATM   16  C1  UNL     1      55.137   7.325  45.769  1.00  0.00     0.117 C 
HETATM   17  O1  UNL     1      56.237   7.107  43.703  1.00  0.00    -0.274 OA
ATOM     18  H1  UNL     1      54.192   4.943  44.923  1.00  0.00     0.163 HD
ENDBRANCH  10  14
BRANCH  12  19
HETATM   19  C24 UNL     1      52.691   4.830  42.524  1.00  0.00     0.198 C 
BRANCH  19  20
HETATM   20  O5  UNL     1      52.612   5.610  41.353  1.00  0.00    -0.398 OA
ATOM     21  H5  UNL     1      52.520   6.534  41.556  1.00  0.00     0.209 HD
ENDBRANCH  19  20
ENDBRANCH  12  19
ENDBRANCH   5   6
ENDBRANCH   2   5
ENDBRANCH   1   2
BRANCH   1  22
HETATM   22  C8  UNL     1      56.376  -0.397  38.384  1.00  0.00     0.036 C 
BRANCH  22  23
HETATM   23  C9  UNL     1      55.254  -1.185  37.878  1.00  0.00     0.002 C 
BRANCH  23  24
HETATM   24  C10 UNL     1      54.395  -0.446  36.849  1.00  0.00     0.000 C 
BRANCH  24  25
HETATM   25  C11 UNL     1      54.952   0.905  36.546  1.00  0.00     0.000 C 
BRANCH  25  26
HETATM   26  C12 UNL     1      53.997   1.858  35.881  1.00  0.00     0.000 C 
BRANCH  26  27
HETATM   27  C13 UNL     1      52.569   1.465  36.145  1.00  0.00     0.002 C 
BRANCH  27  28
HETATM   28  C14 UNL     1      51.601   2.534  35.676  1.00  0.00     0.027 C 
BRANCH  28  29
HETATM   29  C15 UNL     1      50.751   1.938  34.575  1.00  0.00     0.229 C 
BRANCH  29  30
HETATM   30  N4  UNL     1      49.707   2.911  34.242  1.00  0.00    -0.079 N 
ATOM     31  H43 UNL     1      48.807   2.689  34.667  1.00  0.00     0.274 HD
ATOM     32  H42 UNL     1      49.850   3.815  34.692  1.00  0.00     0.274 HD
ATOM     33  H41 UNL     1      49.659   2.978  33.225  1.00  0.00     0.274 HD
ENDBRANCH  29  30
ENDBRANCH  28  29
ENDBRANCH  27  28
ENDBRANCH  26  27
ENDBRANCH  25  26
ENDBRANCH  24  25
ENDBRANCH  23  24
ENDBRANCH  22  23
ENDBRANCH   1  22
BRANCH   1  34
HETATM   34  C16 UNL     1      57.860   0.056  40.418  1.00  0.00     0.166 C 
BRANCH  34  35
HETATM   35  O3  UNL     1      57.866  -0.087  41.823  1.00  0.00    -0.392 OA
ATOM     36  H3  UNL     1      57.909   0.753  42.264  1.00  0.00     0.210 HD
ENDBRANCH  34  35
BRANCH  34  37
HETATM   37  C17 UNL     1      59.059  -0.638  39.818  1.00  0.00     0.148 C 
BRANCH  37  38
HETATM   38  N5  UNL     1      59.913   0.272  39.112  1.00  0.00    -0.413 N 
ATOM     39  H5  UNL     1      60.648  -0.078  38.498  1.00  0.00     0.153 HD
BRANCH  38  40
HETATM   40  C18 UNL     1      59.719   1.655  39.280  1.00  0.00     0.106 C 
HETATM   41  C19 UNL     1      59.643   2.232  37.830  1.00  0.00     0.056 C 
HETATM   42  C20 UNL     1      61.106   2.096  37.453  1.00  0.00     0.274 C 
HETATM   43  N6  UNL     1      61.803   2.545  38.614  1.00  0.00     0.086 N 
HETATM   44  C21 UNL     1      62.391   3.838  38.540  1.00  0.00     0.310 C 
HETATM   45  C22 UNL     1      60.920   2.426  39.758  1.00  0.00     0.296 C 
ENDBRANCH  38  40
ENDBRANCH  37  38
ENDBRANCH  34  37
ENDBRANCH   1  34
TORSDOF 20
ENDMDL
MODEL 4
REMARK VINA RESULT: -6.358191176      3.281      7.874
REMARK  20 active torsions:
REMARK  status: ('A' for Active; 'I' for Inactive)
REMARK       I    between atoms: C2_2  and  N1_4 
REMARK    1  A    between atoms: N1_4  and  C3_6 
REMARK    2  A    between atoms: C5_11  and  C6_12 
REMARK    3  A    between atoms: C6_12  and  N3_13 
REMARK    4  A    between atoms: N3_13  and  C7_16 
REMARK    5  A    between atoms: C7_16  and  C8_17 
REMARK    6  A    between atoms: C7_16  and  C16_29 
REMARK    7  A    between atoms: C8_17  and  C9_18 
REMARK    8  A    between atoms: C9_18  and  C10_19 
REMARK    9  A    between atoms: C10_19  and  C11_20 
REMARK   10  A    between atoms: C11_20  and  C12_21 
REMARK   11  A    between atoms: C12_21  and  C13_22 
REMARK   12  A    between atoms: C13_22  and  C14_23 
REMARK   13  A    between atoms: C14_23  and  C15_24 
REMARK   14  A    between atoms: C15_24  and  N4_25 
REMARK   15  A    between atoms: C16_29  and  O3_30 
REMARK   16  A    between atoms: C16_29  and  C17_32 
REMARK   17  A    between atoms: C17_32  and  N5_33 
REMARK   18  A    between atoms: N5_33  and  C18_35 
REMARK   19  A    between atoms: C23_42  and  C24_43 
REMARK   20  A    between atoms: C24_43  and  O5_44 
ROOT
HETATM    1  C7  UNL     1      56.504  -0.119  39.857  1.00  0.00     0.216 C 
ENDROOT
BRANCH   1   2
HETATM    2  N3  UNL     1      55.449   0.743  40.306  1.00  0.00    -0.064 N 
ATOM      3  H32 UNL     1      55.141   0.493  41.247  1.00  0.00     0.277 HD
ATOM      4  H31 UNL     1      54.582   0.562  39.802  1.00  0.00     0.277 HD
BRANCH   2   5
HETATM    5  C6  UNL     1      55.819   2.118  40.229  1.00  0.00     0.286 C 
BRANCH   5   6
HETATM    6  C5  UNL     1      55.205   3.024  41.238  1.00  0.00     0.249 C 
HETATM    7  N2  UNL     1      54.307   4.007  40.662  1.00  0.00    -0.331 N 
HETATM    8  C4  UNL     1      53.615   4.788  41.634  1.00  0.00     0.245 C 
ATOM      9  H2  UNL     1      54.182   4.128  39.657  1.00  0.00     0.165 HD
HETATM   10  C3  UNL     1      54.229   4.734  42.995  1.00  0.00     0.207 C 
HETATM   11  O2  UNL     1      52.589   5.452  41.351  1.00  0.00    -0.271 OA
HETATM   12  C23 UNL     1      55.729   4.692  42.751  1.00  0.00     0.179 C 
HETATM   13  O4  UNL     1      56.148   3.556  42.100  1.00  0.00    -0.355 OA
BRANCH  10  14
HETATM   14  N1  UNL     1      53.893   5.897  43.767  1.00  0.00    -0.346 N 
HETATM   15  C2  UNL     1      52.914   5.815  44.778  1.00  0.00     0.214 C 
HETATM   16  C1  UNL     1      52.554   7.002  45.574  1.00  0.00     0.117 C 
HETATM   17  O1  UNL     1      52.338   4.730  45.010  1.00  0.00    -0.274 OA
ATOM     18  H1  UNL     1      54.362   6.784  43.583  1.00  0.00     0.163 HD
ENDBRANCH  10  14
BRANCH  12  19
HETATM   19  C24 UNL     1      56.531   4.957  44.000  1.00  0.00     0.198 C 
BRANCH  19  20
HETATM   20  O5  UNL     1      56.037   4.221  45.097  1.00  0.00    -0.398 OA
ATOM     21  H5  UNL     1      56.460   4.479  45.908  1.00  0.00     0.209 HD
ENDBRANCH  19  20
ENDBRANCH  12  19
ENDBRANCH   5   6
ENDBRANCH   2   5
ENDBRANCH   1   2
BRANCH   1  22
HETATM   22  C8  UNL     1      56.419  -0.461  38.424  1.00  0.00     0.036 C 
BRANCH  22  23
HETATM   23  C9  UNL     1      55.266  -1.221  37.947  1.00  0.00     0.002 C 
BRANCH  23  24
HETATM   24  C10 UNL     1      54.419  -0.475  36.914  1.00  0.00     0.000 C 
BRANCH  24  25
HETATM   25  C11 UNL     1      54.994   0.869  36.609  1.00  0.00     0.000 C 
BRANCH  25  26
HETATM   26  C12 UNL     1      54.032   1.856  36.007  1.00  0.00     0.000 C 
BRANCH  26  27
HETATM   27  C13 UNL     1      52.606   1.425  36.225  1.00  0.00     0.002 C 
BRANCH  27  28
HETATM   28  C14 UNL     1      51.626   2.484  35.758  1.00  0.00     0.027 C 
BRANCH  28  29
HETATM   29  C15 UNL     1      50.886   1.934  34.559  1.00  0.00     0.229 C 
BRANCH  29  30
HETATM   30  N4  UNL     1      49.789   2.855  34.251  1.00  0.00    -0.079 N 
ATOM     31  H43 UNL     1      49.482   2.797  33.280  1.00  0.00     0.274 HD
ATOM     32  H42 UNL     1      48.908   2.581  34.688  1.00  0.00     0.274 HD
ATOM     33  H41 UNL     1      50.088   3.793  34.516  1.00  0.00     0.274 HD
ENDBRANCH  29  30
ENDBRANCH  28  29
ENDBRANCH  27  28
ENDBRANCH  26  27
ENDBRANCH  25  26
ENDBRANCH  24  25
ENDBRANCH  23  24
ENDBRANCH  22  23
ENDBRANCH   1  22
BRANCH   1  34
HETATM   34  C16 UNL     1      57.796   0.216  40.472  1.00  0.00     0.166 C 
BRANCH  34  35
HETATM   35  O3  UNL     1      57.899  -0.288  41.787  1.00  0.00    -0.392 OA
ATOM     36  H3  UNL     1      57.070  -0.249  42.247  1.00  0.00     0.210 HD
ENDBRANCH  34  35
BRANCH  34  37
HETATM   37  C17 UNL     1      59.044  -0.111  39.688  1.00  0.00     0.148 C 
BRANCH  37  38
HETATM   38  N5  UNL     1      60.094   0.837  39.923  1.00  0.00    -0.413 N 
ATOM     39  H5  UNL     1      60.957   0.551  40.385  1.00  0.00     0.153 HD
BRANCH  38  40
HETATM   40  C18 UNL     1      59.914   2.169  39.505  1.00  0.00     0.106 C 
HETATM   41  C19 UNL     1      59.731   2.084  37.955  1.00  0.00     0.056 C 
HETATM   42  C20 UNL     1      61.163   1.756  37.575  1.00  0.00     0.274 C 
HETATM   43  N6  UNL     1      61.944   2.630  38.389  1.00  0.00     0.086 N 
HETATM   44  C21 UNL     1      62.525   3.753  37.738  1.00  0.00     0.310 C 
HETATM   45  C22 UNL     1      61.146   3.031  39.533  1.00  0.00     0.296 C 
ENDBRANCH  38  40
ENDBRANCH  37  38
ENDBRANCH  34  37
ENDBRANCH   1  34
TORSDOF 20
ENDMDL
MODEL 5
REMARK VINA RESULT: -6.307068109      5.493      9.486
REMARK  20 active torsions:
REMARK  status: ('A' for Active; 'I' for Inactive)
REMARK       I    between atoms: C2_2  and  N1_4 
REMARK    1  A    between atoms: N1_4  and  C3_6 
REMARK    2  A    between atoms: C5_11  and  C6_12 
REMARK    3  A    between atoms: C6_12  and  N3_13 
REMARK    4  A    between atoms: N3_13  and  C7_16 
REMARK    5  A    between atoms: C7_16  and  C8_17 
REMARK    6  A    between atoms: C7_16  and  C16_29 
REMARK    7  A    between atoms: C8_17  and  C9_18 
REMARK    8  A    between atoms: C9_18  and  C10_19 
REMARK    9  A    between atoms: C10_19  and  C11_20 
REMARK   10  A    between atoms: C11_20  and  C12_21 
REMARK   11  A    between atoms: C12_21  and  C13_22 
REMARK   12  A    between atoms: C13_22  and  C14_23 
REMARK   13  A    between atoms: C14_23  and  C15_24 
REMARK   14  A    between atoms: C15_24  and  N4_25 
REMARK   15  A    between atoms: C16_29  and  O3_30 
REMARK   16  A    between atoms: C16_29  and  C17_32 
REMARK   17  A    between atoms: C17_32  and  N5_33 
REMARK   18  A    between atoms: N5_33  and  C18_35 
REMARK   19  A    between atoms: C23_42  and  C24_43 
REMARK   20  A    between atoms: C24_43  and  O5_44 
ROOT
HETATM    1  C7  UNL     1      56.903   3.942  40.807  1.00  0.00     0.216 C 
ENDROOT
BRANCH   1   2
HETATM    2  N3  UNL     1      55.533   3.516  40.812  1.00  0.00    -0.064 N 
ATOM      3  H32 UNL     1      55.391   2.715  40.196  1.00  0.00     0.277 HD
ATOM      4  H31 UNL     1      54.933   4.189  40.337  1.00  0.00     0.277 HD
BRANCH   2   5
HETATM    5  C6  UNL     1      55.068   3.245  42.132  1.00  0.00     0.286 C 
BRANCH   5   6
HETATM    6  C5  UNL     1      53.783   3.887  42.523  1.00  0.00     0.249 C 
HETATM    7  N2  UNL     1      53.454   5.054  41.726  1.00  0.00    -0.331 N 
HETATM    8  C4  UNL     1      52.164   5.592  42.007  1.00  0.00     0.245 C 
ATOM      9  H2  UNL     1      54.086   5.452  41.031  1.00  0.00     0.165 HD
HETATM   10  C3  UNL     1      51.587   5.126  43.304  1.00  0.00     0.207 C 
HETATM   11  O2  UNL     1      51.585   6.383  41.224  1.00  0.00    -0.271 OA
HETATM   12  C23 UNL     1      52.771   5.038  44.254  1.00  0.00     0.179 C 
HETATM   13  O4  UNL     1      53.700   4.093  43.889  1.00  0.00    -0.355 OA
BRANCH  10  14
HETATM   14  N1  UNL     1      50.621   6.058  43.813  1.00  0.00    -0.346 N 
HETATM   15  C2  UNL     1      49.250   5.734  43.793  1.00  0.00     0.214 C 
HETATM   16  C1  UNL     1      48.245   6.684  44.306  1.00  0.00     0.117 C 
HETATM   17  O1  UNL     1      48.868   4.634  43.337  1.00  0.00    -0.274 OA
ATOM     18  H1  UNL     1      50.927   6.956  44.188  1.00  0.00     0.163 HD
ENDBRANCH  10  14
BRANCH  12  19
HETATM   19  C24 UNL     1      52.352   4.893  45.696  1.00  0.00     0.198 C 
BRANCH  19  20
HETATM   20  O5  UNL     1      51.399   3.867  45.856  1.00  0.00    -0.398 OA
ATOM     21  H5  UNL     1      50.522   4.173  45.657  1.00  0.00     0.209 HD
ENDBRANCH  19  20
ENDBRANCH  12  19
ENDBRANCH   5   6
ENDBRANCH   2   5
ENDBRANCH   1   2
BRANCH   1  22
HETATM   22  C8  UNL     1      57.787   3.083  39.996  1.00  0.00     0.036 C 
BRANCH  22  23
HETATM   23  C9  UNL     1      57.347   1.730  39.665  1.00  0.00     0.002 C 
BRANCH  23  24
HETATM   24  C10 UNL     1      57.181   1.484  38.163  1.00  0.00     0.000 C 
BRANCH  24  25
HETATM   25  C11 UNL     1      55.746   1.557  37.757  1.00  0.00     0.000 C 
BRANCH  25  26
HETATM   26  C12 UNL     1      55.253   0.396  36.938  1.00  0.00     0.000 C 
BRANCH  26  27
HETATM   27  C13 UNL     1      55.324  -0.888  37.721  1.00  0.00     0.002 C 
BRANCH  27  28
HETATM   28  C14 UNL     1      53.995  -1.619  37.715  1.00  0.00     0.027 C 
BRANCH  28  29
HETATM   29  C15 UNL     1      53.070  -0.906  38.676  1.00  0.00     0.229 C 
BRANCH  29  30
HETATM   30  N4  UNL     1      53.782  -0.750  39.948  1.00  0.00    -0.079 N 
ATOM     31  H43 UNL     1      53.940  -1.637  40.425  1.00  0.00     0.274 HD
ATOM     32  H42 UNL     1      54.760  -0.487  39.824  1.00  0.00     0.274 HD
ATOM     33  H41 UNL     1      53.260  -0.082  40.516  1.00  0.00     0.274 HD
ENDBRANCH  29  30
ENDBRANCH  28  29
ENDBRANCH  27  28
ENDBRANCH  26  27
ENDBRANCH  25  26
ENDBRANCH  24  25
ENDBRANCH  23  24
ENDBRANCH  22  23
ENDBRANCH   1  22
BRANCH   1  34
HETATM   34  C16 UNL     1      57.030   5.405  40.759  1.00  0.00     0.166 C 
BRANCH  34  35
HETATM   35  O3  UNL     1      55.835   6.023  40.331  1.00  0.00    -0.392 OA
ATOM     36  H3  UNL     1      55.787   6.931  40.607  1.00  0.00     0.210 HD
ENDBRANCH  34  35
BRANCH  34  37
HETATM   37  C17 UNL     1      57.562   6.096  41.992  1.00  0.00     0.148 C 
BRANCH  37  38
HETATM   38  N5  UNL     1      56.516   6.453  42.906  1.00  0.00    -0.413 N 
ATOM     39  H5  UNL     1      55.602   6.744  42.560  1.00  0.00     0.153 HD
BRANCH  38  40
HETATM   40  C18 UNL     1      56.772   6.393  44.289  1.00  0.00     0.106 C 
HETATM   41  C19 UNL     1      55.663   7.277  44.944  1.00  0.00     0.056 C 
HETATM   42  C20 UNL     1      56.178   8.640  44.519  1.00  0.00     0.274 C 
HETATM   43  N6  UNL     1      57.584   8.563  44.748  1.00  0.00     0.086 N 
HETATM   44  C21 UNL     1      58.080   9.253  45.889  1.00  0.00     0.310 C 
HETATM   45  C22 UNL     1      57.974   7.165  44.760  1.00  0.00     0.296 C 
ENDBRANCH  38  40
ENDBRANCH  37  38
ENDBRANCH  34  37
ENDBRANCH   1  34
TORSDOF 20
ENDMDL
