MODEL 1
REMARK VINA RESULT: -6.215484698      0.000      0.000
REMARK  20 active torsions:
REMARK  status: ('A' for Active; 'I' for Inactive)
REMARK    1  A    between atoms: C2_2  and  O1_4 
REMARK    2  A    between atoms: O1_4  and  C4_5 
REMARK    3  A    between atoms: C4_5  and  C5_7 
REMARK    4  A    between atoms: C5_7  and  N1_8 
REMARK    5  A    between atoms: C5_7  and  C22_44 
REMARK    6  A    between atoms: N1_8  and  C6_11 
REMARK    7  A    between atoms: C6_11  and  C7_12 
REMARK    8  A    between atoms: C6_11  and  C12_21 
REMARK    9  A    between atoms: C7_12  and  C8_13 
REMARK   10  A    between atoms: C8_13  and  C9_14 
REMARK   11  A    between atoms: C9_14  and  C10_15 
REMARK   12  A    between atoms: C10_15  and  N2_16 
REMARK       I    between atoms: C12_21  and  N5_23 
REMARK   13  A    between atoms: N5_23  and  C13_25 
REMARK   14  A    between atoms: C13_25  and  C14_26 
REMARK   15  A    between atoms: C13_25  and  C15_31 
REMARK   16  A    between atoms: C14_26  and  N6_27 
REMARK   17  A    between atoms: C15_31  and  O4_32 
REMARK   18  A    between atoms: C15_31  and  C16_34 
REMARK   19  A    between atoms: C20_38  and  C21_39 
REMARK   20  A    between atoms: C21_39  and  N7_40 
ROOT
HETATM    1  C6  UNL     1      56.482   0.838  38.072  1.00  0.00     0.278 C 
ENDROOT
BRANCH   1   2
HETATM    2  N1  UNL     1      55.959  -0.369  38.626  1.00  0.00    -0.049 N 
ATOM      3  H12 UNL     1      56.547  -0.709  39.388  1.00  0.00     0.279 HD
ATOM      4  H11 UNL     1      56.065  -1.148  37.977  1.00  0.00     0.279 HD
BRANCH   2   5
HETATM    5  C5  UNL     1      54.578  -0.228  39.055  1.00  0.00     0.288 C 
BRANCH   5   6
HETATM    6  C4  UNL     1      54.399  -0.321  40.506  1.00  0.00     0.290 C 
HETATM    7  O2  UNL     1      53.268  -0.483  41.077  1.00  0.00    -0.263 OA
BRANCH   6   8
HETATM    8  O1  UNL     1      55.474  -0.237  41.396  1.00  0.00    -0.315 OA
BRANCH   8   9
HETATM    9  C2  UNL     1      55.344   0.066  42.761  1.00  0.00     0.123 C 
HETATM   10  C1  UNL     1      55.509   1.512  43.075  1.00  0.00     0.040 C 
HETATM   11  C3  UNL     1      56.235  -0.837  43.610  1.00  0.00     0.040 C 
ENDBRANCH   8   9
ENDBRANCH   6   8
ENDBRANCH   5   6
BRANCH   5  12
HETATM   12  C22 UNL     1      53.754  -1.277  38.369  1.00  0.00     0.018 C 
HETATM   13  C23 UNL     1      54.399  -1.909  37.188  1.00  0.00     0.012 C 
HETATM   14  C24 UNL     1      52.377  -0.753  37.999  1.00  0.00     0.012 C 
ENDBRANCH   5  12
ENDBRANCH   2   5
ENDBRANCH   1   2
BRANCH   1  15
HETATM   15  C7  UNL     1      55.427   1.866  37.851  1.00  0.00     0.043 C 
BRANCH  15  16
HETATM   16  C8  UNL     1      55.285   2.111  36.341  1.00  0.00     0.004 C 
BRANCH  16  17
HETATM   17  C9  UNL     1      54.013   1.470  35.815  1.00  0.00     0.020 C 
BRANCH  17  18
HETATM   18  C10 UNL     1      52.864   2.434  35.938  1.00  0.00     0.122 C 
BRANCH  18  19
HETATM   19  N2  UNL     1      51.620   1.850  35.493  1.00  0.00    -0.367 N 
HETATM   20  C11 UNL     1      50.769   2.604  34.896  1.00  0.00     0.196 C 
HETATM   21  N3  UNL     1      51.085   3.971  34.699  1.00  0.00    -0.067 NA
HETATM   22  N4  UNL     1      49.533   2.123  34.426  1.00  0.00    -0.067 NA
ATOM     23  H2  UNL     1      51.422   0.862  35.650  1.00  0.00     0.161 HD
ENDBRANCH  18  19
ENDBRANCH  17  18
ENDBRANCH  16  17
ENDBRANCH  15  16
ENDBRANCH   1  15
BRANCH   1  24
HETATM   24  C12 UNL     1      57.601   1.419  38.853  1.00  0.00     0.249 C 
HETATM   25  O3  UNL     1      58.485   2.051  38.231  1.00  0.00    -0.271 OA
HETATM   26  N5  UNL     1      57.703   1.297  40.254  1.00  0.00    -0.351 N 
ATOM     27  H5  UNL     1      56.984   0.780  40.760  1.00  0.00     0.163 HD
BRANCH  26  28
HETATM   28  C13 UNL     1      58.788   1.880  40.986  1.00  0.00     0.139 C 
BRANCH  28  29
HETATM   29  C14 UNL     1      59.492   0.882  41.837  1.00  0.00     0.257 C 
BRANCH  29  30
HETATM   30  N6  UNL     1      59.116  -0.465  41.522  1.00  0.00    -0.077 N 
ATOM     31  H63 UNL     1      59.257  -1.083  42.321  1.00  0.00     0.274 HD
ATOM     32  H62 UNL     1      58.104  -0.553  41.424  1.00  0.00     0.274 HD
ATOM     33  H61 UNL     1      59.597  -0.819  40.695  1.00  0.00     0.274 HD
ENDBRANCH  29  30
ENDBRANCH  28  29
BRANCH  28  34
HETATM   34  C15 UNL     1      58.447   3.184  41.685  1.00  0.00     0.147 C 
BRANCH  34  35
HETATM   35  O4  UNL     1      59.292   3.216  42.796  1.00  0.00    -0.393 OA
ATOM     36  H4  UNL     1      58.714   3.077  43.538  1.00  0.00     0.210 HD
ENDBRANCH  34  35
BRANCH  34  37
HETATM   37  C16 UNL     1      58.460   4.406  40.860  1.00  0.00     0.022 C 
HETATM   38  C17 UNL     1      59.462   5.460  41.207  1.00  0.00     0.007 C 
HETATM   39  C18 UNL     1      58.687   6.791  41.279  1.00  0.00     0.001 C 
HETATM   40  C19 UNL     1      57.281   6.288  41.679  1.00  0.00     0.007 C 
HETATM   41  C20 UNL     1      57.186   5.151  40.679  1.00  0.00     0.017 C 
BRANCH  41  42
HETATM   42  C21 UNL     1      55.903   4.436  40.713  1.00  0.00     0.234 C 
BRANCH  42  43
HETATM   43  N7  UNL     1      54.780   5.098  41.293  1.00  0.00    -0.079 N 
ATOM     44  H73 UNL     1      55.095   5.659  42.084  1.00  0.00     0.274 HD
ATOM     45  H72 UNL     1      54.456   5.825  40.655  1.00  0.00     0.274 HD
ATOM     46  H71 UNL     1      53.984   4.530  41.583  1.00  0.00     0.274 HD
ENDBRANCH  42  43
ENDBRANCH  41  42
ENDBRANCH  34  37
ENDBRANCH  28  34
ENDBRANCH  26  28
ENDBRANCH   1  24
TORSDOF 20
ENDMDL
MODEL 2
REMARK VINA RESULT: -6.197998966      3.630      5.299
REMARK  20 active torsions:
REMARK  status: ('A' for Active; 'I' for Inactive)
REMARK    1  A    between atoms: C2_2  and  O1_4 
REMARK    2  A    between atoms: O1_4  and  C4_5 
REMARK    3  A    between atoms: C4_5  and  C5_7 
REMARK    4  A    between atoms: C5_7  and  N1_8 
REMARK    5  A    between atoms: C5_7  and  C22_44 
REMARK    6  A    between atoms: N1_8  and  C6_11 
REMARK    7  A    between atoms: C6_11  and  C7_12 
REMARK    8  A    between atoms: C6_11  and  C12_21 
REMARK    9  A    between atoms: C7_12  and  C8_13 
REMARK   10  A    between atoms: C8_13  and  C9_14 
REMARK   11  A    between atoms: C9_14  and  C10_15 
REMARK   12  A    between atoms: C10_15  and  N2_16 
REMARK       I    between atoms: C12_21  and  N5_23 
REMARK   13  A    between atoms: N5_23  and  C13_25 
REMARK   14  A    between atoms: C13_25  and  C14_26 
REMARK   15  A    between atoms: C13_25  and  C15_31 
REMARK   16  A    between atoms: C14_26  and  N6_27 
REMARK   17  A    between atoms: C15_31  and  O4_32 
REMARK   18  A    between atoms: C15_31  and  C16_34 
REMARK   19  A    between atoms: C20_38  and  C21_39 
REMARK   20  A    between atoms: C21_39  and  N7_40 
ROOT
HETATM    1  C6  UNL     1      56.754   0.350  39.048  1.00  0.00     0.278 C 
ENDROOT
BRANCH   1   2
HETATM    2  N1  UNL     1      56.524   1.755  39.143  1.00  0.00    -0.049 N 
ATOM      3  H12 UNL     1      55.918   2.080  38.389  1.00  0.00     0.279 HD
ATOM      4  H11 UNL     1      57.367   2.282  38.915  1.00  0.00     0.279 HD
BRANCH   2   5
HETATM    5  C5  UNL     1      55.998   2.143  40.440  1.00  0.00     0.288 C 
BRANCH   5   6
HETATM    6  C4  UNL     1      54.786   2.961  40.364  1.00  0.00     0.290 C 
HETATM    7  O2  UNL     1      54.302   3.422  39.275  1.00  0.00    -0.263 OA
BRANCH   6   8
HETATM    8  O1  UNL     1      54.047   3.307  41.501  1.00  0.00    -0.315 OA
BRANCH   8   9
HETATM    9  C2  UNL     1      53.957   4.612  42.012  1.00  0.00     0.123 C 
HETATM   10  C1  UNL     1      54.629   4.790  43.329  1.00  0.00     0.040 C 
HETATM   11  C3  UNL     1      52.511   5.102  42.007  1.00  0.00     0.040 C 
ENDBRANCH   8   9
ENDBRANCH   6   8
ENDBRANCH   5   6
BRANCH   5  12
HETATM   12  C22 UNL     1      57.067   2.880  41.190  1.00  0.00     0.018 C 
HETATM   13  C23 UNL     1      57.941   3.742  40.351  1.00  0.00     0.012 C 
HETATM   14  C24 UNL     1      57.910   1.939  42.033  1.00  0.00     0.012 C 
ENDBRANCH   5  12
ENDBRANCH   2   5
ENDBRANCH   1   2
BRANCH   1  15
HETATM   15  C7  UNL     1      55.902  -0.298  38.011  1.00  0.00     0.043 C 
BRANCH  15  16
HETATM   16  C8  UNL     1      55.333   0.791  37.089  1.00  0.00     0.004 C 
BRANCH  16  17
HETATM   17  C9  UNL     1      53.830   0.628  36.938  1.00  0.00     0.020 C 
BRANCH  17  18
HETATM   18  C10 UNL     1      53.269   1.775  36.139  1.00  0.00     0.122 C 
BRANCH  18  19
HETATM   19  N2  UNL     1      51.837   1.671  35.979  1.00  0.00    -0.367 N 
HETATM   20  C11 UNL     1      51.310   2.097  34.889  1.00  0.00     0.196 C 
HETATM   21  N3  UNL     1      52.152   2.649  33.891  1.00  0.00    -0.067 NA
HETATM   22  N4  UNL     1      49.926   2.035  34.644  1.00  0.00    -0.067 NA
ATOM     23  H2  UNL     1      51.258   1.268  36.716  1.00  0.00     0.161 HD
ENDBRANCH  18  19
ENDBRANCH  17  18
ENDBRANCH  16  17
ENDBRANCH  15  16
ENDBRANCH   1  15
BRANCH   1  24
HETATM   24  C12 UNL     1      58.176  -0.010  38.831  1.00  0.00     0.249 C 
HETATM   25  O3  UNL     1      58.474  -1.225  38.784  1.00  0.00    -0.271 OA
HETATM   26  N5  UNL     1      59.195   0.952  38.671  1.00  0.00    -0.351 N 
ATOM     27  H5  UNL     1      58.952   1.942  38.713  1.00  0.00     0.163 HD
BRANCH  26  28
HETATM   28  C13 UNL     1      60.560   0.577  38.450  1.00  0.00     0.139 C 
BRANCH  28  29
HETATM   29  C14 UNL     1      61.325   0.468  39.722  1.00  0.00     0.257 C 
BRANCH  29  30
HETATM   30  N6  UNL     1      61.366  -0.876  40.220  1.00  0.00    -0.077 N 
ATOM     31  H63 UNL     1      61.768  -1.512  39.530  1.00  0.00     0.274 HD
ATOM     32  H62 UNL     1      62.064  -0.975  40.958  1.00  0.00     0.274 HD
ATOM     33  H61 UNL     1      60.452  -1.203  40.532  1.00  0.00     0.274 HD
ENDBRANCH  29  30
ENDBRANCH  28  29
BRANCH  28  34
HETATM   34  C15 UNL     1      61.258   1.360  37.353  1.00  0.00     0.147 C 
BRANCH  34  35
HETATM   35  O4  UNL     1      60.362   2.380  37.027  1.00  0.00    -0.393 OA
ATOM     36  H4  UNL     1      60.327   2.924  37.806  1.00  0.00     0.210 HD
ENDBRANCH  34  35
BRANCH  34  37
HETATM   37  C16 UNL     1      62.636   1.808  37.626  1.00  0.00     0.022 C 
HETATM   38  C17 UNL     1      62.937   3.261  37.442  1.00  0.00     0.007 C 
HETATM   39  C18 UNL     1      64.213   3.336  36.580  1.00  0.00     0.001 C 
HETATM   40  C19 UNL     1      64.101   2.019  35.780  1.00  0.00     0.007 C 
HETATM   41  C20 UNL     1      63.756   1.108  36.943  1.00  0.00     0.017 C 
BRANCH  41  42
HETATM   42  C21 UNL     1      63.623  -0.307  36.570  1.00  0.00     0.234 C 
BRANCH  42  43
HETATM   43  N7  UNL     1      64.675  -0.904  35.812  1.00  0.00    -0.079 N 
ATOM     44  H73 UNL     1      64.428  -0.880  34.823  1.00  0.00     0.274 HD
ATOM     45  H72 UNL     1      65.487  -0.286  35.826  1.00  0.00     0.274 HD
ATOM     46  H71 UNL     1      64.969  -1.848  36.060  1.00  0.00     0.274 HD
ENDBRANCH  42  43
ENDBRANCH  41  42
ENDBRANCH  34  37
ENDBRANCH  28  34
ENDBRANCH  26  28
ENDBRANCH   1  24
TORSDOF 20
ENDMDL
MODEL 3
REMARK VINA RESULT: -6.134774207      2.348      3.371
REMARK  20 active torsions:
REMARK  status: ('A' for Active; 'I' for Inactive)
REMARK    1  A    between atoms: C2_2  and  O1_4 
REMARK    2  A    between atoms: O1_4  and  C4_5 
REMARK    3  A    between atoms: C4_5  and  C5_7 
REMARK    4  A    between atoms: C5_7  and  N1_8 
REMARK    5  A    between atoms: C5_7  and  C22_44 
REMARK    6  A    between atoms: N1_8  and  C6_11 
REMARK    7  A    between atoms: C6_11  and  C7_12 
REMARK    8  A    between atoms: C6_11  and  C12_21 
REMARK    9  A    between atoms: C7_12  and  C8_13 
REMARK   10  A    between atoms: C8_13  and  C9_14 
REMARK   11  A    between atoms: C9_14  and  C10_15 
REMARK   12  A    between atoms: C10_15  and  N2_16 
REMARK       I    between atoms: C12_21  and  N5_23 
REMARK   13  A    between atoms: N5_23  and  C13_25 
REMARK   14  A    between atoms: C13_25  and  C14_26 
REMARK   15  A    between atoms: C13_25  and  C15_31 
REMARK   16  A    between atoms: C14_26  and  N6_27 
REMARK   17  A    between atoms: C15_31  and  O4_32 
REMARK   18  A    between atoms: C15_31  and  C16_34 
REMARK   19  A    between atoms: C20_38  and  C21_39 
REMARK   20  A    between atoms: C21_39  and  N7_40 
ROOT
HETATM    1  C6  UNL     1      55.535   2.274  38.913  1.00  0.00     0.278 C 
ENDROOT
BRANCH   1   2
HETATM    2  N1  UNL     1      55.838   0.991  39.459  1.00  0.00    -0.049 N 
ATOM      3  H12 UNL     1      56.485   1.069  40.243  1.00  0.00     0.279 HD
ATOM      4  H11 UNL     1      56.419   0.448  38.820  1.00  0.00     0.279 HD
BRANCH   2   5
HETATM    5  C5  UNL     1      54.644   0.254  39.836  1.00  0.00     0.288 C 
BRANCH   5   6
HETATM    6  C4  UNL     1      54.568  -0.050  41.267  1.00  0.00     0.290 C 
HETATM    7  O2  UNL     1      53.547   0.193  41.995  1.00  0.00    -0.263 OA
BRANCH   6   8
HETATM    8  O1  UNL     1      55.628  -0.643  41.961  1.00  0.00    -0.315 OA
BRANCH   8   9
HETATM    9  C2  UNL     1      56.383   0.008  42.949  1.00  0.00     0.123 C 
HETATM   10  C1  UNL     1      57.720   0.467  42.480  1.00  0.00     0.040 C 
HETATM   11  C3  UNL     1      56.450  -0.828  44.225  1.00  0.00     0.040 C 
ENDBRANCH   8   9
ENDBRANCH   6   8
ENDBRANCH   5   6
BRANCH   5  12
HETATM   12  C22 UNL     1      54.591  -1.014  39.039  1.00  0.00     0.018 C 
HETATM   13  C23 UNL     1      55.615  -1.125  37.966  1.00  0.00     0.012 C 
HETATM   14  C24 UNL     1      53.204  -1.261  38.471  1.00  0.00     0.012 C 
ENDBRANCH   5  12
ENDBRANCH   2   5
ENDBRANCH   1   2
BRANCH   1  15
HETATM   15  C7  UNL     1      54.389   2.232  37.962  1.00  0.00     0.043 C 
BRANCH  15  16
HETATM   16  C8  UNL     1      54.938   2.164  36.529  1.00  0.00     0.004 C 
BRANCH  16  17
HETATM   17  C9  UNL     1      53.949   1.466  35.612  1.00  0.00     0.020 C 
BRANCH  17  18
HETATM   18  C10 UNL     1      52.552   1.628  36.148  1.00  0.00     0.122 C 
BRANCH  18  19
HETATM   19  N2  UNL     1      51.959   2.881  35.743  1.00  0.00    -0.367 N 
HETATM   20  C11 UNL     1      50.889   2.853  35.035  1.00  0.00     0.196 C 
HETATM   21  N3  UNL     1      50.335   1.597  34.681  1.00  0.00    -0.067 NA
HETATM   22  N4  UNL     1      50.241   4.022  34.597  1.00  0.00    -0.067 NA
ATOM     23  H2  UNL     1      52.381   3.769  36.015  1.00  0.00     0.161 HD
ENDBRANCH  18  19
ENDBRANCH  17  18
ENDBRANCH  16  17
ENDBRANCH  15  16
ENDBRANCH   1  15
BRANCH   1  24
HETATM   24  C12 UNL     1      55.304   3.321  39.938  1.00  0.00     0.249 C 
HETATM   25  O3  UNL     1      54.145   3.781  40.056  1.00  0.00    -0.271 OA
HETATM   26  N5  UNL     1      56.324   3.808  40.780  1.00  0.00    -0.351 N 
ATOM     27  H5  UNL     1      57.268   3.435  40.681  1.00  0.00     0.163 HD
BRANCH  26  28
HETATM   28  C13 UNL     1      56.071   4.811  41.771  1.00  0.00     0.139 C 
BRANCH  28  29
HETATM   29  C14 UNL     1      57.264   5.664  42.025  1.00  0.00     0.257 C 
BRANCH  29  30
HETATM   30  N6  UNL     1      57.105   6.991  41.505  1.00  0.00    -0.077 N 
ATOM     31  H63 UNL     1      56.269   7.061  40.925  1.00  0.00     0.274 HD
ATOM     32  H62 UNL     1      56.848   7.648  42.242  1.00  0.00     0.274 HD
ATOM     33  H61 UNL     1      57.931   7.311  40.999  1.00  0.00     0.274 HD
ENDBRANCH  29  30
ENDBRANCH  28  29
BRANCH  28  34
HETATM   34  C15 UNL     1      55.377   4.299  43.022  1.00  0.00     0.147 C 
BRANCH  34  35
HETATM   35  O4  UNL     1      56.342   3.517  43.661  1.00  0.00    -0.393 OA
ATOM     36  H4  UNL     1      56.470   3.939  44.503  1.00  0.00     0.210 HD
ENDBRANCH  34  35
BRANCH  34  37
HETATM   37  C16 UNL     1      54.724   5.304  43.880  1.00  0.00     0.022 C 
HETATM   38  C17 UNL     1      55.168   5.385  45.305  1.00  0.00     0.007 C 
HETATM   39  C18 UNL     1      53.886   5.369  46.163  1.00  0.00     0.001 C 
HETATM   40  C19 UNL     1      52.931   4.576  45.243  1.00  0.00     0.007 C 
HETATM   41  C20 UNL     1      53.239   5.314  43.953  1.00  0.00     0.017 C 
BRANCH  41  42
HETATM   42  C21 UNL     1      52.441   4.862  42.805  1.00  0.00     0.234 C 
BRANCH  42  43
HETATM   43  N7  UNL     1      52.420   5.681  41.638  1.00  0.00    -0.079 N 
ATOM     44  H73 UNL     1      51.837   5.236  40.928  1.00  0.00     0.274 HD
ATOM     45  H72 UNL     1      51.879   6.525  41.832  1.00  0.00     0.274 HD
ATOM     46  H71 UNL     1      53.311   5.945  41.219  1.00  0.00     0.274 HD
ENDBRANCH  42  43
ENDBRANCH  41  42
ENDBRANCH  34  37
ENDBRANCH  28  34
ENDBRANCH  26  28
ENDBRANCH   1  24
TORSDOF 20
ENDMDL
MODEL 4
REMARK VINA RESULT: -5.944135354      3.117      4.702
REMARK  20 active torsions:
REMARK  status: ('A' for Active; 'I' for Inactive)
REMARK    1  A    between atoms: C2_2  and  O1_4 
REMARK    2  A    between atoms: O1_4  and  C4_5 
REMARK    3  A    between atoms: C4_5  and  C5_7 
REMARK    4  A    between atoms: C5_7  and  N1_8 
REMARK    5  A    between atoms: C5_7  and  C22_44 
REMARK    6  A    between atoms: N1_8  and  C6_11 
REMARK    7  A    between atoms: C6_11  and  C7_12 
REMARK    8  A    between atoms: C6_11  and  C12_21 
REMARK    9  A    between atoms: C7_12  and  C8_13 
REMARK   10  A    between atoms: C8_13  and  C9_14 
REMARK   11  A    between atoms: C9_14  and  C10_15 
REMARK   12  A    between atoms: C10_15  and  N2_16 
REMARK       I    between atoms: C12_21  and  N5_23 
REMARK   13  A    between atoms: N5_23  and  C13_25 
REMARK   14  A    between atoms: C13_25  and  C14_26 
REMARK   15  A    between atoms: C13_25  and  C15_31 
REMARK   16  A    between atoms: C14_26  and  N6_27 
REMARK   17  A    between atoms: C15_31  and  O4_32 
REMARK   18  A    between atoms: C15_31  and  C16_34 
REMARK   19  A    between atoms: C20_38  and  C21_39 
REMARK   20  A    between atoms: C21_39  and  N7_40 
ROOT
HETATM    1  C6  UNL     1      56.807   0.398  39.076  1.00  0.00     0.278 C 
ENDROOT
BRANCH   1   2
HETATM    2  N1  UNL     1      56.862   1.819  38.959  1.00  0.00    -0.049 N 
ATOM      3  H12 UNL     1      56.303   2.145  38.171  1.00  0.00     0.279 HD
ATOM      4  H11 UNL     1      57.783   2.127  38.646  1.00  0.00     0.279 HD
BRANCH   2   5
HETATM    5  C5  UNL     1      56.475   2.491  40.188  1.00  0.00     0.288 C 
BRANCH   5   6
HETATM    6  C4  UNL     1      55.035   2.730  40.301  1.00  0.00     0.290 C 
HETATM    7  O2  UNL     1      54.344   3.359  39.430  1.00  0.00    -0.263 OA
BRANCH   6   8
HETATM    8  O1  UNL     1      54.287   2.276  41.393  1.00  0.00    -0.315 OA
BRANCH   8   9
HETATM    9  C2  UNL     1      54.537   1.073  42.072  1.00  0.00     0.123 C 
HETATM   10  C1  UNL     1      54.150  -0.143  41.304  1.00  0.00     0.040 C 
HETATM   11  C3  UNL     1      53.946   1.106  43.479  1.00  0.00     0.040 C 
ENDBRANCH   8   9
ENDBRANCH   6   8
ENDBRANCH   5   6
BRANCH   5  12
HETATM   12  C22 UNL     1      57.218   3.790  40.279  1.00  0.00     0.018 C 
HETATM   13  C23 UNL     1      58.700   3.665  40.311  1.00  0.00     0.012 C 
HETATM   14  C24 UNL     1      56.735   4.631  41.448  1.00  0.00     0.012 C 
ENDBRANCH   5  12
ENDBRANCH   2   5
ENDBRANCH   1   2
BRANCH   1  15
HETATM   15  C7  UNL     1      55.988  -0.230  38.002  1.00  0.00     0.043 C 
BRANCH  15  16
HETATM   16  C8  UNL     1      55.390   0.880  37.123  1.00  0.00     0.004 C 
BRANCH  16  17
HETATM   17  C9  UNL     1      53.883   0.726  37.025  1.00  0.00     0.020 C 
BRANCH  17  18
HETATM   18  C10 UNL     1      53.315   1.805  36.142  1.00  0.00     0.122 C 
BRANCH  18  19
HETATM   19  N2  UNL     1      51.884   1.680  35.988  1.00  0.00    -0.367 N 
HETATM   20  C11 UNL     1      51.346   2.096  34.900  1.00  0.00     0.196 C 
HETATM   21  N3  UNL     1      52.175   2.658  33.897  1.00  0.00    -0.067 NA
HETATM   22  N4  UNL     1      49.962   2.012  34.661  1.00  0.00    -0.067 NA
ATOM     23  H2  UNL     1      51.314   1.269  36.728  1.00  0.00     0.161 HD
ENDBRANCH  18  19
ENDBRANCH  17  18
ENDBRANCH  16  17
ENDBRANCH  15  16
ENDBRANCH   1  15
BRANCH   1  24
HETATM   24  C12 UNL     1      58.140  -0.248  39.141  1.00  0.00     0.249 C 
HETATM   25  O3  UNL     1      58.228  -1.447  38.789  1.00  0.00    -0.271 OA
HETATM   26  N5  UNL     1      59.300   0.428  39.570  1.00  0.00    -0.351 N 
ATOM     27  H5  UNL     1      59.227   1.403  39.859  1.00  0.00     0.163 HD
BRANCH  26  28
HETATM   28  C13 UNL     1      60.579  -0.217  39.611  1.00  0.00     0.139 C 
BRANCH  28  29
HETATM   29  C14 UNL     1      60.863  -0.820  40.942  1.00  0.00     0.257 C 
BRANCH  29  30
HETATM   30  N6  UNL     1      60.420  -2.181  41.030  1.00  0.00    -0.077 N 
ATOM     31  H63 UNL     1      60.182  -2.550  40.110  1.00  0.00     0.274 HD
ATOM     32  H62 UNL     1      61.193  -2.805  41.262  1.00  0.00     0.274 HD
ATOM     33  H61 UNL     1      59.646  -2.295  41.684  1.00  0.00     0.274 HD
ENDBRANCH  29  30
ENDBRANCH  28  29
BRANCH  28  34
HETATM   34  C15 UNL     1      61.717   0.602  39.028  1.00  0.00     0.147 C 
BRANCH  34  35
HETATM   35  O4  UNL     1      62.851  -0.189  39.220  1.00  0.00    -0.393 OA
ATOM     36  H4  UNL     1      63.533   0.428  39.462  1.00  0.00     0.210 HD
ENDBRANCH  34  35
BRANCH  34  37
HETATM   37  C16 UNL     1      61.539   1.109  37.655  1.00  0.00     0.022 C 
HETATM   38  C17 UNL     1      61.965   0.218  36.532  1.00  0.00     0.007 C 
HETATM   39  C18 UNL     1      62.843   1.080  35.602  1.00  0.00     0.001 C 
HETATM   40  C19 UNL     1      63.413   2.105  36.608  1.00  0.00     0.007 C 
HETATM   41  C20 UNL     1      62.110   2.438  37.312  1.00  0.00     0.017 C 
BRANCH  41  42
HETATM   42  C21 UNL     1      62.241   3.474  38.345  1.00  0.00     0.234 C 
BRANCH  42  43
HETATM   43  N7  UNL     1      63.554   3.866  38.740  1.00  0.00    -0.079 N 
ATOM     44  H73 UNL     1      63.726   3.547  39.694  1.00  0.00     0.274 HD
ATOM     45  H72 UNL     1      64.238   3.313  38.223  1.00  0.00     0.274 HD
ATOM     46  H71 UNL     1      63.803   4.853  38.670  1.00  0.00     0.274 HD
ENDBRANCH  42  43
ENDBRANCH  41  42
ENDBRANCH  34  37
ENDBRANCH  28  34
ENDBRANCH  26  28
ENDBRANCH   1  24
TORSDOF 20
ENDMDL
MODEL 5
REMARK VINA RESULT: -5.845081020      3.053      4.745
REMARK  20 active torsions:
REMARK  status: ('A' for Active; 'I' for Inactive)
REMARK    1  A    between atoms: C2_2  and  O1_4 
REMARK    2  A    between atoms: O1_4  and  C4_5 
REMARK    3  A    between atoms: C4_5  and  C5_7 
REMARK    4  A    between atoms: C5_7  and  N1_8 
REMARK    5  A    between atoms: C5_7  and  C22_44 
REMARK    6  A    between atoms: N1_8  and  C6_11 
REMARK    7  A    between atoms: C6_11  and  C7_12 
REMARK    8  A    between atoms: C6_11  and  C12_21 
REMARK    9  A    between atoms: C7_12  and  C8_13 
REMARK   10  A    between atoms: C8_13  and  C9_14 
REMARK   11  A    between atoms: C9_14  and  C10_15 
REMARK   12  A    between atoms: C10_15  and  N2_16 
REMARK       I    between atoms: C12_21  and  N5_23 
REMARK   13  A    between atoms: N5_23  and  C13_25 
REMARK   14  A    between atoms: C13_25  and  C14_26 
REMARK   15  A    between atoms: C13_25  and  C15_31 
REMARK   16  A    between atoms: C14_26  and  N6_27 
REMARK   17  A    between atoms: C15_31  and  O4_32 
REMARK   18  A    between atoms: C15_31  and  C16_34 
REMARK   19  A    between atoms: C20_38  and  C21_39 
REMARK   20  A    between atoms: C21_39  and  N7_40 
ROOT
HETATM    1  C6  UNL     1      56.468   0.194  39.359  1.00  0.00     0.278 C 
ENDROOT
BRANCH   1   2
HETATM    2  N1  UNL     1      56.444   1.616  39.243  1.00  0.00    -0.049 N 
ATOM      3  H12 UNL     1      55.878   1.910  38.446  1.00  0.00     0.279 HD
ATOM      4  H11 UNL     1      57.350   1.975  38.942  1.00  0.00     0.279 HD
BRANCH   2   5
HETATM    5  C5  UNL     1      56.003   2.264  40.466  1.00  0.00     0.288 C 
BRANCH   5   6
HETATM    6  C4  UNL     1      54.764   3.029  40.314  1.00  0.00     0.290 C 
HETATM    7  O2  UNL     1      54.312   3.442  39.193  1.00  0.00    -0.263 OA
BRANCH   6   8
HETATM    8  O1  UNL     1      53.961   3.373  41.407  1.00  0.00    -0.315 OA
BRANCH   8   9
HETATM    9  C2  UNL     1      53.879   4.667  41.945  1.00  0.00     0.123 C 
HETATM   10  C1  UNL     1      54.590   4.826  43.244  1.00  0.00     0.040 C 
HETATM   11  C3  UNL     1      52.431   5.149  41.992  1.00  0.00     0.040 C 
ENDBRANCH   8   9
ENDBRANCH   6   8
ENDBRANCH   5   6
BRANCH   5  12
HETATM   12  C22 UNL     1      57.101   3.159  40.957  1.00  0.00     0.018 C 
HETATM   13  C23 UNL     1      58.239   3.332  40.015  1.00  0.00     0.012 C 
HETATM   14  C24 UNL     1      57.609   2.726  42.322  1.00  0.00     0.012 C 
ENDBRANCH   5  12
ENDBRANCH   2   5
ENDBRANCH   1   2
BRANCH   1  15
HETATM   15  C7  UNL     1      55.637  -0.476  38.319  1.00  0.00     0.043 C 
BRANCH  15  16
HETATM   16  C8  UNL     1      55.152   0.582  37.316  1.00  0.00     0.004 C 
BRANCH  16  17
HETATM   17  C9  UNL     1      53.637   0.562  37.213  1.00  0.00     0.020 C 
BRANCH  17  18
HETATM   18  C10 UNL     1      53.177   1.613  36.238  1.00  0.00     0.122 C 
BRANCH  18  19
HETATM   19  N2  UNL     1      51.750   1.562  36.023  1.00  0.00    -0.367 N 
HETATM   20  C11 UNL     1      51.276   2.051  34.935  1.00  0.00     0.196 C 
HETATM   21  N3  UNL     1      52.170   2.617  33.992  1.00  0.00    -0.067 NA
HETATM   22  N4  UNL     1      49.901   2.043  34.639  1.00  0.00    -0.067 NA
ATOM     23  H2  UNL     1      51.132   1.147  36.721  1.00  0.00     0.161 HD
ENDBRANCH  18  19
ENDBRANCH  17  18
ENDBRANCH  16  17
ENDBRANCH  15  16
ENDBRANCH   1  15
BRANCH   1  24
HETATM   24  C12 UNL     1      57.834  -0.383  39.365  1.00  0.00     0.249 C 
HETATM   25  O3  UNL     1      58.086  -1.304  38.555  1.00  0.00    -0.271 OA
HETATM   26  N5  UNL     1      58.851   0.065  40.232  1.00  0.00    -0.351 N 
ATOM     27  H5  UNL     1      58.645   0.813  40.894  1.00  0.00     0.163 HD
BRANCH  26  28
HETATM   28  C13 UNL     1      60.167  -0.501  40.209  1.00  0.00     0.139 C 
BRANCH  28  29
HETATM   29  C14 UNL     1      60.538  -1.116  41.513  1.00  0.00     0.257 C 
BRANCH  29  30
HETATM   30  N6  UNL     1      60.704  -2.537  41.417  1.00  0.00    -0.077 N 
ATOM     31  H63 UNL     1      59.887  -3.028  41.780  1.00  0.00     0.274 HD
ATOM     32  H62 UNL     1      60.664  -2.848  40.447  1.00  0.00     0.274 HD
ATOM     33  H61 UNL     1      61.558  -2.859  41.872  1.00  0.00     0.274 HD
ENDBRANCH  29  30
ENDBRANCH  28  29
BRANCH  28  34
HETATM   34  C15 UNL     1      61.230   0.401  39.605  1.00  0.00     0.147 C 
BRANCH  34  35
HETATM   35  O4  UNL     1      62.435  -0.249  39.879  1.00  0.00    -0.393 OA
ATOM     36  H4  UNL     1      62.838   0.276  40.561  1.00  0.00     0.210 HD
ENDBRANCH  34  35
BRANCH  34  37
HETATM   37  C16 UNL     1      61.046   0.800  38.198  1.00  0.00     0.022 C 
HETATM   38  C17 UNL     1      61.450  -0.181  37.146  1.00  0.00     0.007 C 
HETATM   39  C18 UNL     1      62.331   0.593  36.143  1.00  0.00     0.001 C 
HETATM   40  C19 UNL     1      62.922   1.687  37.061  1.00  0.00     0.007 C 
HETATM   41  C20 UNL     1      61.630   2.091  37.747  1.00  0.00     0.017 C 
BRANCH  41  42
HETATM   42  C21 UNL     1      61.784   3.203  38.695  1.00  0.00     0.234 C 
BRANCH  42  43
HETATM   43  N7  UNL     1      62.897   4.078  38.529  1.00  0.00    -0.079 N 
ATOM     44  H73 UNL     1      63.690   3.714  39.058  1.00  0.00     0.274 HD
ATOM     45  H72 UNL     1      63.246   3.997  37.574  1.00  0.00     0.274 HD
ATOM     46  H71 UNL     1      62.771   5.065  38.755  1.00  0.00     0.274 HD
ENDBRANCH  42  43
ENDBRANCH  41  42
ENDBRANCH  34  37
ENDBRANCH  28  34
ENDBRANCH  26  28
ENDBRANCH   1  24
TORSDOF 20
ENDMDL
