MODEL 1
REMARK VINA RESULT: -2.640421025      0.000      0.000
REMARK  1 active torsions:
REMARK  status: ('A' for Active; 'I' for Inactive)
REMARK    1  A    between atoms: C2_6  and  N4_7 
ROOT
HETATM    1  C1  UNL     1      35.068  16.141   7.043  1.00  0.00     0.198 C 
HETATM    2  N1  UNL     1      35.258  16.745   8.340  1.00  0.00    -0.208 N 
HETATM    3  N2  UNL     1      34.455  17.630   8.916  1.00  0.00     0.011 NA
HETATM    4  N3  UNL     1      34.933  17.970  10.103  1.00  0.00    -0.114 N 
ATOM      5  H3  UNL     1      34.510  18.633  10.753  1.00  0.00     0.203 HD
HETATM    6  C2  UNL     1      36.071  17.290  10.300  1.00  0.00     0.704 A 
HETATM    7  N5  UNL     1      36.243  16.544   9.198  1.00  0.00    -0.117 N 
ATOM      8  H5  UNL     1      37.026  15.910   9.043  1.00  0.00     0.207 HD
ENDROOT
BRANCH   6   9
HETATM    9  N4  UNL     1      36.855  17.334  11.345  1.00  0.00    -0.232 N 
ATOM     10  H42 UNL     1      36.958  16.617  12.063  1.00  0.00     0.174 HD
ATOM     11  H41 UNL     1      37.488  18.087  11.617  1.00  0.00     0.174 HD
ENDBRANCH   6   9
TORSDOF 1
ENDMDL
MODEL 2
REMARK VINA RESULT: -2.531929904      1.273      2.123
REMARK  1 active torsions:
REMARK  status: ('A' for Active; 'I' for Inactive)
REMARK    1  A    between atoms: C2_6  and  N4_7 
ROOT
HETATM    1  C1  UNL     1      37.440  16.184   7.262  1.00  0.00     0.198 C 
HETATM    2  N1  UNL     1      36.733  16.676   8.420  1.00  0.00    -0.208 N 
HETATM    3  N2  UNL     1      37.168  16.650   9.673  1.00  0.00     0.011 NA
HETATM    4  N3  UNL     1      36.265  17.184  10.479  1.00  0.00    -0.114 N 
ATOM      5  H3  UNL     1      36.348  17.288  11.490  1.00  0.00     0.203 HD
HETATM    6  C2  UNL     1      35.219  17.565   9.731  1.00  0.00     0.704 A 
HETATM    7  N5  UNL     1      35.539  17.239   8.469  1.00  0.00    -0.117 N 
ATOM      8  H5  UNL     1      34.941  17.404   7.659  1.00  0.00     0.207 HD
ENDROOT
BRANCH   6   9
HETATM    9  N4  UNL     1      34.115  18.137  10.136  1.00  0.00    -0.232 N 
ATOM     10  H42 UNL     1      33.966  18.616  11.024  1.00  0.00     0.174 HD
ATOM     11  H41 UNL     1      33.227  18.197   9.639  1.00  0.00     0.174 HD
ENDBRANCH   6   9
TORSDOF 1
ENDMDL
MODEL 3
REMARK VINA RESULT: -2.423735008      8.217      9.521
REMARK  1 active torsions:
REMARK  status: ('A' for Active; 'I' for Inactive)
REMARK    1  A    between atoms: C2_6  and  N4_7 
ROOT
HETATM    1  C1  UNL     1      36.447  20.267  15.759  1.00  0.00     0.198 C 
HETATM    2  N1  UNL     1      36.704  19.925  17.138  1.00  0.00    -0.208 N 
HETATM    3  N2  UNL     1      37.427  18.900  17.569  1.00  0.00     0.011 NA
HETATM    4  N3  UNL     1      37.453  18.887  18.892  1.00  0.00    -0.114 N 
ATOM      5  H3  UNL     1      37.938  18.206  19.477  1.00  0.00     0.203 HD
HETATM    6  C2  UNL     1      36.731  19.929  19.329  1.00  0.00     0.704 A 
HETATM    7  N5  UNL     1      36.284  20.548  18.225  1.00  0.00    -0.117 N 
ATOM      8  H5  UNL     1      35.700  21.384  18.226  1.00  0.00     0.207 HD
ENDROOT
BRANCH   6   9
HETATM    9  N4  UNL     1      36.505  20.278  20.568  1.00  0.00    -0.232 N 
ATOM     10  H42 UNL     1      37.143  20.777  21.189  1.00  0.00     0.174 HD
ATOM     11  H41 UNL     1      35.662  20.112  21.118  1.00  0.00     0.174 HD
ENDBRANCH   6   9
TORSDOF 1
ENDMDL
MODEL 4
REMARK VINA RESULT: -2.419405225      9.470     10.815
REMARK  1 active torsions:
REMARK  status: ('A' for Active; 'I' for Inactive)
REMARK    1  A    between atoms: C2_6  and  N4_7 
ROOT
HETATM    1  C1  UNL     1      34.031  20.133  20.568  1.00  0.00     0.198 C 
HETATM    2  N1  UNL     1      35.303  20.223  19.891  1.00  0.00    -0.208 N 
HETATM    3  N2  UNL     1      36.474  19.823  20.367  1.00  0.00     0.011 NA
HETATM    4  N3  UNL     1      37.429  20.057  19.481  1.00  0.00    -0.114 N 
ATOM      5  H3  UNL     1      38.420  19.844  19.596  1.00  0.00     0.203 HD
HETATM    6  C2  UNL     1      36.863  20.622  18.405  1.00  0.00     0.704 A 
HETATM    7  N5  UNL     1      35.554  20.710  18.688  1.00  0.00    -0.117 N 
ATOM      8  H5  UNL     1      34.851  21.099  18.061  1.00  0.00     0.207 HD
ENDROOT
BRANCH   6   9
HETATM    9  N4  UNL     1      37.453  21.007  17.303  1.00  0.00    -0.232 N 
ATOM     10  H42 UNL     1      37.329  20.611  16.372  1.00  0.00     0.174 HD
ATOM     11  H41 UNL     1      38.132  21.761  17.193  1.00  0.00     0.174 HD
ENDBRANCH   6   9
TORSDOF 1
ENDMDL
MODEL 5
REMARK VINA RESULT: -2.409666972     10.718     11.242
REMARK  1 active torsions:
REMARK  status: ('A' for Active; 'I' for Inactive)
REMARK    1  A    between atoms: C2_6  and  N4_7 
ROOT
HETATM    1  C1  UNL     1      37.358  17.308  20.160  1.00  0.00     0.198 C 
HETATM    2  N1  UNL     1      36.716  18.594  20.028  1.00  0.00    -0.208 N 
HETATM    3  N2  UNL     1      37.164  19.624  19.321  1.00  0.00     0.011 NA
HETATM    4  N3  UNL     1      36.325  20.642  19.422  1.00  0.00    -0.114 N 
ATOM      5  H3  UNL     1      36.431  21.554  18.977  1.00  0.00     0.203 HD
HETATM    6  C2  UNL     1      35.310  20.264  20.213  1.00  0.00     0.704 A 
HETATM    7  N5  UNL     1      35.580  18.999  20.568  1.00  0.00    -0.117 N 
ATOM      8  H5  UNL     1      34.990  18.428  21.172  1.00  0.00     0.207 HD
ENDROOT
BRANCH   6   9
HETATM    9  N4  UNL     1      34.270  20.972  20.568  1.00  0.00    -0.232 N 
ATOM     10  H42 UNL     1      33.506  21.280  19.965  1.00  0.00     0.174 HD
ATOM     11  H41 UNL     1      34.050  21.333  21.496  1.00  0.00     0.174 HD
ENDBRANCH   6   9
TORSDOF 1
ENDMDL
