MODEL 1
REMARK VINA RESULT: -2.214243004      0.000      0.000
REMARK  0 active torsions:
REMARK  status: ('A' for Active; 'I' for Inactive)
ROOT
HETATM    1  C1  UNL     1      37.453  17.639   8.564  1.00  0.00     0.316 C 
HETATM    2  N1  UNL     1      36.534  17.641   9.652  1.00  0.00     0.154 N 
HETATM    3  C2  UNL     1      36.693  16.630  10.658  1.00  0.00     0.510 A 
HETATM    4  N2  UNL     1      35.339  16.157  10.436  1.00  0.00    -0.004 N 
ATOM      5  H21 UNL     1      34.671  16.103  11.205  1.00  0.00     0.283 HD
ATOM      6  H22 UNL     1      35.156  15.175  10.230  1.00  0.00     0.283 HD
HETATM    7  C3  UNL     1      35.204  17.169   9.403  1.00  0.00     0.527 A 
HETATM    8  C4  UNL     1      34.968  16.600   8.086  1.00  0.00     0.125 C 
HETATM    9  N3  UNL     1      34.763  16.141   7.035  1.00  0.00    -0.193 NA
ENDROOT
TORSDOF 0
ENDMDL
MODEL 2
REMARK VINA RESULT: -2.208621573      8.503      9.664
REMARK  0 active torsions:
REMARK  status: ('A' for Active; 'I' for Inactive)
ROOT
HETATM    1  C1  UNL     1      37.453  18.197  18.456  1.00  0.00     0.316 C 
HETATM    2  N1  UNL     1      37.443  19.520  18.982  1.00  0.00     0.154 N 
HETATM    3  C2  UNL     1      36.339  19.893  19.820  1.00  0.00     0.510 A 
HETATM    4  N2  UNL     1      36.007  20.998  18.938  1.00  0.00    -0.004 N 
ATOM      5  H21 UNL     1      35.947  21.952  19.296  1.00  0.00     0.283 HD
ATOM      6  H22 UNL     1      35.067  21.099  18.558  1.00  0.00     0.283 HD
HETATM    7  C3  UNL     1      37.113  20.591  18.089  1.00  0.00     0.527 A 
HETATM    8  C4  UNL     1      36.682  20.198  16.757  1.00  0.00     0.125 C 
HETATM    9  N3  UNL     1      36.335  19.898  15.686  1.00  0.00    -0.193 NA
ENDROOT
TORSDOF 0
ENDMDL
MODEL 3
REMARK VINA RESULT: -2.143949122     10.640     11.478
REMARK  0 active torsions:
REMARK  status: ('A' for Active; 'I' for Inactive)
ROOT
HETATM    1  C1  UNL     1      34.496  19.897  20.566  1.00  0.00     0.316 C 
HETATM    2  N1  UNL     1      35.911  20.001  20.440  1.00  0.00     0.154 N 
HETATM    3  C2  UNL     1      36.444  20.266  19.133  1.00  0.00     0.510 A 
HETATM    4  N2  UNL     1      37.245  19.056  19.185  1.00  0.00    -0.004 N 
ATOM      5  H21 UNL     1      38.256  19.093  19.052  1.00  0.00     0.283 HD
ATOM      6  H22 UNL     1      37.190  18.360  18.442  1.00  0.00     0.283 HD
HETATM    7  C3  UNL     1      36.677  18.791  20.495  1.00  0.00     0.527 A 
HETATM    8  C4  UNL     1      35.911  17.556  20.536  1.00  0.00     0.125 C 
HETATM    9  N3  UNL     1      35.311  16.558  20.568  1.00  0.00    -0.193 NA
ENDROOT
TORSDOF 0
ENDMDL
MODEL 4
REMARK VINA RESULT: -2.123700509      9.398     10.664
REMARK  0 active torsions:
REMARK  status: ('A' for Active; 'I' for Inactive)
ROOT
HETATM    1  C1  UNL     1      37.453  17.931  19.451  1.00  0.00     0.316 C 
HETATM    2  N1  UNL     1      36.943  19.021  20.212  1.00  0.00     0.154 N 
HETATM    3  C2  UNL     1      35.552  18.988  20.568  1.00  0.00     0.510 A 
HETATM    4  N2  UNL     1      35.325  20.262  19.909  1.00  0.00    -0.004 N 
ATOM      5  H21 UNL     1      34.917  21.047  20.415  1.00  0.00     0.283 HD
ATOM      6  H22 UNL     1      34.597  20.361  19.202  1.00  0.00     0.283 HD
HETATM    7  C3  UNL     1      36.729  20.266  19.535  1.00  0.00     0.527 A 
HETATM    8  C4  UNL     1      36.926  20.248  18.094  1.00  0.00     0.125 C 
HETATM    9  N3  UNL     1      37.080  20.248  16.939  1.00  0.00    -0.193 NA
ENDROOT
TORSDOF 0
ENDMDL
MODEL 5
REMARK VINA RESULT: -2.063829134      1.241      2.917
REMARK  0 active torsions:
REMARK  status: ('A' for Active; 'I' for Inactive)
ROOT
HETATM    1  C1  UNL     1      37.453  17.655   8.607  1.00  0.00     0.316 C 
HETATM    2  N1  UNL     1      36.375  16.754   8.834  1.00  0.00     0.154 N 
HETATM    3  C2  UNL     1      35.040  17.269   8.706  1.00  0.00     0.510 A 
HETATM    4  N2  UNL     1      34.729  16.874  10.068  1.00  0.00    -0.004 N 
ATOM      5  H21 UNL     1      33.934  16.266  10.267  1.00  0.00     0.283 HD
ATOM      6  H22 UNL     1      34.358  17.549  10.736  1.00  0.00     0.283 HD
HETATM    7  C3  UNL     1      36.090  16.381  10.188  1.00  0.00     0.527 A 
HETATM    8  C4  UNL     1      36.851  17.078  11.212  1.00  0.00     0.125 C 
HETATM    9  N3  UNL     1      37.453  17.628  12.044  1.00  0.00    -0.193 NA
ENDROOT
TORSDOF 0
ENDMDL
