MODEL 1
REMARK VINA RESULT: -2.743473145      0.000      0.000
REMARK  0 active torsions:
REMARK  status: ('A' for Active; 'I' for Inactive)
ROOT
HETATM    1  C1  UNL     1      35.204  17.266   7.248  1.00  0.00     0.168 C 
HETATM    2  N1  UNL     1      35.832  17.168   8.548  1.00  0.00    -0.221 N 
HETATM    3  C2  UNL     1      37.175  16.657   8.777  1.00  0.00     0.161 A 
HETATM    4  C3  UNL     1      37.453  16.759  10.230  1.00  0.00     0.158 A 
HETATM    5  N2  UNL     1      36.258  17.272  10.818  1.00  0.00    -0.225 N 
ATOM      6  H2  UNL     1      36.117  17.428  11.816  1.00  0.00     0.177 HD
HETATM    7  C4  UNL     1      35.293  17.533   9.808  1.00  0.00     0.669 A 
HETATM    8  N3  UNL     1      34.134  18.022  10.065  1.00  0.00    -0.235 N 
ATOM      9  H31 UNL     1      33.746  18.284  10.971  1.00  0.00     0.174 HD
ATOM     10  H32 UNL     1      33.441  18.209   9.341  1.00  0.00     0.174 HD
ENDROOT
TORSDOF 0
ENDMDL
MODEL 2
REMARK VINA RESULT: -2.591870501      0.850      2.377
REMARK  0 active torsions:
REMARK  status: ('A' for Active; 'I' for Inactive)
ROOT
HETATM    1  C1  UNL     1      37.190  17.016  11.165  1.00  0.00     0.168 C 
HETATM    2  N1  UNL     1      36.593  16.971   9.848  1.00  0.00    -0.221 N 
HETATM    3  C2  UNL     1      37.212  16.355   8.683  1.00  0.00     0.161 A 
HETATM    4  C3  UNL     1      36.268  16.489   7.547  1.00  0.00     0.158 A 
HETATM    5  N2  UNL     1      35.152  17.220   8.056  1.00  0.00    -0.225 N 
ATOM      6  H2  UNL     1      34.340  17.503   7.508  1.00  0.00     0.177 HD
HETATM    7  C4  UNL     1      35.339  17.493   9.438  1.00  0.00     0.669 A 
HETATM    8  N3  UNL     1      34.470  18.120  10.146  1.00  0.00    -0.235 N 
ATOM      9  H31 UNL     1      33.569  18.496   9.852  1.00  0.00     0.174 HD
ATOM     10  H32 UNL     1      34.605  18.317  11.137  1.00  0.00     0.174 HD
ENDROOT
TORSDOF 0
ENDMDL
MODEL 3
REMARK VINA RESULT: -2.290814562      9.674     10.585
REMARK  0 active torsions:
REMARK  status: ('A' for Active; 'I' for Inactive)
ROOT
HETATM    1  C1  UNL     1      34.962  21.022  20.396  1.00  0.00     0.168 C 
HETATM    2  N1  UNL     1      35.916  20.066  19.879  1.00  0.00    -0.221 N 
HETATM    3  C2  UNL     1      36.319  18.848  20.568  1.00  0.00     0.161 A 
HETATM    4  C3  UNL     1      37.277  18.131  19.693  1.00  0.00     0.158 A 
HETATM    5  N2  UNL     1      37.452  18.964  18.547  1.00  0.00    -0.225 N 
ATOM      6  H2  UNL     1      38.079  18.763  17.768  1.00  0.00     0.177 HD
HETATM    7  C4  UNL     1      36.624  20.114  18.650  1.00  0.00     0.669 A 
HETATM    8  N3  UNL     1      36.573  21.018  17.740  1.00  0.00    -0.235 N 
ATOM      9  H31 UNL     1      37.081  21.053  16.857  1.00  0.00     0.174 HD
ATOM     10  H32 UNL     1      35.979  21.843  17.814  1.00  0.00     0.174 HD
ENDROOT
TORSDOF 0
ENDMDL
MODEL 4
REMARK VINA RESULT: -1.993136074      9.288     10.425
REMARK  0 active torsions:
REMARK  status: ('A' for Active; 'I' for Inactive)
ROOT
HETATM    1  C1  UNL     1      37.052  18.189  20.567  1.00  0.00     0.168 C 
HETATM    2  N1  UNL     1      36.839  19.175  19.530  1.00  0.00    -0.221 N 
HETATM    3  C2  UNL     1      37.453  19.130  18.211  1.00  0.00     0.161 A 
HETATM    4  C3  UNL     1      36.952  20.294  17.441  1.00  0.00     0.158 A 
HETATM    5  N2  UNL     1      36.106  21.015  18.337  1.00  0.00    -0.225 N 
ATOM      6  H2  UNL     1      35.630  21.890  18.115  1.00  0.00     0.177 HD
HETATM    7  C4  UNL     1      36.025  20.336  19.583  1.00  0.00     0.669 A 
HETATM    8  N3  UNL     1      35.310  20.761  20.560  1.00  0.00    -0.235 N 
ATOM      9  H31 UNL     1      34.725  21.596  20.598  1.00  0.00     0.174 HD
ATOM     10  H32 UNL     1      35.252  20.274  21.454  1.00  0.00     0.174 HD
ENDROOT
TORSDOF 0
ENDMDL
MODEL 5
REMARK VINA RESULT: -1.941218419      9.716     10.666
REMARK  0 active torsions:
REMARK  status: ('A' for Active; 'I' for Inactive)
ROOT
HETATM    1  C1  UNL     1      37.453  17.782  19.084  1.00  0.00     0.168 C 
HETATM    2  N1  UNL     1      36.697  18.968  19.429  1.00  0.00    -0.221 N 
HETATM    3  C2  UNL     1      35.737  19.044  20.520  1.00  0.00     0.161 A 
HETATM    4  C3  UNL     1      35.213  20.430  20.563  1.00  0.00     0.158 A 
HETATM    5  N2  UNL     1      35.833  21.112  19.473  1.00  0.00    -0.225 N 
ATOM      6  H2  UNL     1      35.655  22.082  19.212  1.00  0.00     0.177 HD
HETATM    7  C4  UNL     1      36.735  20.240  18.804  1.00  0.00     0.669 A 
HETATM    8  N3  UNL     1      37.442  20.611  17.798  1.00  0.00    -0.235 N 
ATOM      9  H31 UNL     1      37.469  21.526  17.349  1.00  0.00     0.174 HD
ATOM     10  H32 UNL     1      38.089  19.986  17.319  1.00  0.00     0.174 HD
ENDROOT
TORSDOF 0
ENDMDL
