MODEL 1
REMARK VINA RESULT: -5.867868816      0.000      0.000
REMARK  8 active torsions:
REMARK  status: ('A' for Active; 'I' for Inactive)
REMARK    1  A    between atoms: C3_3  and  O1_4 
REMARK    2  A    between atoms: C4_6  and  O2_7 
REMARK    3  A    between atoms: C5_9  and  O3_10 
REMARK    4  A    between atoms: C6_12  and  C7_13 
REMARK    5  A    between atoms: C7_13  and  C8_14 
REMARK    6  A    between atoms: C8_14  and  C9_15 
REMARK    7  A    between atoms: C9_15  and  C10_16 
REMARK    8  A    between atoms: C10_16  and  N1_17 
ROOT
HETATM    1  C1  UNL     1       3.137  -9.121  11.478  1.00  0.00     0.013 C 
HETATM    2  C2  UNL     1       4.539  -9.672  11.727  1.00  0.00     0.019 C 
HETATM    3  C3  UNL     1       5.526  -9.081  10.740  1.00  0.00     0.153 C 
HETATM    4  C4  UNL     1       6.646  -8.472  11.510  1.00  0.00     0.176 C 
HETATM    5  C5  UNL     1       6.555  -9.099  12.902  1.00  0.00     0.154 C 
HETATM    6  C6  UNL     1       5.053  -9.232  13.045  1.00  0.00     0.023 C 
ENDROOT
BRANCH   6   7
HETATM    7  C7  UNL     1       4.662 -10.135  14.168  1.00  0.00     0.008 C 
BRANCH   7   8
HETATM    8  C8  UNL     1       3.991  -9.431  15.290  1.00  0.00     0.002 C 
BRANCH   8   9
HETATM    9  C9  UNL     1       4.981  -9.064  16.363  1.00  0.00     0.028 C 
BRANCH   9  10
HETATM   10  C10 UNL     1       4.438  -9.420  17.709  1.00  0.00     0.236 C 
BRANCH  10  11
HETATM   11  N1  UNL     1       5.573  -9.720  18.618  1.00  0.00    -0.079 N 
HETATM   12  C11 UNL     1       5.069  -9.893  19.945  1.00  0.00     0.271 C 
HETATM   13  C12 UNL     1       6.479  -8.608  18.481  1.00  0.00     0.271 C 
HETATM   14  C13 UNL     1       6.150 -10.969  18.157  1.00  0.00     0.271 C 
ENDBRANCH  10  11
ENDBRANCH   9  10
ENDBRANCH   8   9
ENDBRANCH   7   8
ENDBRANCH   6   7
BRANCH   5  15
HETATM   15  O3  UNL     1       7.100  -8.220  13.806  1.00  0.00    -0.393 OA
ATOM     16  H3  UNL     1       8.000  -8.479  13.967  1.00  0.00     0.210 HD
ENDBRANCH   5  15
BRANCH   3  17
HETATM   17  O1  UNL     1       4.939  -8.094   9.952  1.00  0.00    -0.393 OA
ATOM     18  H1  UNL     1       5.070  -8.261   9.025  1.00  0.00     0.210 HD
ENDBRANCH   3  17
BRANCH   4  19
HETATM   19  O2  UNL     1       6.640  -7.099  11.556  1.00  0.00    -0.390 OA
ATOM     20  H2  UNL     1       6.668  -6.727  12.430  1.00  0.00     0.210 HD
ENDBRANCH   4  19
TORSDOF 8
ENDMDL
MODEL 2
REMARK VINA RESULT: -5.853251585      0.045      1.011
REMARK  8 active torsions:
REMARK  status: ('A' for Active; 'I' for Inactive)
REMARK    1  A    between atoms: C3_3  and  O1_4 
REMARK    2  A    between atoms: C4_6  and  O2_7 
REMARK    3  A    between atoms: C5_9  and  O3_10 
REMARK    4  A    between atoms: C6_12  and  C7_13 
REMARK    5  A    between atoms: C7_13  and  C8_14 
REMARK    6  A    between atoms: C8_14  and  C9_15 
REMARK    7  A    between atoms: C9_15  and  C10_16 
REMARK    8  A    between atoms: C10_16  and  N1_17 
ROOT
HETATM    1  C1  UNL     1       3.140  -9.116  11.470  1.00  0.00     0.013 C 
HETATM    2  C2  UNL     1       4.543  -9.665  11.716  1.00  0.00     0.019 C 
HETATM    3  C3  UNL     1       5.530  -9.061  10.736  1.00  0.00     0.153 C 
HETATM    4  C4  UNL     1       6.647  -8.457  11.514  1.00  0.00     0.176 C 
HETATM    5  C5  UNL     1       6.555  -9.097  12.899  1.00  0.00     0.154 C 
HETATM    6  C6  UNL     1       5.054  -9.235  13.039  1.00  0.00     0.023 C 
ENDROOT
BRANCH   6   7
HETATM    7  C7  UNL     1       4.664 -10.150  14.153  1.00  0.00     0.008 C 
BRANCH   7   8
HETATM    8  C8  UNL     1       3.975  -9.461  15.273  1.00  0.00     0.002 C 
BRANCH   8   9
HETATM    9  C9  UNL     1       4.951  -9.084  16.355  1.00  0.00     0.028 C 
BRANCH   9  10
HETATM   10  C10 UNL     1       4.410  -9.465  17.695  1.00  0.00     0.236 C 
BRANCH  10  11
HETATM   11  N1  UNL     1       5.545  -9.782  18.596  1.00  0.00    -0.079 N 
HETATM   12  C11 UNL     1       6.197 -10.963  18.121  1.00  0.00     0.271 C 
HETATM   13  C12 UNL     1       4.965  -9.926  19.908  1.00  0.00     0.271 C 
HETATM   14  C13 UNL     1       6.462  -8.660  18.513  1.00  0.00     0.271 C 
ENDBRANCH  10  11
ENDBRANCH   9  10
ENDBRANCH   8   9
ENDBRANCH   7   8
ENDBRANCH   6   7
BRANCH   5  15
HETATM   15  O3  UNL     1       7.097  -8.225  13.813  1.00  0.00    -0.393 OA
ATOM     16  H3  UNL     1       6.425  -8.003  14.446  1.00  0.00     0.210 HD
ENDBRANCH   5  15
BRANCH   3  17
HETATM   17  O1  UNL     1       4.941  -8.069   9.956  1.00  0.00    -0.393 OA
ATOM     18  H1  UNL     1       5.005  -7.215  10.367  1.00  0.00     0.210 HD
ENDBRANCH   3  17
BRANCH   4  19
HETATM   19  O2  UNL     1       6.636  -7.084  11.573  1.00  0.00    -0.390 OA
ATOM     20  H2  UNL     1       7.414  -6.662  11.225  1.00  0.00     0.210 HD
ENDBRANCH   4  19
TORSDOF 8
ENDMDL
MODEL 3
REMARK VINA RESULT: -5.550305439      6.501      8.540
REMARK  8 active torsions:
REMARK  status: ('A' for Active; 'I' for Inactive)
REMARK    1  A    between atoms: C3_3  and  O1_4 
REMARK    2  A    between atoms: C4_6  and  O2_7 
REMARK    3  A    between atoms: C5_9  and  O3_10 
REMARK    4  A    between atoms: C6_12  and  C7_13 
REMARK    5  A    between atoms: C7_13  and  C8_14 
REMARK    6  A    between atoms: C8_14  and  C9_15 
REMARK    7  A    between atoms: C9_15  and  C10_16 
REMARK    8  A    between atoms: C10_16  and  N1_17 
ROOT
HETATM    1  C1  UNL     1       4.835 -11.640  22.636  1.00  0.00     0.013 C 
HETATM    2  C2  UNL     1       5.241 -11.786  21.172  1.00  0.00     0.019 C 
HETATM    3  C3  UNL     1       4.559 -10.732  20.323  1.00  0.00     0.153 C 
HETATM    4  C4  UNL     1       5.608  -9.994  19.566  1.00  0.00     0.176 C 
HETATM    5  C5  UNL     1       6.839 -10.899  19.613  1.00  0.00     0.154 C 
HETATM    6  C6  UNL     1       6.685 -11.501  20.993  1.00  0.00     0.023 C 
ENDROOT
BRANCH   6   7
HETATM    7  C7  UNL     1       7.556 -12.696  21.199  1.00  0.00     0.008 C 
BRANCH   7   8
HETATM    8  C8  UNL     1       7.612 -13.600  20.022  1.00  0.00     0.002 C 
BRANCH   8   9
HETATM    9  C9  UNL     1       7.843 -15.025  20.449  1.00  0.00     0.028 C 
BRANCH   9  10
HETATM   10  C10 UNL     1       8.105 -15.087  21.919  1.00  0.00     0.236 C 
BRANCH  10  11
HETATM   11  N1  UNL     1       7.201 -16.098  22.522  1.00  0.00    -0.079 N 
HETATM   12  C11 UNL     1       6.741 -16.980  21.494  1.00  0.00     0.271 C 
HETATM   13  C12 UNL     1       6.149 -15.345  23.155  1.00  0.00     0.271 C 
HETATM   14  C13 UNL     1       8.000 -16.848  23.475  1.00  0.00     0.271 C 
ENDBRANCH  10  11
ENDBRANCH   9  10
ENDBRANCH   8   9
ENDBRANCH   7   8
ENDBRANCH   6   7
BRANCH   5  15
HETATM   15  O3  UNL     1       7.958 -10.109  19.500  1.00  0.00    -0.393 OA
ATOM     16  H3  UNL     1       8.694 -10.666  19.276  1.00  0.00     0.210 HD
ENDBRANCH   5  15
BRANCH   3  17
HETATM   17  O1  UNL     1       3.848  -9.823  21.102  1.00  0.00    -0.393 OA
ATOM     18  H1  UNL     1       2.938  -9.767  20.834  1.00  0.00     0.210 HD
ENDBRANCH   3  17
BRANCH   4  19
HETATM   19  O2  UNL     1       5.874  -8.728  20.029  1.00  0.00    -0.390 OA
ATOM     20  H2  UNL     1       6.517  -8.243  19.524  1.00  0.00     0.210 HD
ENDBRANCH   4  19
TORSDOF 8
ENDMDL
MODEL 4
REMARK VINA RESULT: -5.462029677      5.294      7.377
REMARK  8 active torsions:
REMARK  status: ('A' for Active; 'I' for Inactive)
REMARK    1  A    between atoms: C3_3  and  O1_4 
REMARK    2  A    between atoms: C4_6  and  O2_7 
REMARK    3  A    between atoms: C5_9  and  O3_10 
REMARK    4  A    between atoms: C6_12  and  C7_13 
REMARK    5  A    between atoms: C7_13  and  C8_14 
REMARK    6  A    between atoms: C8_14  and  C9_15 
REMARK    7  A    between atoms: C9_15  and  C10_16 
REMARK    8  A    between atoms: C10_16  and  N1_17 
ROOT
HETATM    1  C1  UNL     1       6.846 -12.157  20.937  1.00  0.00     0.013 C 
HETATM    2  C2  UNL     1       6.407 -10.744  20.560  1.00  0.00     0.019 C 
HETATM    3  C3  UNL     1       7.138 -10.273  19.318  1.00  0.00     0.153 C 
HETATM    4  C4  UNL     1       6.123  -9.846  18.315  1.00  0.00     0.176 C 
HETATM    5  C5  UNL     1       4.839  -9.632  19.118  1.00  0.00     0.154 C 
HETATM    6  C6  UNL     1       4.981 -10.724  20.158  1.00  0.00     0.023 C 
ENDROOT
BRANCH   6   7
HETATM    7  C7  UNL     1       4.042 -10.548  21.305  1.00  0.00     0.008 C 
BRANCH   7   8
HETATM    8  C8  UNL     1       3.327 -11.793  21.683  1.00  0.00     0.002 C 
BRANCH   8   9
HETATM    9  C9  UNL     1       2.437 -12.263  20.564  1.00  0.00     0.028 C 
BRANCH   9  10
HETATM   10  C10 UNL     1       1.041 -12.457  21.061  1.00  0.00     0.236 C 
BRANCH  10  11
HETATM   11  N1  UNL     1       0.116 -11.670  20.208  1.00  0.00    -0.079 N 
HETATM   12  C11 UNL     1      -0.151 -10.419  20.847  1.00  0.00     0.271 C 
HETATM   13  C12 UNL     1      -1.051 -12.498  20.041  1.00  0.00     0.271 C 
HETATM   14  C13 UNL     1       0.813 -11.431  18.957  1.00  0.00     0.271 C 
ENDBRANCH  10  11
ENDBRANCH   9  10
ENDBRANCH   8   9
ENDBRANCH   7   8
ENDBRANCH   6   7
BRANCH   5  15
HETATM   15  O3  UNL     1       3.769  -9.831  18.280  1.00  0.00    -0.393 OA
ATOM     16  H3  UNL     1       4.054 -10.382  17.560  1.00  0.00     0.210 HD
ENDBRANCH   5  15
BRANCH   3  17
HETATM   17  O1  UNL     1       7.916 -11.285  18.763  1.00  0.00    -0.393 OA
ATOM     18  H1  UNL     1       8.480 -11.691  19.411  1.00  0.00     0.210 HD
ENDBRANCH   3  17
BRANCH   4  19
HETATM   19  O2  UNL     1       5.942 -10.717  17.267  1.00  0.00    -0.390 OA
ATOM     20  H2  UNL     1       5.700 -10.308  16.444  1.00  0.00     0.210 HD
ENDBRANCH   4  19
TORSDOF 8
ENDMDL
MODEL 5
REMARK VINA RESULT: -5.456432356      0.864      1.434
REMARK  8 active torsions:
REMARK  status: ('A' for Active; 'I' for Inactive)
REMARK    1  A    between atoms: C3_3  and  O1_4 
REMARK    2  A    between atoms: C4_6  and  O2_7 
REMARK    3  A    between atoms: C5_9  and  O3_10 
REMARK    4  A    between atoms: C6_12  and  C7_13 
REMARK    5  A    between atoms: C7_13  and  C8_14 
REMARK    6  A    between atoms: C8_14  and  C9_15 
REMARK    7  A    between atoms: C9_15  and  C10_16 
REMARK    8  A    between atoms: C10_16  and  N1_17 
ROOT
HETATM    1  C1  UNL     1       3.235  -9.633  12.393  1.00  0.00     0.013 C 
HETATM    2  C2  UNL     1       4.680 -10.079  12.605  1.00  0.00     0.019 C 
HETATM    3  C3  UNL     1       5.501  -9.837  11.354  1.00  0.00     0.153 C 
HETATM    4  C4  UNL     1       6.687  -9.017  11.728  1.00  0.00     0.176 C 
HETATM    5  C5  UNL     1       6.808  -9.167  13.245  1.00  0.00     0.154 C 
HETATM    6  C6  UNL     1       5.346  -9.243  13.631  1.00  0.00     0.023 C 
ENDROOT
BRANCH   6   7
HETATM    7  C7  UNL     1       5.146  -9.739  15.025  1.00  0.00     0.008 C 
BRANCH   7   8
HETATM    8  C8  UNL     1       5.143  -8.660  16.044  1.00  0.00     0.002 C 
BRANCH   8   9
HETATM    9  C9  UNL     1       4.623  -9.168  17.363  1.00  0.00     0.028 C 
BRANCH   9  10
HETATM   10  C10 UNL     1       5.657  -8.995  18.427  1.00  0.00     0.236 C 
BRANCH  10  11
HETATM   11  N1  UNL     1       5.745 -10.248  19.217  1.00  0.00    -0.079 N 
HETATM   12  C11 UNL     1       6.396 -11.247  18.428  1.00  0.00     0.271 C 
HETATM   13  C12 UNL     1       4.387 -10.577  19.568  1.00  0.00     0.271 C 
HETATM   14  C13 UNL     1       6.563  -9.946  20.378  1.00  0.00     0.271 C 
ENDBRANCH  10  11
ENDBRANCH   9  10
ENDBRANCH   8   9
ENDBRANCH   7   8
ENDBRANCH   6   7
BRANCH   5  15
HETATM   15  O3  UNL     1       7.431  -8.046  13.739  1.00  0.00    -0.393 OA
ATOM     16  H3  UNL     1       7.203  -7.959  14.657  1.00  0.00     0.210 HD
ENDBRANCH   5  15
BRANCH   3  17
HETATM   17  O1  UNL     1       4.773  -9.152  10.384  1.00  0.00    -0.393 OA
ATOM     18  H1  UNL     1       4.130  -9.713   9.966  1.00  0.00     0.210 HD
ENDBRANCH   3  17
BRANCH   4  19
HETATM   19  O2  UNL     1       6.628  -7.701  11.337  1.00  0.00    -0.390 OA
ATOM     20  H2  UNL     1       7.428  -7.360  10.953  1.00  0.00     0.210 HD
ENDBRANCH   4  19
TORSDOF 8
ENDMDL
