MODEL 1
REMARK VINA RESULT: -9.192882598      0.000      0.000
REMARK  21 active torsions:
REMARK  status: ('A' for Active; 'I' for Inactive)
REMARK    1  A    between atoms: N1_1  and  C1_5 
REMARK    2  A    between atoms: C1_5  and  C2_6 
REMARK    3  A    between atoms: C2_6  and  O1_7 
REMARK    4  A    between atoms: O1_7  and  C3_8 
REMARK    5  A    between atoms: C4_11  and  N3_12 
REMARK    6  A    between atoms: C6_14  and  O2_15 
REMARK    7  A    between atoms: C7_17  and  O3_18 
REMARK    8  A    between atoms: O3_18  and  C8_19 
REMARK    9  A    between atoms: C8_19  and  C9_20 
REMARK   10  A    between atoms: C9_20  and  O4_21 
REMARK   11  A    between atoms: C11_26  and  N5_27 
REMARK   12  A    between atoms: N5_27  and  C12_28 
REMARK   13  A    between atoms: C12_28  and  O5_29 
REMARK   14  A    between atoms: C12_28  and  C13_31 
REMARK   15  A    between atoms: C13_31  and  C14_32 
REMARK   16  A    between atoms: C14_32  and  C15_33 
REMARK   17  A    between atoms: C16_34  and  C17_35 
REMARK   18  A    between atoms: C17_35  and  S1_36 
REMARK   19  A    between atoms: S1_36  and  N6_37 
REMARK   20  A    between atoms: C18_42  and  O8_43 
REMARK   21  A    between atoms: C23_53  and  O10_54 
ROOT
HETATM    1  C12 UNL     1      12.794  22.632   2.904  1.00  0.00     0.218 C 
ENDROOT
BRANCH   1   2
HETATM    2  N5  UNL     1      13.938  22.032   2.710  1.00  0.00    -0.345 NA
BRANCH   2   3
HETATM    3  C11 UNL     1      14.965  21.398   2.662  1.00  0.00     0.279 A 
HETATM    4  N4  UNL     1      14.910  20.036   2.425  1.00  0.00    -0.148 N 
HETATM    5  C4  UNL     1      15.970  19.228   2.442  1.00  0.00     0.687 A 
ATOM      6  H4  UNL     1      13.999  19.623   2.224  1.00  0.00     0.188 HD
HETATM    7  N2  UNL     1      17.151  19.770   2.699  1.00  0.00    -0.154 N 
HETATM    8  C3  UNL     1      17.315  21.103   2.946  1.00  0.00     0.241 A 
ATOM      9  H2  UNL     1      17.974  19.166   2.712  1.00  0.00     0.188 HD
HETATM   10  N9  UNL     1      16.222  21.873   2.922  1.00  0.00    -0.281 N 
ATOM     11  H9  UNL     1      16.332  22.870   3.107  1.00  0.00     0.173 HD
BRANCH   5  12
HETATM   12  N3  UNL     1      15.876  17.827   2.169  1.00  0.00    -0.212 N 
HETATM   13  C5  UNL     1      14.554  17.260   1.794  1.00  0.00     0.175 C 
HETATM   14  C6  UNL     1      14.762  15.828   1.561  1.00  0.00     0.167 C 
HETATM   15  C7  UNL     1      15.984  15.599   2.625  1.00  0.00     0.170 C 
HETATM   16  C10 UNL     1      16.844  16.774   2.180  1.00  0.00     0.175 C 
BRANCH  14  17
HETATM   17  O2  UNL     1      13.754  15.000   1.953  1.00  0.00    -0.391 OA
ATOM     18  H2  UNL     1      13.977  14.082   2.048  1.00  0.00     0.210 HD
ENDBRANCH  14  17
BRANCH  15  19
HETATM   19  O3  UNL     1      15.519  15.474   3.756  1.00  0.00    -0.380 OA
BRANCH  19  20
HETATM   20  C8  UNL     1      15.064  15.336   4.914  1.00  0.00     0.194 C 
BRANCH  20  21
HETATM   21  C9  UNL     1      14.500  13.940   5.232  1.00  0.00     0.190 C 
BRANCH  21  22
HETATM   22  O4  UNL     1      13.232  13.736   4.795  1.00  0.00    -0.399 OA
ATOM     23  H4  UNL     1      12.559  13.958   5.428  1.00  0.00     0.209 HD
ENDBRANCH  21  22
ENDBRANCH  20  21
ENDBRANCH  19  20
ENDBRANCH  15  19
ENDBRANCH   5  12
BRANCH   8  24
HETATM   24  O1  UNL     1      18.595  21.619   3.217  1.00  0.00    -0.320 OA
BRANCH  24  25
HETATM   25  C2  UNL     1      19.574  20.692   3.699  1.00  0.00     0.206 C 
BRANCH  25  26
HETATM   26  C1  UNL     1      20.954  21.081   3.294  1.00  0.00     0.256 C 
BRANCH  26  27
HETATM   27  N1  UNL     1      20.936  21.974   2.129  1.00  0.00    -0.077 N 
ATOM     28  H13 UNL     1      20.630  21.485   1.287  1.00  0.00     0.274 HD
ATOM     29  H12 UNL     1      20.183  22.659   2.195  1.00  0.00     0.274 HD
ATOM     30  H11 UNL     1      21.841  22.424   1.993  1.00  0.00     0.274 HD
ENDBRANCH  26  27
ENDBRANCH  25  26
ENDBRANCH  24  25
ENDBRANCH   8  24
ENDBRANCH   2   3
ENDBRANCH   1   2
BRANCH   1  31
HETATM   31  O5  UNL     1      12.694  23.825   2.260  1.00  0.00    -0.335 OA
ATOM     32  H5  UNL     1      12.422  24.538   2.827  1.00  0.00     0.220 HD
ENDBRANCH   1  31
BRANCH   1  33
HETATM   33  C13 UNL     1      11.626  22.270   3.648  1.00  0.00     0.072 C 
BRANCH  33  34
HETATM   34  C14 UNL     1      11.495  21.218   4.416  1.00  0.00     0.020 C 
BRANCH  34  35
HETATM   35  C15 UNL     1      10.592  21.218   5.571  1.00  0.00     0.009 A 
HETATM   36  C16 UNL     1      10.922  22.058   6.681  1.00  0.00     0.005 A 
HETATM   37  C18 UNL     1      10.182  21.944   7.773  1.00  0.00     0.092 A 
HETATM   38  C19 UNL     1       9.120  21.032   7.910  1.00  0.00     0.098 A 
HETATM   39  C20 UNL     1       8.461  20.881   9.108  1.00  0.00     0.290 A 
HETATM   40  C22 UNL     1       8.800  20.209   6.869  1.00  0.00     0.088 A 
HETATM   41  O9  UNL     1       8.756  21.634  10.048  1.00  0.00    -0.265 OA
HETATM   42  N7  UNL     1       7.522  19.953   9.299  1.00  0.00    -0.144 N 
HETATM   43  C21 UNL     1       7.233  19.143   8.265  1.00  0.00     0.254 A 
HETATM   44  O12 UNL     1       6.822  19.756  10.476  1.00  0.00    -0.265 OA
HETATM   45  N8  UNL     1       7.840  19.246   7.058  1.00  0.00    -0.317 N 
HETATM   46  O11 UNL     1       6.239  18.184   8.576  1.00  0.00    -0.318 OA
ATOM     47  H8  UNL     1       7.586  18.615   6.298  1.00  0.00     0.169 HD
HETATM   48  C24 UNL     1       6.380  17.479   9.843  1.00  0.00     0.207 C 
HETATM   49  C25 UNL     1       6.598  18.451  10.991  1.00  0.00     0.229 C 
HETATM   50  C23 UNL     1       9.536  20.318   5.707  1.00  0.00     0.104 A 
BRANCH  36  51
HETATM   51  C17 UNL     1      12.101  22.907   6.452  1.00  0.00     0.205 C 
BRANCH  51  52
HETATM   52  S1  UNL     1      13.583  22.306   7.178  1.00  0.00     0.228 S 
HETATM   53  O6  UNL     1      13.630  21.254   8.202  1.00  0.00    -0.206 OA
HETATM   54  O7  UNL     1      14.553  21.882   6.027  1.00  0.00    -0.206 OA
BRANCH  52  55
HETATM   55  N6  UNL     1      14.480  23.641   8.006  1.00  0.00    -0.328 N 
ATOM     56  H62 UNL     1      14.026  24.396   8.521  1.00  0.00     0.168 HD
ATOM     57  H61 UNL     1      15.488  23.530   7.886  1.00  0.00     0.168 HD
ENDBRANCH  52  55
ENDBRANCH  51  52
ENDBRANCH  36  51
BRANCH  37  58
HETATM   58  O8  UNL     1      10.298  22.728   8.918  1.00  0.00    -0.359 OA
ATOM     59  H8  UNL     1       9.725  22.690   9.675  1.00  0.00     0.217 HD
ENDBRANCH  37  58
BRANCH  50  60
HETATM   60  O10 UNL     1       9.190  19.476   4.656  1.00  0.00    -0.357 OA
ATOM     61  H10 UNL     1       8.294  19.178   4.553  1.00  0.00     0.217 HD
ENDBRANCH  50  60
ENDBRANCH  34  35
ENDBRANCH  33  34
ENDBRANCH   1  33
TORSDOF 21
ENDMDL
MODEL 2
REMARK VINA RESULT: -8.909157782      1.982      2.857
REMARK  21 active torsions:
REMARK  status: ('A' for Active; 'I' for Inactive)
REMARK    1  A    between atoms: N1_1  and  C1_5 
REMARK    2  A    between atoms: C1_5  and  C2_6 
REMARK    3  A    between atoms: C2_6  and  O1_7 
REMARK    4  A    between atoms: O1_7  and  C3_8 
REMARK    5  A    between atoms: C4_11  and  N3_12 
REMARK    6  A    between atoms: C6_14  and  O2_15 
REMARK    7  A    between atoms: C7_17  and  O3_18 
REMARK    8  A    between atoms: O3_18  and  C8_19 
REMARK    9  A    between atoms: C8_19  and  C9_20 
REMARK   10  A    between atoms: C9_20  and  O4_21 
REMARK   11  A    between atoms: C11_26  and  N5_27 
REMARK   12  A    between atoms: N5_27  and  C12_28 
REMARK   13  A    between atoms: C12_28  and  O5_29 
REMARK   14  A    between atoms: C12_28  and  C13_31 
REMARK   15  A    between atoms: C13_31  and  C14_32 
REMARK   16  A    between atoms: C14_32  and  C15_33 
REMARK   17  A    between atoms: C16_34  and  C17_35 
REMARK   18  A    between atoms: C17_35  and  S1_36 
REMARK   19  A    between atoms: S1_36  and  N6_37 
REMARK   20  A    between atoms: C18_42  and  O8_43 
REMARK   21  A    between atoms: C23_53  and  O10_54 
ROOT
HETATM    1  C12 UNL     1      12.782  22.677   2.853  1.00  0.00     0.218 C 
ENDROOT
BRANCH   1   2
HETATM    2  N5  UNL     1      13.940  22.140   2.580  1.00  0.00    -0.345 NA
BRANCH   2   3
HETATM    3  C11 UNL     1      14.988  21.551   2.453  1.00  0.00     0.279 A 
HETATM    4  N4  UNL     1      15.018  20.370   1.733  1.00  0.00    -0.148 N 
HETATM    5  C4  UNL     1      16.095  19.596   1.606  1.00  0.00     0.687 A 
ATOM      6  H4  UNL     1      14.160  20.072   1.268  1.00  0.00     0.188 HD
HETATM    7  N2  UNL     1      17.208  19.990   2.207  1.00  0.00    -0.154 N 
HETATM    8  C3  UNL     1      17.286  21.138   2.942  1.00  0.00     0.241 A 
ATOM      9  H2  UNL     1      18.043  19.410   2.118  1.00  0.00     0.188 HD
HETATM   10  N9  UNL     1      16.178  21.880   3.043  1.00  0.00    -0.281 N 
ATOM     11  H9  UNL     1      16.223  22.740   3.591  1.00  0.00     0.173 HD
BRANCH   5  12
HETATM   12  N3  UNL     1      16.093  18.392   0.834  1.00  0.00    -0.212 N 
HETATM   13  C5  UNL     1      17.212  17.429   1.008  1.00  0.00     0.175 C 
HETATM   14  C6  UNL     1      16.938  16.300   0.115  1.00  0.00     0.167 C 
HETATM   15  C7  UNL     1      16.144  17.123  -1.056  1.00  0.00     0.170 C 
HETATM   16  C10 UNL     1      15.184  17.873  -0.141  1.00  0.00     0.175 C 
BRANCH  14  17
HETATM   17  O2  UNL     1      18.019  15.729  -0.486  1.00  0.00    -0.391 OA
ATOM     18  H2  UNL     1      18.646  16.325  -0.878  1.00  0.00     0.210 HD
ENDBRANCH  14  17
BRANCH  15  19
HETATM   19  O3  UNL     1      16.962  17.669  -1.793  1.00  0.00    -0.380 OA
BRANCH  19  20
HETATM   20  C8  UNL     1      17.795  18.206  -2.557  1.00  0.00     0.194 C 
BRANCH  20  21
HETATM   21  C9  UNL     1      17.954  19.727  -2.386  1.00  0.00     0.190 C 
BRANCH  21  22
HETATM   22  O4  UNL     1      18.279  20.117  -1.128  1.00  0.00    -0.399 OA
ATOM     23  H4  UNL     1      18.920  19.563  -0.698  1.00  0.00     0.209 HD
ENDBRANCH  21  22
ENDBRANCH  20  21
ENDBRANCH  19  20
ENDBRANCH  15  19
ENDBRANCH   5  12
BRANCH   8  24
HETATM   24  O1  UNL     1      18.495  21.501   3.561  1.00  0.00    -0.320 OA
BRANCH  24  25
HETATM   25  C2  UNL     1      19.602  20.610   3.383  1.00  0.00     0.206 C 
BRANCH  25  26
HETATM   26  C1  UNL     1      20.844  21.337   2.996  1.00  0.00     0.256 C 
BRANCH  26  27
HETATM   27  N1  UNL     1      20.571  22.347   1.966  1.00  0.00    -0.077 N 
ATOM     28  H13 UNL     1      21.094  23.206   2.136  1.00  0.00     0.274 HD
ATOM     29  H12 UNL     1      20.982  22.088   1.069  1.00  0.00     0.274 HD
ATOM     30  H11 UNL     1      19.571  22.528   1.881  1.00  0.00     0.274 HD
ENDBRANCH  26  27
ENDBRANCH  25  26
ENDBRANCH  24  25
ENDBRANCH   8  24
ENDBRANCH   2   3
ENDBRANCH   1   2
BRANCH   1  31
HETATM   31  O5  UNL     1      12.647  23.942   2.373  1.00  0.00    -0.335 OA
ATOM     32  H5  UNL     1      13.449  24.448   2.413  1.00  0.00     0.220 HD
ENDBRANCH   1  31
BRANCH   1  33
HETATM   33  C13 UNL     1      11.628  22.189   3.545  1.00  0.00     0.072 C 
BRANCH  33  34
HETATM   34  C14 UNL     1      11.606  21.211   4.416  1.00  0.00     0.020 C 
BRANCH  34  35
HETATM   35  C15 UNL     1      10.684  21.218   5.555  1.00  0.00     0.009 A 
HETATM   36  C16 UNL     1      10.988  22.074   6.661  1.00  0.00     0.005 A 
HETATM   37  C18 UNL     1      10.230  21.966   7.741  1.00  0.00     0.092 A 
HETATM   38  C19 UNL     1       9.174  21.048   7.871  1.00  0.00     0.098 A 
HETATM   39  C20 UNL     1       8.495  20.907   9.059  1.00  0.00     0.290 A 
HETATM   40  C22 UNL     1       8.878  20.210   6.835  1.00  0.00     0.088 A 
HETATM   41  O9  UNL     1       8.769  21.672   9.995  1.00  0.00    -0.265 OA
HETATM   42  N7  UNL     1       7.560  19.973   9.246  1.00  0.00    -0.144 N 
HETATM   43  C21 UNL     1       7.295  19.149   8.217  1.00  0.00     0.254 A 
HETATM   44  O12 UNL     1       6.842  19.785  10.413  1.00  0.00    -0.265 OA
HETATM   45  N8  UNL     1       7.921  19.242   7.019  1.00  0.00    -0.317 N 
HETATM   46  O11 UNL     1       6.303  18.186   8.522  1.00  0.00    -0.318 OA
ATOM     47  H8  UNL     1       7.685  18.601   6.262  1.00  0.00     0.169 HD
HETATM   48  C24 UNL     1       6.427  17.497   9.800  1.00  0.00     0.207 C 
HETATM   49  C25 UNL     1       6.619  18.484  10.939  1.00  0.00     0.229 C 
HETATM   50  C23 UNL     1       9.632  20.311   5.684  1.00  0.00     0.104 A 
BRANCH  36  51
HETATM   51  C17 UNL     1      12.165  22.928   6.442  1.00  0.00     0.205 C 
BRANCH  51  52
HETATM   52  S1  UNL     1      13.654  22.310   7.137  1.00  0.00     0.228 S 
HETATM   53  O6  UNL     1      13.712  21.230   8.130  1.00  0.00    -0.206 OA
HETATM   54  O7  UNL     1      14.614  21.921   5.966  1.00  0.00    -0.206 OA
BRANCH  52  55
HETATM   55  N6  UNL     1      14.557  23.623   7.995  1.00  0.00    -0.328 N 
ATOM     56  H62 UNL     1      15.507  23.517   8.353  1.00  0.00     0.168 HD
ATOM     57  H61 UNL     1      13.989  24.467   8.066  1.00  0.00     0.168 HD
ENDBRANCH  52  55
ENDBRANCH  51  52
ENDBRANCH  36  51
BRANCH  37  58
HETATM   58  O8  UNL     1      10.321  22.765   8.879  1.00  0.00    -0.359 OA
ATOM     59  H8  UNL     1      10.369  22.450   9.774  1.00  0.00     0.217 HD
ENDBRANCH  37  58
BRANCH  50  60
HETATM   60  O10 UNL     1       9.310  19.454   4.637  1.00  0.00    -0.357 OA
ATOM     61  H10 UNL     1       9.548  18.536   4.678  1.00  0.00     0.217 HD
ENDBRANCH  50  60
ENDBRANCH  34  35
ENDBRANCH  33  34
ENDBRANCH   1  33
TORSDOF 21
ENDMDL
MODEL 3
REMARK VINA RESULT: -8.693923463      1.460      1.851
REMARK  21 active torsions:
REMARK  status: ('A' for Active; 'I' for Inactive)
REMARK    1  A    between atoms: N1_1  and  C1_5 
REMARK    2  A    between atoms: C1_5  and  C2_6 
REMARK    3  A    between atoms: C2_6  and  O1_7 
REMARK    4  A    between atoms: O1_7  and  C3_8 
REMARK    5  A    between atoms: C4_11  and  N3_12 
REMARK    6  A    between atoms: C6_14  and  O2_15 
REMARK    7  A    between atoms: C7_17  and  O3_18 
REMARK    8  A    between atoms: O3_18  and  C8_19 
REMARK    9  A    between atoms: C8_19  and  C9_20 
REMARK   10  A    between atoms: C9_20  and  O4_21 
REMARK   11  A    between atoms: C11_26  and  N5_27 
REMARK   12  A    between atoms: N5_27  and  C12_28 
REMARK   13  A    between atoms: C12_28  and  O5_29 
REMARK   14  A    between atoms: C12_28  and  C13_31 
REMARK   15  A    between atoms: C13_31  and  C14_32 
REMARK   16  A    between atoms: C14_32  and  C15_33 
REMARK   17  A    between atoms: C16_34  and  C17_35 
REMARK   18  A    between atoms: C17_35  and  S1_36 
REMARK   19  A    between atoms: S1_36  and  N6_37 
REMARK   20  A    between atoms: C18_42  and  O8_43 
REMARK   21  A    between atoms: C23_53  and  O10_54 
ROOT
HETATM    1  C12 UNL     1      13.054  20.977   3.291  1.00  0.00     0.218 C 
ENDROOT
BRANCH   1   2
HETATM    2  N5  UNL     1      14.089  20.250   2.966  1.00  0.00    -0.345 NA
BRANCH   2   3
HETATM    3  C11 UNL     1      15.018  19.496   2.797  1.00  0.00     0.279 A 
HETATM    4  N4  UNL     1      14.821  18.134   2.947  1.00  0.00    -0.148 N 
HETATM    5  C4  UNL     1      15.792  17.224   2.874  1.00  0.00     0.687 A 
ATOM      6  H4  UNL     1      13.872  17.806   3.127  1.00  0.00     0.188 HD
HETATM    7  N2  UNL     1      17.022  17.655   2.636  1.00  0.00    -0.154 N 
HETATM    8  C3  UNL     1      17.323  18.976   2.472  1.00  0.00     0.241 A 
ATOM      9  H2  UNL     1      17.776  16.971   2.573  1.00  0.00     0.188 HD
HETATM   10  N9  UNL     1      16.317  19.854   2.557  1.00  0.00    -0.281 N 
ATOM     11  H9  UNL     1      16.530  20.844   2.438  1.00  0.00     0.173 HD
BRANCH   5  12
HETATM   12  N3  UNL     1      15.545  15.822   3.013  1.00  0.00    -0.212 N 
HETATM   13  C5  UNL     1      14.647  15.360   4.104  1.00  0.00     0.175 C 
HETATM   14  C6  UNL     1      14.569  13.900   3.994  1.00  0.00     0.167 C 
HETATM   15  C7  UNL     1      16.065  13.637   3.386  1.00  0.00     0.170 C 
HETATM   16  C10 UNL     1      16.007  14.683   2.280  1.00  0.00     0.175 C 
BRANCH  14  17
HETATM   17  O2  UNL     1      14.505  13.209   5.166  1.00  0.00    -0.391 OA
ATOM     18  H2  UNL     1      14.313  12.281   5.097  1.00  0.00     0.210 HD
ENDBRANCH  14  17
BRANCH  15  19
HETATM   19  O3  UNL     1      16.884  13.648   4.303  1.00  0.00    -0.380 OA
BRANCH  19  20
HETATM   20  C8  UNL     1      17.730  13.674   5.224  1.00  0.00     0.194 C 
BRANCH  20  21
HETATM   21  C9  UNL     1      17.386  12.815   6.453  1.00  0.00     0.190 C 
BRANCH  21  22
HETATM   22  O4  UNL     1      16.459  13.363   7.277  1.00  0.00    -0.399 OA
ATOM     23  H4  UNL     1      15.724  13.766   6.829  1.00  0.00     0.209 HD
ENDBRANCH  21  22
ENDBRANCH  20  21
ENDBRANCH  19  20
ENDBRANCH  15  19
ENDBRANCH   5  12
BRANCH   8  24
HETATM   24  O1  UNL     1      18.649  19.374   2.226  1.00  0.00    -0.320 OA
BRANCH  24  25
HETATM   25  C2  UNL     1      19.199  20.361   3.107  1.00  0.00     0.206 C 
BRANCH  25  26
HETATM   26  C1  UNL     1      19.268  21.703   2.463  1.00  0.00     0.256 C 
BRANCH  26  27
HETATM   27  N1  UNL     1      20.616  21.981   1.953  1.00  0.00    -0.077 N 
ATOM     28  H13 UNL     1      20.819  22.981   1.956  1.00  0.00     0.274 HD
ATOM     29  H12 UNL     1      21.335  21.674   2.609  1.00  0.00     0.274 HD
ATOM     30  H11 UNL     1      20.754  21.573   1.029  1.00  0.00     0.274 HD
ENDBRANCH  26  27
ENDBRANCH  25  26
ENDBRANCH  24  25
ENDBRANCH   8  24
ENDBRANCH   2   3
ENDBRANCH   1   2
BRANCH   1  31
HETATM   31  O5  UNL     1      13.211  22.297   3.007  1.00  0.00    -0.335 OA
ATOM     32  H5  UNL     1      13.778  22.750   3.620  1.00  0.00     0.220 HD
ENDBRANCH   1  31
BRANCH   1  33
HETATM   33  C13 UNL     1      11.788  20.652   3.873  1.00  0.00     0.072 C 
BRANCH  33  34
HETATM   34  C14 UNL     1      10.841  21.501   4.187  1.00  0.00     0.020 C 
BRANCH  34  35
HETATM   35  C15 UNL     1      10.094  21.388   5.443  1.00  0.00     0.009 A 
HETATM   36  C16 UNL     1      10.555  22.137   6.570  1.00  0.00     0.005 A 
HETATM   37  C18 UNL     1       9.961  21.917   7.733  1.00  0.00     0.092 A 
HETATM   38  C19 UNL     1       8.934  20.976   7.924  1.00  0.00     0.098 A 
HETATM   39  C20 UNL     1       8.435  20.713   9.179  1.00  0.00     0.290 A 
HETATM   40  C22 UNL     1       8.491  20.238   6.865  1.00  0.00     0.088 A 
HETATM   41  O9  UNL     1       8.841  21.389  10.135  1.00  0.00    -0.265 OA
HETATM   42  N7  UNL     1       7.535  19.753   9.407  1.00  0.00    -0.144 N 
HETATM   43  C21 UNL     1       7.124  19.028   8.352  1.00  0.00     0.254 A 
HETATM   44  O12 UNL     1       6.994  19.445  10.642  1.00  0.00    -0.265 OA
HETATM   45  N8  UNL     1       7.570  19.244   7.091  1.00  0.00    -0.317 N 
HETATM   46  O11 UNL     1       6.186  18.028   8.703  1.00  0.00    -0.318 OA
ATOM     47  H8  UNL     1       7.227  18.675   6.318  1.00  0.00     0.169 HD
HETATM   48  C24 UNL     1       6.493  17.222   9.877  1.00  0.00     0.207 C 
HETATM   49  C25 UNL     1       6.848  18.097  11.067  1.00  0.00     0.229 C 
HETATM   50  C23 UNL     1       9.071  20.458   5.633  1.00  0.00     0.104 A 
BRANCH  36  51
HETATM   51  C17 UNL     1      11.688  23.025   6.267  1.00  0.00     0.205 C 
BRANCH  51  52
HETATM   52  S1  UNL     1      13.175  22.622   7.110  1.00  0.00     0.228 S 
HETATM   53  O6  UNL     1      13.966  23.583   7.888  1.00  0.00    -0.206 OA
HETATM   54  O7  UNL     1      12.893  21.393   8.035  1.00  0.00    -0.206 OA
BRANCH  52  55
HETATM   55  N6  UNL     1      14.420  21.996   5.956  1.00  0.00    -0.328 N 
ATOM     56  H62 UNL     1      14.720  22.497   5.120  1.00  0.00     0.168 HD
ATOM     57  H61 UNL     1      14.770  21.086   6.259  1.00  0.00     0.168 HD
ENDBRANCH  52  55
ENDBRANCH  51  52
ENDBRANCH  36  51
BRANCH  37  58
HETATM   58  O8  UNL     1      10.216  22.605   8.917  1.00  0.00    -0.359 OA
ATOM     59  H8  UNL     1      10.634  22.241   9.689  1.00  0.00     0.217 HD
ENDBRANCH  37  58
BRANCH  50  60
HETATM   60  O10 UNL     1       8.600  19.701   4.566  1.00  0.00    -0.357 OA
ATOM     61  H10 UNL     1       8.695  18.756   4.569  1.00  0.00     0.217 HD
ENDBRANCH  50  60
ENDBRANCH  34  35
ENDBRANCH  33  34
ENDBRANCH   1  33
TORSDOF 21
ENDMDL
MODEL 4
REMARK VINA RESULT: -8.634957509      1.655      1.919
REMARK  21 active torsions:
REMARK  status: ('A' for Active; 'I' for Inactive)
REMARK    1  A    between atoms: N1_1  and  C1_5 
REMARK    2  A    between atoms: C1_5  and  C2_6 
REMARK    3  A    between atoms: C2_6  and  O1_7 
REMARK    4  A    between atoms: O1_7  and  C3_8 
REMARK    5  A    between atoms: C4_11  and  N3_12 
REMARK    6  A    between atoms: C6_14  and  O2_15 
REMARK    7  A    between atoms: C7_17  and  O3_18 
REMARK    8  A    between atoms: O3_18  and  C8_19 
REMARK    9  A    between atoms: C8_19  and  C9_20 
REMARK   10  A    between atoms: C9_20  and  O4_21 
REMARK   11  A    between atoms: C11_26  and  N5_27 
REMARK   12  A    between atoms: N5_27  and  C12_28 
REMARK   13  A    between atoms: C12_28  and  O5_29 
REMARK   14  A    between atoms: C12_28  and  C13_31 
REMARK   15  A    between atoms: C13_31  and  C14_32 
REMARK   16  A    between atoms: C14_32  and  C15_33 
REMARK   17  A    between atoms: C16_34  and  C17_35 
REMARK   18  A    between atoms: C17_35  and  S1_36 
REMARK   19  A    between atoms: S1_36  and  N6_37 
REMARK   20  A    between atoms: C18_42  and  O8_43 
REMARK   21  A    between atoms: C23_53  and  O10_54 
ROOT
HETATM    1  C12 UNL     1      12.841  22.634   2.807  1.00  0.00     0.218 C 
ENDROOT
BRANCH   1   2
HETATM    2  N5  UNL     1      13.954  21.993   2.567  1.00  0.00    -0.345 NA
BRANCH   2   3
HETATM    3  C11 UNL     1      15.055  21.540   2.360  1.00  0.00     0.279 A 
HETATM    4  N4  UNL     1      15.210  20.543   1.413  1.00  0.00    -0.148 N 
HETATM    5  C4  UNL     1      16.358  19.912   1.170  1.00  0.00     0.687 A 
ATOM      6  H4  UNL     1      14.392  20.274   0.865  1.00  0.00     0.188 HD
HETATM    7  N2  UNL     1      17.417  20.268   1.881  1.00  0.00    -0.154 N 
HETATM    8  C3  UNL     1      17.372  21.239   2.839  1.00  0.00     0.241 A 
ATOM      9  H2  UNL     1      18.305  19.797   1.705  1.00  0.00     0.188 HD
HETATM   10  N9  UNL     1      16.197  21.843   3.050  1.00  0.00    -0.281 N 
ATOM     11  H9  UNL     1      16.150  22.568   3.765  1.00  0.00     0.173 HD
BRANCH   5  12
HETATM   12  N3  UNL     1      16.484  18.901   0.165  1.00  0.00    -0.212 N 
HETATM   13  C5  UNL     1      15.366  17.938  -0.023  1.00  0.00     0.175 C 
HETATM   14  C6  UNL     1      15.763  17.043  -1.114  1.00  0.00     0.167 C 
HETATM   15  C7  UNL     1      17.379  17.076  -0.860  1.00  0.00     0.170 C 
HETATM   16  C10 UNL     1      17.525  18.590  -0.765  1.00  0.00     0.175 C 
BRANCH  14  17
HETATM   17  O2  UNL     1      15.383  15.741  -0.994  1.00  0.00    -0.391 OA
ATOM     18  H2  UNL     1      15.884  15.211  -0.385  1.00  0.00     0.210 HD
ENDBRANCH  14  17
BRANCH  15  19
HETATM   19  O3  UNL     1      17.663  16.298   0.048  1.00  0.00    -0.380 OA
BRANCH  19  20
HETATM   20  C8  UNL     1      17.972  15.518   0.976  1.00  0.00     0.194 C 
BRANCH  20  21
HETATM   21  C9  UNL     1      17.689  16.043   2.394  1.00  0.00     0.190 C 
BRANCH  21  22
HETATM   22  O4  UNL     1      18.159  17.293   2.632  1.00  0.00    -0.399 OA
ATOM     23  H4  UNL     1      17.500  17.976   2.581  1.00  0.00     0.209 HD
ENDBRANCH  21  22
ENDBRANCH  20  21
ENDBRANCH  19  20
ENDBRANCH  15  19
ENDBRANCH   5  12
BRANCH   8  24
HETATM   24  O1  UNL     1      18.530  21.570   3.566  1.00  0.00    -0.320 OA
BRANCH  24  25
HETATM   25  C2  UNL     1      19.622  20.647   3.491  1.00  0.00     0.206 C 
BRANCH  25  26
HETATM   26  C1  UNL     1      20.882  21.311   3.053  1.00  0.00     0.256 C 
BRANCH  26  27
HETATM   27  N1  UNL     1      20.630  22.271   1.971  1.00  0.00    -0.077 N 
ATOM     28  H13 UNL     1      19.632  22.414   1.822  1.00  0.00     0.274 HD
ATOM     29  H12 UNL     1      20.886  23.219   2.245  1.00  0.00     0.274 HD
ATOM     30  H11 UNL     1      21.102  21.990   1.111  1.00  0.00     0.274 HD
ENDBRANCH  26  27
ENDBRANCH  25  26
ENDBRANCH  24  25
ENDBRANCH   8  24
ENDBRANCH   2   3
ENDBRANCH   1   2
BRANCH   1  31
HETATM   31  O5  UNL     1      12.747  23.819   2.147  1.00  0.00    -0.335 OA
ATOM     32  H5  UNL     1      11.867  24.015   1.848  1.00  0.00     0.220 HD
ENDBRANCH   1  31
BRANCH   1  33
HETATM   33  C13 UNL     1      11.702  22.324   3.616  1.00  0.00     0.072 C 
BRANCH  33  34
HETATM   34  C14 UNL     1      11.552  21.260   4.364  1.00  0.00     0.020 C 
BRANCH  34  35
HETATM   35  C15 UNL     1      10.656  21.258   5.524  1.00  0.00     0.009 A 
HETATM   36  C16 UNL     1      10.998  22.086   6.639  1.00  0.00     0.005 A 
HETATM   37  C18 UNL     1      10.263  21.968   7.734  1.00  0.00     0.092 A 
HETATM   38  C19 UNL     1       9.196  21.062   7.870  1.00  0.00     0.098 A 
HETATM   39  C20 UNL     1       8.543  20.907   9.070  1.00  0.00     0.290 A 
HETATM   40  C22 UNL     1       8.864  20.250   6.824  1.00  0.00     0.088 A 
HETATM   41  O9  UNL     1       8.848  21.650  10.015  1.00  0.00    -0.265 OA
HETATM   42  N7  UNL     1       7.598  19.983   9.260  1.00  0.00    -0.144 N 
HETATM   43  C21 UNL     1       7.298  19.183   8.221  1.00  0.00     0.254 A 
HETATM   44  O12 UNL     1       6.904  19.782  10.439  1.00  0.00    -0.265 OA
HETATM   45  N8  UNL     1       7.898  19.292   7.011  1.00  0.00    -0.317 N 
HETATM   46  O11 UNL     1       6.300  18.229   8.530  1.00  0.00    -0.318 OA
ATOM     47  H8  UNL     1       7.636  18.669   6.247  1.00  0.00     0.169 HD
HETATM   48  C24 UNL     1       6.442  17.513   9.790  1.00  0.00     0.207 C 
HETATM   49  C25 UNL     1       6.673  18.474  10.945  1.00  0.00     0.229 C 
HETATM   50  C23 UNL     1       9.594  20.363   5.659  1.00  0.00     0.104 A 
BRANCH  36  51
HETATM   51  C17 UNL     1      12.182  22.929   6.410  1.00  0.00     0.205 C 
BRANCH  51  52
HETATM   52  S1  UNL     1      13.662  22.314   7.125  1.00  0.00     0.228 S 
HETATM   53  O6  UNL     1      13.713  21.212   8.095  1.00  0.00    -0.206 OA
HETATM   54  O7  UNL     1      14.654  21.964   5.968  1.00  0.00    -0.206 OA
BRANCH  52  55
HETATM   55  N6  UNL     1      14.528  23.618   8.033  1.00  0.00    -0.328 N 
ATOM     56  H62 UNL     1      14.078  24.470   8.368  1.00  0.00     0.168 HD
ATOM     57  H61 UNL     1      15.512  23.380   8.159  1.00  0.00     0.168 HD
ENDBRANCH  52  55
ENDBRANCH  51  52
ENDBRANCH  36  51
BRANCH  37  58
HETATM   58  O8  UNL     1      10.391  22.743   8.885  1.00  0.00    -0.359 OA
ATOM     59  H8  UNL     1      11.041  23.422   9.025  1.00  0.00     0.217 HD
ENDBRANCH  37  58
BRANCH  50  60
HETATM   60  O10 UNL     1       9.237  19.532   4.603  1.00  0.00    -0.357 OA
ATOM     61  H10 UNL     1       8.452  19.000   4.655  1.00  0.00     0.217 HD
ENDBRANCH  50  60
ENDBRANCH  34  35
ENDBRANCH  33  34
ENDBRANCH   1  33
TORSDOF 21
ENDMDL
MODEL 5
REMARK VINA RESULT: -8.611292771      2.352      3.019
REMARK  21 active torsions:
REMARK  status: ('A' for Active; 'I' for Inactive)
REMARK    1  A    between atoms: N1_1  and  C1_5 
REMARK    2  A    between atoms: C1_5  and  C2_6 
REMARK    3  A    between atoms: C2_6  and  O1_7 
REMARK    4  A    between atoms: O1_7  and  C3_8 
REMARK    5  A    between atoms: C4_11  and  N3_12 
REMARK    6  A    between atoms: C6_14  and  O2_15 
REMARK    7  A    between atoms: C7_17  and  O3_18 
REMARK    8  A    between atoms: O3_18  and  C8_19 
REMARK    9  A    between atoms: C8_19  and  C9_20 
REMARK   10  A    between atoms: C9_20  and  O4_21 
REMARK   11  A    between atoms: C11_26  and  N5_27 
REMARK   12  A    between atoms: N5_27  and  C12_28 
REMARK   13  A    between atoms: C12_28  and  O5_29 
REMARK   14  A    between atoms: C12_28  and  C13_31 
REMARK   15  A    between atoms: C13_31  and  C14_32 
REMARK   16  A    between atoms: C14_32  and  C15_33 
REMARK   17  A    between atoms: C16_34  and  C17_35 
REMARK   18  A    between atoms: C17_35  and  S1_36 
REMARK   19  A    between atoms: S1_36  and  N6_37 
REMARK   20  A    between atoms: C18_42  and  O8_43 
REMARK   21  A    between atoms: C23_53  and  O10_54 
ROOT
HETATM    1  C12 UNL     1      13.126  20.522   2.734  1.00  0.00     0.218 C 
ENDROOT
BRANCH   1   2
HETATM    2  N5  UNL     1      14.429  20.510   2.646  1.00  0.00    -0.345 NA
BRANCH   2   3
HETATM    3  C11 UNL     1      15.615  20.563   2.422  1.00  0.00     0.279 A 
HETATM    4  N4  UNL     1      16.101  20.061   1.227  1.00  0.00    -0.148 N 
HETATM    5  C4  UNL     1      17.395  19.986   0.917  1.00  0.00     0.687 A 
ATOM      6  H4  UNL     1      15.426  19.726   0.540  1.00  0.00     0.188 HD
HETATM    7  N2  UNL     1      18.268  20.427   1.811  1.00  0.00    -0.154 N 
HETATM    8  C3  UNL     1      17.893  20.941   3.019  1.00  0.00     0.241 A 
ATOM      9  H2  UNL     1      19.262  20.380   1.588  1.00  0.00     0.188 HD
HETATM   10  N9  UNL     1      16.584  20.992   3.288  1.00  0.00    -0.281 N 
ATOM     11  H9  UNL     1      16.291  21.372   4.188  1.00  0.00     0.173 HD
BRANCH   5  12
HETATM   12  N3  UNL     1      17.859  19.481  -0.339  1.00  0.00    -0.212 N 
HETATM   13  C5  UNL     1      17.491  20.209  -1.581  1.00  0.00     0.175 C 
HETATM   14  C6  UNL     1      18.110  19.482  -2.693  1.00  0.00     0.167 C 
HETATM   15  C7  UNL     1      18.060  17.982  -2.041  1.00  0.00     0.170 C 
HETATM   16  C10 UNL     1      18.656  18.345  -0.686  1.00  0.00     0.175 C 
BRANCH  14  17
HETATM   17  O2  UNL     1      17.391  19.420  -3.848  1.00  0.00    -0.391 OA
ATOM     18  H2  UNL     1      17.461  18.614  -4.345  1.00  0.00     0.210 HD
ENDBRANCH  14  17
BRANCH  15  19
HETATM   19  O3  UNL     1      16.935  17.510  -2.194  1.00  0.00    -0.380 OA
BRANCH  19  20
HETATM   20  C8  UNL     1      15.781  17.051  -2.346  1.00  0.00     0.194 C 
BRANCH  20  21
HETATM   21  C9  UNL     1      14.976  16.862  -1.048  1.00  0.00     0.190 C 
BRANCH  21  22
HETATM   22  O4  UNL     1      14.698  18.015  -0.389  1.00  0.00    -0.399 OA
ATOM     23  H4  UNL     1      15.141  18.105   0.447  1.00  0.00     0.209 HD
ENDBRANCH  21  22
ENDBRANCH  20  21
ENDBRANCH  19  20
ENDBRANCH  15  19
ENDBRANCH   5  12
BRANCH   8  24
HETATM   24  O1  UNL     1      18.866  21.388   3.930  1.00  0.00    -0.320 OA
BRANCH  24  25
HETATM   25  C2  UNL     1      20.044  20.582   4.061  1.00  0.00     0.206 C 
BRANCH  25  26
HETATM   26  C1  UNL     1      21.287  21.379   3.860  1.00  0.00     0.256 C 
BRANCH  26  27
HETATM   27  N1  UNL     1      21.292  22.037   2.548  1.00  0.00    -0.077 N 
ATOM     28  H13 UNL     1      20.345  22.207   2.211  1.00  0.00     0.274 HD
ATOM     29  H12 UNL     1      21.611  23.003   2.616  1.00  0.00     0.274 HD
ATOM     30  H11 UNL     1      21.842  21.508   1.871  1.00  0.00     0.274 HD
ENDBRANCH  26  27
ENDBRANCH  25  26
ENDBRANCH  24  25
ENDBRANCH   8  24
ENDBRANCH   2   3
ENDBRANCH   1   2
BRANCH   1  31
HETATM   31  O5  UNL     1      12.503  20.496   1.526  1.00  0.00    -0.335 OA
ATOM     32  H5  UNL     1      11.809  19.849   1.473  1.00  0.00     0.220 HD
ENDBRANCH   1  31
BRANCH   1  33
HETATM   33  C13 UNL     1      12.232  20.543   3.851  1.00  0.00     0.072 C 
BRANCH  33  34
HETATM   34  C14 UNL     1      11.463  21.542   4.206  1.00  0.00     0.020 C 
BRANCH  34  35
HETATM   35  C15 UNL     1      10.622  21.475   5.405  1.00  0.00     0.009 A 
HETATM   36  C16 UNL     1      11.036  22.213   6.558  1.00  0.00     0.005 A 
HETATM   37  C18 UNL     1      10.351  22.032   7.677  1.00  0.00     0.092 A 
HETATM   38  C19 UNL     1       9.269  21.142   7.799  1.00  0.00     0.098 A 
HETATM   39  C20 UNL     1       8.669  20.914   9.016  1.00  0.00     0.290 A 
HETATM   40  C22 UNL     1       8.868  20.415   6.715  1.00  0.00     0.088 A 
HETATM   41  O9  UNL     1       9.037  21.579   9.995  1.00  0.00    -0.265 OA
HETATM   42  N7  UNL     1       7.711  19.999   9.184  1.00  0.00    -0.144 N 
HETATM   43  C21 UNL     1       7.342  19.284   8.107  1.00  0.00     0.254 A 
HETATM   44  O12 UNL     1       7.068  19.728  10.378  1.00  0.00    -0.265 OA
HETATM   45  N8  UNL     1       7.888  19.467   6.880  1.00  0.00    -0.317 N 
HETATM   46  O11 UNL     1       6.336  18.332   8.395  1.00  0.00    -0.318 OA
ATOM     47  H8  UNL     1       7.575  18.907   6.087  1.00  0.00     0.169 HD
HETATM   48  C24 UNL     1       6.519  17.523   9.593  1.00  0.00     0.207 C 
HETATM   49  C25 UNL     1       6.829  18.392  10.800  1.00  0.00     0.229 C 
HETATM   50  C23 UNL     1       9.545  20.596   5.527  1.00  0.00     0.104 A 
BRANCH  36  51
HETATM   51  C17 UNL     1      12.229  23.043   6.333  1.00  0.00     0.205 C 
BRANCH  51  52
HETATM   52  S1  UNL     1      13.709  22.395   7.021  1.00  0.00     0.228 S 
HETATM   53  O6  UNL     1      13.753  21.283   7.979  1.00  0.00    -0.206 OA
HETATM   54  O7  UNL     1      14.677  22.039   5.846  1.00  0.00    -0.206 OA
BRANCH  52  55
HETATM   55  N6  UNL     1      14.611  23.675   7.928  1.00  0.00    -0.328 N 
ATOM     56  H62 UNL     1      14.368  24.666   7.904  1.00  0.00     0.168 HD
ATOM     57  H61 UNL     1      15.383  23.268   8.457  1.00  0.00     0.168 HD
ENDBRANCH  52  55
ENDBRANCH  51  52
ENDBRANCH  36  51
BRANCH  37  58
HETATM   58  O8  UNL     1      10.552  22.718   8.872  1.00  0.00    -0.359 OA
ATOM     59  H8  UNL     1      11.309  23.253   9.082  1.00  0.00     0.217 HD
ENDBRANCH  37  58
BRANCH  50  60
HETATM   60  O10 UNL     1       9.118  19.852   4.433  1.00  0.00    -0.357 OA
ATOM     61  H10 UNL     1       9.593  19.888   3.612  1.00  0.00     0.217 HD
ENDBRANCH  50  60
ENDBRANCH  34  35
ENDBRANCH  33  34
ENDBRANCH   1  33
TORSDOF 21
ENDMDL
