MODEL 1
REMARK VINA RESULT: -8.819509438      0.000      0.000
REMARK  17 active torsions:
REMARK  status: ('A' for Active; 'I' for Inactive)
REMARK    1  A    between atoms: C3_4  and  C4_5 
REMARK    2  A    between atoms: C4_5  and  C8_12 
REMARK    3  A    between atoms: C5_6  and  C6_7 
REMARK    4  A    between atoms: C6_7  and  O1_8 
REMARK    5  A    between atoms: O1_8  and  C7_9 
REMARK    6  A    between atoms: C8_12  and  C9_14 
REMARK    7  A    between atoms: N2_15  and  O5_17 
REMARK    8  A    between atoms: C10_20  and  O7_21 
REMARK    9  A    between atoms: C10_20  and  C23_54 
REMARK   10  A    between atoms: O7_21  and  C11_22 
REMARK   11  A    between atoms: C11_22  and  C12_24 
REMARK   12  A    between atoms: C14_30  and  C15_31 
REMARK   13  A    between atoms: C15_31  and  O10_32 
REMARK   14  A    between atoms: C15_31  and  N4_34 
REMARK   15  A    between atoms: C17_38  and  N6_39 
REMARK       I    between atoms: N6_39  and  C18_41 
REMARK   16  A    between atoms: C18_41  and  C19_43 
REMARK   17  A    between atoms: C19_43  and  N7_46 
ROOT
HETATM    1  C12 UNL     1      15.195  20.571   2.242  1.00  0.00     0.129 A 
HETATM    2  N3  UNL     1      16.455  20.484   2.630  1.00  0.00    -0.311 N 
ATOM      3  H3  UNL     1      16.971  19.611   2.518  1.00  0.00     0.170 HD
HETATM    4  C13 UNL     1      17.036  21.540   3.163  1.00  0.00     0.289 A 
HETATM    5  O9  UNL     1      18.247  21.594   3.582  1.00  0.00    -0.260 OA
HETATM    6  S1  UNL     1      15.818  22.721   3.142  1.00  0.00    -0.027 SA
HETATM    7  C14 UNL     1      14.574  21.777   2.426  1.00  0.00     0.070 A 
ENDROOT
BRANCH   1   8
HETATM    8  C11 UNL     1      14.435  19.441   1.612  1.00  0.00     0.315 C 
HETATM    9  O8  UNL     1      13.416  18.945   2.126  1.00  0.00    -0.257 OA
BRANCH   8  10
HETATM   10  O7  UNL     1      14.834  18.878   0.407  1.00  0.00    -0.242 OA
BRANCH  10  11
HETATM   11  C10 UNL     1      15.952  18.011   0.344  1.00  0.00     0.471 C 
HETATM   12  N1  UNL     1      15.612  16.988  -0.625  1.00  0.00     0.162 N 
HETATM   13  C1  UNL     1      16.522  16.853  -1.706  1.00  0.00     0.318 C 
HETATM   14  C2  UNL     1      15.333  15.771   0.107  1.00  0.00     0.317 C 
HETATM   15  C3  UNL     1      15.316  16.250   1.508  1.00  0.00     0.193 C 
HETATM   16  O6  UNL     1      16.175  17.347   1.565  1.00  0.00    -0.310 OA
BRANCH  15  17
HETATM   17  C4  UNL     1      15.684  15.145   2.449  1.00  0.00     0.022 C 
HETATM   18  C5  UNL     1      16.788  15.375   3.139  1.00  0.00     0.013 C 
BRANCH  18  19
HETATM   19  C6  UNL     1      17.462  14.559   4.133  1.00  0.00     0.210 C 
BRANCH  19  20
HETATM   20  O1  UNL     1      16.756  14.480   5.378  1.00  0.00    -0.292 OA
BRANCH  20  21
HETATM   21  C7  UNL     1      16.864  13.467   6.279  1.00  0.00     0.333 C 
HETATM   22  O2  UNL     1      15.863  13.087   6.929  1.00  0.00    -0.624 OA
HETATM   23  O3  UNL     1      18.059  12.793   6.544  1.00  0.00    -0.624 OA
ENDBRANCH  20  21
ENDBRANCH  19  20
ENDBRANCH  18  19
BRANCH  17  24
HETATM   24  C8  UNL     1      14.868  13.966   2.597  1.00  0.00     0.197 C 
HETATM   25  O4  UNL     1      15.101  12.927   1.950  1.00  0.00    -0.286 OA
BRANCH  24  26
HETATM   26  C9  UNL     1      13.732  13.909   3.498  1.00  0.00     0.169 C 
HETATM   27  N2  UNL     1      13.886  13.584   4.754  1.00  0.00    -0.277 N 
ATOM     28  H2  UNL     1      14.825  13.370   5.090  1.00  0.00     0.193 HD
BRANCH  27  29
HETATM   29  O5  UNL     1      12.845  13.518   5.640  1.00  0.00    -0.290 OA
ATOM     30  H5  UNL     1      12.946  13.219   6.536  1.00  0.00     0.244 HD
ENDBRANCH  27  29
ENDBRANCH  24  26
ENDBRANCH  17  24
ENDBRANCH  15  17
BRANCH  11  31
HETATM   31  C23 UNL     1      17.195  18.732   0.005  1.00  0.00     0.274 C 
HETATM   32  O13 UNL     1      17.206  19.842  -0.580  1.00  0.00    -0.642 OA
HETATM   33  O14 UNL     1      18.440  18.171   0.343  1.00  0.00    -0.642 OA
ENDBRANCH  11  31
ENDBRANCH  10  11
ENDBRANCH   8  10
ENDBRANCH   1   8
BRANCH   7  34
HETATM   34  C15 UNL     1      13.156  22.197   2.111  1.00  0.00     0.289 C 
BRANCH  34  35
HETATM   35  O10 UNL     1      13.251  23.571   1.764  1.00  0.00    -0.370 OA
ATOM     36  H10 UNL     1      13.392  24.022   2.588  1.00  0.00     0.212 HD
ENDBRANCH  34  35
BRANCH  34  37
HETATM   37  N4  UNL     1      12.335  22.159   3.299  1.00  0.00    -0.208 N 
HETATM   38  N5  UNL     1      12.677  22.820   4.385  1.00  0.00    -0.299 N 
HETATM   39  C16 UNL     1      11.893  22.788   5.503  1.00  0.00     0.156 A 
ATOM     40  H5  UNL     1      13.540  23.364   4.392  1.00  0.00     0.186 HD
HETATM   41  C17 UNL     1      10.720  22.065   5.533  1.00  0.00     0.129 A 
HETATM   42  N8  UNL     1      10.397  21.398   4.401  1.00  0.00    -0.292 N 
HETATM   43  C22 UNL     1      11.196  21.454   3.321  1.00  0.00     0.345 A 
ATOM     44  H8  UNL     1       9.539  20.847   4.366  1.00  0.00     0.172 HD
HETATM   45  O12 UNL     1      10.892  20.826   2.256  1.00  0.00    -0.245 OA
BRANCH  41  46
HETATM   46  N6  UNL     1       9.935  21.993   6.551  1.00  0.00    -0.310 N 
HETATM   47  C18 UNL     1       8.594  21.592   6.524  1.00  0.00     0.258 C 
HETATM   48  O11 UNL     1       7.741  22.326   5.961  1.00  0.00    -0.270 OA
ATOM     49  H6  UNL     1      10.325  22.251   7.458  1.00  0.00     0.170 HD
BRANCH  47  50
HETATM   50  C19 UNL     1       8.145  20.324   7.143  1.00  0.00     0.196 C 
HETATM   51  C20 UNL     1       8.243  20.391   8.663  1.00  0.00     0.056 C 
HETATM   52  C21 UNL     1       8.995  19.145   6.703  1.00  0.00     0.056 C 
BRANCH  50  53
HETATM   53  N7  UNL     1       6.755  20.118   6.787  1.00  0.00    -0.062 N 
ATOM     54  H73 UNL     1       6.294  20.977   6.487  1.00  0.00     0.275 HD
ATOM     55  H72 UNL     1       6.644  19.593   5.920  1.00  0.00     0.275 HD
ATOM     56  H71 UNL     1       6.289  19.676   7.578  1.00  0.00     0.275 HD
ENDBRANCH  50  53
ENDBRANCH  47  50
ENDBRANCH  41  46
ENDBRANCH  34  37
ENDBRANCH   7  34
TORSDOF 17
ENDMDL
MODEL 2
REMARK VINA RESULT: -8.739091669      2.852      5.197
REMARK  17 active torsions:
REMARK  status: ('A' for Active; 'I' for Inactive)
REMARK    1  A    between atoms: C3_4  and  C4_5 
REMARK    2  A    between atoms: C4_5  and  C8_12 
REMARK    3  A    between atoms: C5_6  and  C6_7 
REMARK    4  A    between atoms: C6_7  and  O1_8 
REMARK    5  A    between atoms: O1_8  and  C7_9 
REMARK    6  A    between atoms: C8_12  and  C9_14 
REMARK    7  A    between atoms: N2_15  and  O5_17 
REMARK    8  A    between atoms: C10_20  and  O7_21 
REMARK    9  A    between atoms: C10_20  and  C23_54 
REMARK   10  A    between atoms: O7_21  and  C11_22 
REMARK   11  A    between atoms: C11_22  and  C12_24 
REMARK   12  A    between atoms: C14_30  and  C15_31 
REMARK   13  A    between atoms: C15_31  and  O10_32 
REMARK   14  A    between atoms: C15_31  and  N4_34 
REMARK   15  A    between atoms: C17_38  and  N6_39 
REMARK       I    between atoms: N6_39  and  C18_41 
REMARK   16  A    between atoms: C18_41  and  C19_43 
REMARK   17  A    between atoms: C19_43  and  N7_46 
ROOT
HETATM    1  C12 UNL     1      11.866  21.412   5.022  1.00  0.00     0.129 A 
HETATM    2  N3  UNL     1      12.827  22.049   5.667  1.00  0.00    -0.311 N 
ATOM      3  H3  UNL     1      13.725  22.223   5.216  1.00  0.00     0.170 HD
HETATM    4  C13 UNL     1      12.610  22.455   6.902  1.00  0.00     0.289 A 
HETATM    5  O9  UNL     1      13.451  23.081   7.642  1.00  0.00    -0.260 OA
HETATM    6  S1  UNL     1      11.019  21.954   7.215  1.00  0.00    -0.027 SA
HETATM    7  C14 UNL     1      10.691  21.219   5.697  1.00  0.00     0.070 A 
ENDROOT
BRANCH   1   8
HETATM    8  C11 UNL     1      11.995  20.915   3.612  1.00  0.00     0.315 C 
HETATM    9  O8  UNL     1      11.359  19.935   3.183  1.00  0.00    -0.257 OA
BRANCH   8  10
HETATM   10  O7  UNL     1      12.842  21.528   2.698  1.00  0.00    -0.242 OA
BRANCH  10  11
HETATM   11  C10 UNL     1      14.213  21.179   2.631  1.00  0.00     0.471 C 
HETATM   12  N1  UNL     1      14.531  21.076   1.220  1.00  0.00     0.162 N 
HETATM   13  C1  UNL     1      15.597  21.903   0.779  1.00  0.00     0.318 C 
HETATM   14  C2  UNL     1      14.667  19.669   0.907  1.00  0.00     0.317 C 
HETATM   15  C3  UNL     1      14.183  19.027   2.151  1.00  0.00     0.193 C 
HETATM   16  O6  UNL     1      14.463  19.912   3.191  1.00  0.00    -0.310 OA
BRANCH  15  17
HETATM   17  C4  UNL     1      14.803  17.675   2.323  1.00  0.00     0.022 C 
HETATM   18  C5  UNL     1      14.206  16.721   1.628  1.00  0.00     0.013 C 
BRANCH  18  19
HETATM   19  C6  UNL     1      14.503  15.304   1.533  1.00  0.00     0.210 C 
BRANCH  19  20
HETATM   20  O1  UNL     1      13.763  14.503   2.465  1.00  0.00    -0.292 OA
BRANCH  20  21
HETATM   21  C7  UNL     1      14.266  13.959   3.606  1.00  0.00     0.333 C 
HETATM   22  O2  UNL     1      15.430  13.496   3.627  1.00  0.00    -0.624 OA
HETATM   23  O3  UNL     1      13.551  13.876   4.802  1.00  0.00    -0.624 OA
ENDBRANCH  20  21
ENDBRANCH  19  20
ENDBRANCH  18  19
BRANCH  17  24
HETATM   24  C8  UNL     1      15.967  17.469   3.147  1.00  0.00     0.197 C 
HETATM   25  O4  UNL     1      15.910  16.808   4.202  1.00  0.00    -0.286 OA
BRANCH  24  26
HETATM   26  C9  UNL     1      17.270  18.011   2.810  1.00  0.00     0.169 C 
HETATM   27  N2  UNL     1      17.562  19.261   3.054  1.00  0.00    -0.277 N 
ATOM     28  H2  UNL     1      16.852  19.851   3.488  1.00  0.00     0.193 HD
BRANCH  27  29
HETATM   29  O5  UNL     1      18.777  19.815   2.754  1.00  0.00    -0.290 OA
ATOM     30  H5  UNL     1      19.028  20.690   3.027  1.00  0.00     0.244 HD
ENDBRANCH  27  29
ENDBRANCH  24  26
ENDBRANCH  17  24
ENDBRANCH  15  17
BRANCH  11  31
HETATM   31  C23 UNL     1      15.068  22.149   3.343  1.00  0.00     0.274 C 
HETATM   32  O13 UNL     1      14.675  23.292   3.679  1.00  0.00    -0.642 OA
HETATM   33  O14 UNL     1      16.391  21.802   3.672  1.00  0.00    -0.642 OA
ENDBRANCH  11  31
ENDBRANCH  10  11
ENDBRANCH   8  10
ENDBRANCH   1   8
BRANCH   7  34
HETATM   34  C15 UNL     1       9.422  20.525   5.258  1.00  0.00     0.289 C 
BRANCH  34  35
HETATM   35  O10 UNL     1       8.569  21.570   4.812  1.00  0.00    -0.370 OA
ATOM     36  H10 UNL     1       7.809  21.524   5.380  1.00  0.00     0.212 HD
ENDBRANCH  34  35
BRANCH  34  37
HETATM   37  N4  UNL     1       8.743  19.935   6.389  1.00  0.00    -0.208 N 
HETATM   38  N5  UNL     1       9.169  18.812   6.928  1.00  0.00    -0.299 N 
HETATM   39  C16 UNL     1       8.530  18.262   8.003  1.00  0.00     0.156 A 
ATOM     40  H5  UNL     1       9.988  18.346   6.538  1.00  0.00     0.186 HD
HETATM   41  C17 UNL     1       7.421  18.862   8.558  1.00  0.00     0.129 A 
HETATM   42  N8  UNL     1       7.010  20.015   7.982  1.00  0.00    -0.292 N 
HETATM   43  C22 UNL     1       7.666  20.524   6.924  1.00  0.00     0.345 A 
ATOM     44  H8  UNL     1       6.194  20.503   8.353  1.00  0.00     0.172 HD
HETATM   45  O12 UNL     1       7.278  21.609   6.381  1.00  0.00    -0.245 OA
BRANCH  41  46
HETATM   46  N6  UNL     1       6.773  18.399   9.571  1.00  0.00    -0.310 N 
HETATM   47  C18 UNL     1       6.056  17.198   9.605  1.00  0.00     0.258 C 
HETATM   48  O11 UNL     1       5.004  17.086   8.924  1.00  0.00    -0.270 OA
ATOM     49  H6  UNL     1       6.783  18.959  10.424  1.00  0.00     0.170 HD
BRANCH  47  50
HETATM   50  C19 UNL     1       6.500  16.047  10.424  1.00  0.00     0.196 C 
HETATM   51  C20 UNL     1       5.400  15.596  11.377  1.00  0.00     0.056 C 
HETATM   52  C21 UNL     1       7.707  16.390  11.280  1.00  0.00     0.056 C 
BRANCH  50  53
HETATM   53  N7  UNL     1       6.801  14.948   9.527  1.00  0.00    -0.062 N 
ATOM     54  H73 UNL     1       6.108  14.201   9.572  1.00  0.00     0.275 HD
ATOM     55  H72 UNL     1       6.675  15.194   8.545  1.00  0.00     0.275 HD
ATOM     56  H71 UNL     1       7.745  14.622   9.733  1.00  0.00     0.275 HD
ENDBRANCH  50  53
ENDBRANCH  47  50
ENDBRANCH  41  46
ENDBRANCH  34  37
ENDBRANCH   7  34
TORSDOF 17
ENDMDL
MODEL 3
REMARK VINA RESULT: -8.737739272      2.775      5.051
REMARK  17 active torsions:
REMARK  status: ('A' for Active; 'I' for Inactive)
REMARK    1  A    between atoms: C3_4  and  C4_5 
REMARK    2  A    between atoms: C4_5  and  C8_12 
REMARK    3  A    between atoms: C5_6  and  C6_7 
REMARK    4  A    between atoms: C6_7  and  O1_8 
REMARK    5  A    between atoms: O1_8  and  C7_9 
REMARK    6  A    between atoms: C8_12  and  C9_14 
REMARK    7  A    between atoms: N2_15  and  O5_17 
REMARK    8  A    between atoms: C10_20  and  O7_21 
REMARK    9  A    between atoms: C10_20  and  C23_54 
REMARK   10  A    between atoms: O7_21  and  C11_22 
REMARK   11  A    between atoms: C11_22  and  C12_24 
REMARK   12  A    between atoms: C14_30  and  C15_31 
REMARK   13  A    between atoms: C15_31  and  O10_32 
REMARK   14  A    between atoms: C15_31  and  N4_34 
REMARK   15  A    between atoms: C17_38  and  N6_39 
REMARK       I    between atoms: N6_39  and  C18_41 
REMARK   16  A    between atoms: C18_41  and  C19_43 
REMARK   17  A    between atoms: C19_43  and  N7_46 
ROOT
HETATM    1  C12 UNL     1      11.935  21.804   4.930  1.00  0.00     0.129 A 
HETATM    2  N3  UNL     1      12.832  22.462   5.642  1.00  0.00    -0.311 N 
ATOM      3  H3  UNL     1      13.652  22.869   5.191  1.00  0.00     0.170 HD
HETATM    4  C13 UNL     1      12.654  22.585   6.942  1.00  0.00     0.289 A 
HETATM    5  O9  UNL     1      13.443  23.194   7.750  1.00  0.00    -0.260 OA
HETATM    6  S1  UNL     1      11.193  21.770   7.225  1.00  0.00    -0.027 SA
HETATM    7  C14 UNL     1      10.863  21.290   5.609  1.00  0.00     0.070 A 
ENDROOT
BRANCH   1   8
HETATM    8  C11 UNL     1      12.025  21.611   3.444  1.00  0.00     0.315 C 
HETATM    9  O8  UNL     1      11.404  22.321   2.634  1.00  0.00    -0.257 OA
BRANCH   8  10
HETATM   10  O7  UNL     1      12.816  20.615   2.887  1.00  0.00    -0.242 OA
BRANCH  10  11
HETATM   11  C10 UNL     1      14.217  20.785   2.760  1.00  0.00     0.471 C 
HETATM   12  N1  UNL     1      14.524  20.546   1.364  1.00  0.00     0.162 N 
HETATM   13  C1  UNL     1      15.195  21.608   0.703  1.00  0.00     0.318 C 
HETATM   14  C2  UNL     1      15.171  19.254   1.276  1.00  0.00     0.317 C 
HETATM   15  C3  UNL     1      14.986  18.721   2.645  1.00  0.00     0.193 C 
HETATM   16  O6  UNL     1      14.933  19.823   3.498  1.00  0.00    -0.310 OA
BRANCH  15  17
HETATM   17  C4  UNL     1      16.069  17.745   2.984  1.00  0.00     0.022 C 
HETATM   18  C5  UNL     1      15.661  16.728   3.724  1.00  0.00     0.013 C 
BRANCH  18  19
HETATM   19  C6  UNL     1      16.398  15.595   4.251  1.00  0.00     0.210 C 
BRANCH  19  20
HETATM   20  O1  UNL     1      15.783  14.999   5.400  1.00  0.00    -0.292 OA
BRANCH  20  21
HETATM   21  C7  UNL     1      15.948  13.709   5.800  1.00  0.00     0.333 C 
HETATM   22  O2  UNL     1      16.172  13.443   7.003  1.00  0.00    -0.624 OA
HETATM   23  O3  UNL     1      15.883  12.617   4.932  1.00  0.00    -0.624 OA
ENDBRANCH  20  21
ENDBRANCH  19  20
ENDBRANCH  18  19
BRANCH  17  24
HETATM   24  C8  UNL     1      17.418  17.905   2.502  1.00  0.00     0.197 C 
HETATM   25  O4  UNL     1      17.889  17.157   1.624  1.00  0.00    -0.286 OA
BRANCH  24  26
HETATM   26  C9  UNL     1      18.310  18.935   3.000  1.00  0.00     0.169 C 
HETATM   27  N2  UNL     1      17.858  20.119   3.319  1.00  0.00    -0.277 N 
ATOM     28  H2  UNL     1      16.861  20.306   3.210  1.00  0.00     0.193 HD
BRANCH  27  29
HETATM   29  O5  UNL     1      18.661  21.121   3.794  1.00  0.00    -0.290 OA
ATOM     30  H5  UNL     1      18.845  21.912   3.303  1.00  0.00     0.244 HD
ENDBRANCH  27  29
ENDBRANCH  24  26
ENDBRANCH  17  24
ENDBRANCH  15  17
BRANCH  11  31
HETATM   31  C23 UNL     1      14.660  22.113   3.227  1.00  0.00     0.274 C 
HETATM   32  O13 UNL     1      14.221  23.188   2.751  1.00  0.00    -0.642 OA
HETATM   33  O14 UNL     1      15.619  22.207   4.252  1.00  0.00    -0.642 OA
ENDBRANCH  11  31
ENDBRANCH  10  11
ENDBRANCH   8  10
ENDBRANCH   1   8
BRANCH   7  34
HETATM   34  C15 UNL     1       9.688  20.485   5.103  1.00  0.00     0.289 C 
BRANCH  34  35
HETATM   35  O10 UNL     1       8.850  21.430   4.453  1.00  0.00    -0.370 OA
ATOM     36  H10 UNL     1       9.239  21.551   3.594  1.00  0.00     0.212 HD
ENDBRANCH  34  35
BRANCH  34  37
HETATM   37  N4  UNL     1       8.904  19.974   6.205  1.00  0.00    -0.208 N 
HETATM   38  N5  UNL     1       9.256  18.874   6.837  1.00  0.00    -0.299 N 
HETATM   39  C16 UNL     1       8.517  18.399   7.883  1.00  0.00     0.156 A 
ATOM     40  H5  UNL     1      10.091  18.369   6.541  1.00  0.00     0.186 HD
HETATM   41  C17 UNL     1       7.383  19.053   8.312  1.00  0.00     0.129 A 
HETATM   42  N8  UNL     1       7.050  20.181   7.642  1.00  0.00    -0.292 N 
HETATM   43  C22 UNL     1       7.803  20.615   6.616  1.00  0.00     0.345 A 
ATOM     44  H8  UNL     1       6.220  20.707   7.918  1.00  0.00     0.172 HD
HETATM   45  O12 UNL     1       7.489  21.677   5.986  1.00  0.00    -0.245 OA
BRANCH  41  46
HETATM   46  N6  UNL     1       6.643  18.662   9.291  1.00  0.00    -0.310 N 
HETATM   47  C18 UNL     1       5.959  17.444   9.365  1.00  0.00     0.258 C 
HETATM   48  O11 UNL     1       4.989  17.232   8.592  1.00  0.00    -0.270 OA
ATOM     49  H6  UNL     1       6.547  19.298  10.084  1.00  0.00     0.170 HD
BRANCH  47  50
HETATM   50  C19 UNL     1       6.343  16.389  10.331  1.00  0.00     0.196 C 
HETATM   51  C20 UNL     1       5.190  16.062  11.273  1.00  0.00     0.056 C 
HETATM   52  C21 UNL     1       7.511  16.817  11.203  1.00  0.00     0.056 C 
BRANCH  50  53
HETATM   53  N7  UNL     1       6.671  15.192   9.582  1.00  0.00    -0.062 N 
ATOM     54  H73 UNL     1       6.614  15.331   8.573  1.00  0.00     0.275 HD
ATOM     55  H72 UNL     1       7.662  14.955   9.632  1.00  0.00     0.275 HD
ATOM     56  H71 UNL     1       6.068  14.439   9.912  1.00  0.00     0.275 HD
ENDBRANCH  50  53
ENDBRANCH  47  50
ENDBRANCH  41  46
ENDBRANCH  34  37
ENDBRANCH   7  34
TORSDOF 17
ENDMDL
MODEL 4
REMARK VINA RESULT: -8.654089999      1.085      1.779
REMARK  17 active torsions:
REMARK  status: ('A' for Active; 'I' for Inactive)
REMARK    1  A    between atoms: C3_4  and  C4_5 
REMARK    2  A    between atoms: C4_5  and  C8_12 
REMARK    3  A    between atoms: C5_6  and  C6_7 
REMARK    4  A    between atoms: C6_7  and  O1_8 
REMARK    5  A    between atoms: O1_8  and  C7_9 
REMARK    6  A    between atoms: C8_12  and  C9_14 
REMARK    7  A    between atoms: N2_15  and  O5_17 
REMARK    8  A    between atoms: C10_20  and  O7_21 
REMARK    9  A    between atoms: C10_20  and  C23_54 
REMARK   10  A    between atoms: O7_21  and  C11_22 
REMARK   11  A    between atoms: C11_22  and  C12_24 
REMARK   12  A    between atoms: C14_30  and  C15_31 
REMARK   13  A    between atoms: C15_31  and  O10_32 
REMARK   14  A    between atoms: C15_31  and  N4_34 
REMARK   15  A    between atoms: C17_38  and  N6_39 
REMARK       I    between atoms: N6_39  and  C18_41 
REMARK   16  A    between atoms: C18_41  and  C19_43 
REMARK   17  A    between atoms: C19_43  and  N7_46 
ROOT
HETATM    1  C12 UNL     1      15.192  20.497   2.382  1.00  0.00     0.129 A 
HETATM    2  N3  UNL     1      16.465  20.430   2.731  1.00  0.00    -0.311 N 
ATOM      3  H3  UNL     1      16.955  19.536   2.727  1.00  0.00     0.170 HD
HETATM    4  C13 UNL     1      17.092  21.534   3.085  1.00  0.00     0.289 A 
HETATM    5  O9  UNL     1      18.320  21.613   3.446  1.00  0.00    -0.260 OA
HETATM    6  S1  UNL     1      15.902  22.735   2.938  1.00  0.00    -0.027 SA
HETATM    7  C14 UNL     1      14.608  21.734   2.412  1.00  0.00     0.070 A 
ENDROOT
BRANCH   1   8
HETATM    8  C11 UNL     1      14.381  19.311   1.950  1.00  0.00     0.315 C 
HETATM    9  O8  UNL     1      13.452  18.846   2.634  1.00  0.00    -0.257 OA
BRANCH   8  10
HETATM   10  O7  UNL     1      14.628  18.658   0.749  1.00  0.00    -0.242 OA
BRANCH  10  11
HETATM   11  C10 UNL     1      15.616  17.647   0.661  1.00  0.00     0.471 C 
HETATM   12  N1  UNL     1      15.124  16.690  -0.310  1.00  0.00     0.162 N 
HETATM   13  C1  UNL     1      15.990  16.443  -1.407  1.00  0.00     0.318 C 
HETATM   14  C2  UNL     1      14.693  15.516   0.417  1.00  0.00     0.317 C 
HETATM   15  C3  UNL     1      14.763  15.978   1.822  1.00  0.00     0.193 C 
HETATM   16  O6  UNL     1      15.765  16.947   1.873  1.00  0.00    -0.310 OA
BRANCH  15  17
HETATM   17  C4  UNL     1      14.991  14.824   2.748  1.00  0.00     0.022 C 
HETATM   18  C5  UNL     1      14.240  14.856   3.837  1.00  0.00     0.013 C 
BRANCH  18  19
HETATM   19  C6  UNL     1      14.170  13.935   4.956  1.00  0.00     0.210 C 
BRANCH  19  20
HETATM   20  O1  UNL     1      15.190  14.155   5.939  1.00  0.00    -0.292 OA
BRANCH  20  21
HETATM   21  C7  UNL     1      16.156  13.260   6.283  1.00  0.00     0.333 C 
HETATM   22  O2  UNL     1      16.392  12.271   5.551  1.00  0.00    -0.624 OA
HETATM   23  O3  UNL     1      16.933  13.369   7.438  1.00  0.00    -0.624 OA
ENDBRANCH  20  21
ENDBRANCH  19  20
ENDBRANCH  18  19
BRANCH  17  24
HETATM   24  C8  UNL     1      15.922  13.769   2.438  1.00  0.00     0.197 C 
HETATM   25  O4  UNL     1      15.534  12.636   2.098  1.00  0.00    -0.286 OA
BRANCH  24  26
HETATM   26  C9  UNL     1      17.360  13.953   2.501  1.00  0.00     0.169 C 
HETATM   27  N2  UNL     1      17.959  14.835   1.745  1.00  0.00    -0.277 N 
ATOM     28  H2  UNL     1      17.393  15.394   1.107  1.00  0.00     0.193 HD
BRANCH  27  29
HETATM   29  O5  UNL     1      19.312  15.042   1.771  1.00  0.00    -0.290 OA
ATOM     30  H5  UNL     1      19.840  15.111   0.985  1.00  0.00     0.244 HD
ENDBRANCH  27  29
ENDBRANCH  24  26
ENDBRANCH  17  24
ENDBRANCH  15  17
BRANCH  11  31
HETATM   31  C23 UNL     1      16.941  18.195   0.307  1.00  0.00     0.274 C 
HETATM   32  O13 UNL     1      18.018  17.611   0.577  1.00  0.00    -0.642 OA
HETATM   33  O14 UNL     1      17.028  19.429  -0.363  1.00  0.00    -0.642 OA
ENDBRANCH  11  31
ENDBRANCH  10  11
ENDBRANCH   8  10
ENDBRANCH   1   8
BRANCH   7  34
HETATM   34  C15 UNL     1      13.189  22.146   2.093  1.00  0.00     0.289 C 
BRANCH  34  35
HETATM   35  O10 UNL     1      13.279  23.516   1.729  1.00  0.00    -0.370 OA
ATOM     36  H10 UNL     1      12.821  23.983   2.419  1.00  0.00     0.212 HD
ENDBRANCH  34  35
BRANCH  34  37
HETATM   37  N4  UNL     1      12.368  22.119   3.282  1.00  0.00    -0.208 N 
HETATM   38  N5  UNL     1      12.714  22.785   4.364  1.00  0.00    -0.299 N 
HETATM   39  C16 UNL     1      11.930  22.763   5.482  1.00  0.00     0.156 A 
ATOM     40  H5  UNL     1      13.579  23.324   4.367  1.00  0.00     0.186 HD
HETATM   41  C17 UNL     1      10.754  22.046   5.517  1.00  0.00     0.129 A 
HETATM   42  N8  UNL     1      10.427  21.375   4.388  1.00  0.00    -0.292 N 
HETATM   43  C22 UNL     1      11.226  21.420   3.308  1.00  0.00     0.345 A 
ATOM     44  H8  UNL     1       9.565  20.828   4.358  1.00  0.00     0.172 HD
HETATM   45  O12 UNL     1      10.917  20.787   2.247  1.00  0.00    -0.245 OA
BRANCH  41  46
HETATM   46  N6  UNL     1       9.968  21.984   6.535  1.00  0.00    -0.310 N 
HETATM   47  C18 UNL     1       8.620  21.610   6.508  1.00  0.00     0.258 C 
HETATM   48  O11 UNL     1       7.781  22.363   5.950  1.00  0.00    -0.270 OA
ATOM     49  H6  UNL     1      10.364  22.230   7.443  1.00  0.00     0.170 HD
BRANCH  47  50
HETATM   50  C19 UNL     1       8.148  20.348   7.122  1.00  0.00     0.196 C 
HETATM   51  C20 UNL     1       8.223  20.415   8.642  1.00  0.00     0.056 C 
HETATM   52  C21 UNL     1       8.991  19.158   6.695  1.00  0.00     0.056 C 
BRANCH  50  53
HETATM   53  N7  UNL     1       6.761  20.157   6.744  1.00  0.00    -0.062 N 
ATOM     54  H73 UNL     1       6.110  20.443   7.476  1.00  0.00     0.275 HD
ATOM     55  H72 UNL     1       6.454  20.812   6.025  1.00  0.00     0.275 HD
ATOM     56  H71 UNL     1       6.640  19.183   6.468  1.00  0.00     0.275 HD
ENDBRANCH  50  53
ENDBRANCH  47  50
ENDBRANCH  41  46
ENDBRANCH  34  37
ENDBRANCH   7  34
TORSDOF 17
ENDMDL
MODEL 5
REMARK VINA RESULT: -8.588750308      3.188      5.968
REMARK  17 active torsions:
REMARK  status: ('A' for Active; 'I' for Inactive)
REMARK    1  A    between atoms: C3_4  and  C4_5 
REMARK    2  A    between atoms: C4_5  and  C8_12 
REMARK    3  A    between atoms: C5_6  and  C6_7 
REMARK    4  A    between atoms: C6_7  and  O1_8 
REMARK    5  A    between atoms: O1_8  and  C7_9 
REMARK    6  A    between atoms: C8_12  and  C9_14 
REMARK    7  A    between atoms: N2_15  and  O5_17 
REMARK    8  A    between atoms: C10_20  and  O7_21 
REMARK    9  A    between atoms: C10_20  and  C23_54 
REMARK   10  A    between atoms: O7_21  and  C11_22 
REMARK   11  A    between atoms: C11_22  and  C12_24 
REMARK   12  A    between atoms: C14_30  and  C15_31 
REMARK   13  A    between atoms: C15_31  and  O10_32 
REMARK   14  A    between atoms: C15_31  and  N4_34 
REMARK   15  A    between atoms: C17_38  and  N6_39 
REMARK       I    between atoms: N6_39  and  C18_41 
REMARK   16  A    between atoms: C18_41  and  C19_43 
REMARK   17  A    between atoms: C19_43  and  N7_46 
ROOT
HETATM    1  C12 UNL     1      11.166  21.428   5.758  1.00  0.00     0.129 A 
HETATM    2  N3  UNL     1      12.274  21.966   6.236  1.00  0.00    -0.311 N 
ATOM      3  H3  UNL     1      13.122  21.994   5.668  1.00  0.00     0.170 HD
HETATM    4  C13 UNL     1      12.271  22.466   7.455  1.00  0.00     0.289 A 
HETATM    5  O9  UNL     1      13.272  23.014   8.041  1.00  0.00    -0.260 OA
HETATM    6  S1  UNL     1      10.684  22.198   7.992  1.00  0.00    -0.027 SA
HETATM    7  C14 UNL     1      10.074  21.431   6.582  1.00  0.00     0.070 A 
ENDROOT
BRANCH   1   8
HETATM    8  C11 UNL     1      11.049  20.841   4.382  1.00  0.00     0.315 C 
HETATM    9  O8  UNL     1      10.496  19.749   4.161  1.00  0.00    -0.257 OA
BRANCH   8  10
HETATM   10  O7  UNL     1      11.559  21.492   3.266  1.00  0.00    -0.242 OA
BRANCH  10  11
HETATM   11  C10 UNL     1      12.956  21.580   3.052  1.00  0.00     0.471 C 
HETATM   12  N1  UNL     1      13.126  21.887   1.645  1.00  0.00     0.162 N 
HETATM   13  C1  UNL     1      13.870  23.065   1.369  1.00  0.00     0.318 C 
HETATM   14  C2  UNL     1      13.600  20.686   0.992  1.00  0.00     0.317 C 
HETATM   15  C3  UNL     1      13.455  19.674   2.063  1.00  0.00     0.193 C 
HETATM   16  O6  UNL     1      13.603  20.350   3.273  1.00  0.00    -0.310 OA
BRANCH  15  17
HETATM   17  C4  UNL     1      14.433  18.557   1.870  1.00  0.00     0.022 C 
HETATM   18  C5  UNL     1      13.928  17.357   2.106  1.00  0.00     0.013 C 
BRANCH  18  19
HETATM   19  C6  UNL     1      14.548  16.047   2.032  1.00  0.00     0.210 C 
BRANCH  19  20
HETATM   20  O1  UNL     1      14.532  15.339   3.278  1.00  0.00    -0.292 OA
BRANCH  20  21
HETATM   21  C7  UNL     1      15.300  15.638   4.362  1.00  0.00     0.333 C 
HETATM   22  O2  UNL     1      14.973  15.231   5.501  1.00  0.00    -0.624 OA
HETATM   23  O3  UNL     1      16.472  16.394   4.293  1.00  0.00    -0.624 OA
ENDBRANCH  20  21
ENDBRANCH  19  20
ENDBRANCH  18  19
BRANCH  17  24
HETATM   24  C8  UNL     1      15.785  18.794   1.431  1.00  0.00     0.197 C 
HETATM   25  O4  UNL     1      16.152  18.519   0.273  1.00  0.00    -0.286 OA
BRANCH  24  26
HETATM   26  C9  UNL     1      16.801  19.361   2.299  1.00  0.00     0.169 C 
HETATM   27  N2  UNL     1      16.653  20.551   2.819  1.00  0.00    -0.277 N 
ATOM     28  H2  UNL     1      15.806  21.075   2.601  1.00  0.00     0.193 HD
BRANCH  27  29
HETATM   29  O5  UNL     1      17.584  21.126   3.642  1.00  0.00    -0.290 OA
ATOM     30  H5  UNL     1      17.522  21.099   4.589  1.00  0.00     0.244 HD
ENDBRANCH  27  29
ENDBRANCH  24  26
ENDBRANCH  17  24
ENDBRANCH  15  17
BRANCH  11  31
HETATM   31  C23 UNL     1      13.592  22.575   3.938  1.00  0.00     0.274 C 
HETATM   32  O13 UNL     1      13.085  23.695   4.186  1.00  0.00    -0.642 OA
HETATM   33  O14 UNL     1      14.826  22.278   4.545  1.00  0.00    -0.642 OA
ENDBRANCH  11  31
ENDBRANCH  10  11
ENDBRANCH   8  10
ENDBRANCH   1   8
BRANCH   7  34
HETATM   34  C15 UNL     1       8.681  20.889   6.351  1.00  0.00     0.289 C 
BRANCH  34  35
HETATM   35  O10 UNL     1       7.855  22.039   6.239  1.00  0.00    -0.370 OA
ATOM     36  H10 UNL     1       7.463  21.975   5.376  1.00  0.00     0.212 HD
ENDBRANCH  34  35
BRANCH  34  37
HETATM   37  N4  UNL     1       8.204  20.187   7.520  1.00  0.00    -0.208 N 
HETATM   38  N5  UNL     1       7.552  20.818   8.474  1.00  0.00    -0.299 N 
HETATM   39  C16 UNL     1       7.095  20.149   9.573  1.00  0.00     0.156 A 
ATOM     40  H5  UNL     1       7.385  21.821   8.391  1.00  0.00     0.186 HD
HETATM   41  C17 UNL     1       7.299  18.794   9.722  1.00  0.00     0.129 A 
HETATM   42  N8  UNL     1       7.972  18.176   8.723  1.00  0.00    -0.292 N 
HETATM   43  C22 UNL     1       8.406  18.871   7.657  1.00  0.00     0.345 A 
ATOM     44  H8  UNL     1       8.150  17.173   8.780  1.00  0.00     0.172 HD
HETATM   45  O12 UNL     1       9.039  18.288   6.718  1.00  0.00    -0.245 OA
BRANCH  41  46
HETATM   46  N6  UNL     1       6.895  18.103  10.730  1.00  0.00    -0.310 N 
HETATM   47  C18 UNL     1       5.941  17.079  10.691  1.00  0.00     0.258 C 
HETATM   48  O11 UNL     1       4.740  17.362  10.446  1.00  0.00    -0.270 OA
ATOM     49  H6  UNL     1       7.306  18.320  11.638  1.00  0.00     0.170 HD
BRANCH  47  50
HETATM   50  C19 UNL     1       6.304  15.664  10.931  1.00  0.00     0.196 C 
HETATM   51  C20 UNL     1       6.351  14.881   9.624  1.00  0.00     0.056 C 
HETATM   52  C21 UNL     1       5.297  14.962  11.825  1.00  0.00     0.056 C 
BRANCH  50  53
HETATM   53  N7  UNL     1       7.627  15.635  11.524  1.00  0.00    -0.062 N 
ATOM     54  H73 UNL     1       7.857  16.498  12.016  1.00  0.00     0.275 HD
ATOM     55  H72 UNL     1       7.688  15.002  12.322  1.00  0.00     0.275 HD
ATOM     56  H71 UNL     1       8.297  15.409  10.789  1.00  0.00     0.275 HD
ENDBRANCH  50  53
ENDBRANCH  47  50
ENDBRANCH  41  46
ENDBRANCH  34  37
ENDBRANCH   7  34
TORSDOF 17
ENDMDL
