MODEL 1
REMARK VINA RESULT: -8.786467101      0.000      0.000
REMARK  18 active torsions:
REMARK  status: ('A' for Active; 'I' for Inactive)
REMARK    1  A    between atoms: O1_2  and  C2_3 
REMARK    2  A    between atoms: C2_3  and  O2_4 
REMARK    3  A    between atoms: C2_3  and  C3_6 
REMARK    4  A    between atoms: C5_9  and  C6_10 
REMARK    5  A    between atoms: C6_10  and  C7_11 
REMARK    6  A    between atoms: C7_11  and  O5_13 
REMARK    7  A    between atoms: O5_13  and  C8_14 
REMARK    8  A    between atoms: C8_14  and  C9_15 
REMARK    9  A    between atoms: C9_15  and  O6_16 
REMARK   10  A    between atoms: C9_15  and  C10_18 
REMARK   11  A    between atoms: C10_18  and  O7_19 
REMARK   12  A    between atoms: C14_27  and  O11_28 
REMARK   13  A    between atoms: C16_31  and  O12_32 
REMARK   14  A    between atoms: C21_39  and  O14_40 
REMARK   15  A    between atoms: O14_40  and  C22_41 
REMARK   16  A    between atoms: C22_41  and  C23_43 
REMARK   17  A    between atoms: C23_43  and  C24_44 
REMARK   18  A    between atoms: C24_44  and  C26_46 
ROOT
HETATM    1  C3  UNL     1      15.815  17.094   2.600  1.00  0.00     0.182 C 
HETATM    2  O3  UNL     1      15.330  18.208   3.168  1.00  0.00    -0.356 OA
HETATM    3  C4  UNL     1      15.163  19.405   2.899  1.00  0.00     0.206 C 
HETATM    4  C5  UNL     1      13.976  20.067   2.266  1.00  0.00     0.105 C 
HETATM    5  C11 UNL     1      14.985  21.105   1.791  1.00  0.00     0.199 C 
HETATM    6  O8  UNL     1      14.878  22.302   1.623  1.00  0.00    -0.291 OA
HETATM    7  C12 UNL     1      15.923  19.979   1.698  1.00  0.00     0.265 C 
HETATM    8  O9  UNL     1      15.721  19.242   0.549  1.00  0.00    -0.270 OA
HETATM    9  C13 UNL     1      15.216  17.978   0.363  1.00  0.00     0.300 C 
HETATM   10  O10 UNL     1      14.636  17.767  -0.727  1.00  0.00    -0.262 OA
HETATM   11  C14 UNL     1      15.230  16.763   1.250  1.00  0.00     0.189 C 
HETATM   12  C15 UNL     1      15.934  15.684   0.511  1.00  0.00     0.122 C 
HETATM   13  C16 UNL     1      16.992  14.938   1.197  1.00  0.00     0.186 C 
HETATM   14  O13 UNL     1      17.302  15.379   2.473  1.00  0.00    -0.338 OA
HETATM   15  C17 UNL     1      17.251  16.827   2.549  1.00  0.00     0.218 C 
HETATM   16  C18 UNL     1      18.185  17.298   1.531  1.00  0.00     0.045 C 
HETATM   17  C19 UNL     1      18.539  18.447   1.030  1.00  0.00    -0.004 C 
HETATM   18  C20 UNL     1      19.624  18.504  -0.091  1.00  0.00     0.051 C 
HETATM   19  C21 UNL     1      18.124  19.842   1.305  1.00  0.00     0.305 C 
HETATM   20  O18 UNL     1      17.196  20.097   2.224  1.00  0.00    -0.311 OA
HETATM   21  N1  UNL     1      18.954  16.180   0.941  1.00  0.00    -0.381 N 
ATOM     22  H1  UNL     1      19.967  16.271   0.867  1.00  0.00     0.160 HD
HETATM   23  C27 UNL     1      18.332  14.963   0.465  1.00  0.00     0.140 C 
HETATM   24  C28 UNL     1      18.196  14.857  -1.007  1.00  0.00     0.037 C 
ENDROOT
BRANCH   4  25
HETATM   25  C6  UNL     1      12.996  20.647   3.268  1.00  0.00     0.126 C 
BRANCH  25  26
HETATM   26  C7  UNL     1      11.617  20.343   2.756  1.00  0.00     0.259 C 
HETATM   27  O4  UNL     1      11.458  19.614   1.753  1.00  0.00    -0.265 OA
BRANCH  26  28
HETATM   28  O5  UNL     1      10.542  20.866   3.386  1.00  0.00    -0.319 OA
BRANCH  28  29
HETATM   29  C8  UNL     1      10.359  21.232   4.686  1.00  0.00     0.212 C 
BRANCH  29  30
HETATM   30  C9  UNL     1       9.278  20.577   5.468  1.00  0.00     0.166 C 
BRANCH  30  31
HETATM   31  O6  UNL     1       8.089  20.467   4.809  1.00  0.00    -0.391 OA
ATOM     32  H6  UNL     1       7.352  20.232   5.361  1.00  0.00     0.210 HD
ENDBRANCH  30  31
BRANCH  30  33
HETATM   33  C10 UNL     1       9.014  21.325   6.771  1.00  0.00     0.198 C 
BRANCH  33  34
HETATM   34  O7  UNL     1       9.947  21.004   7.739  1.00  0.00    -0.398 OA
ATOM     35  H7  UNL     1      10.176  21.759   8.267  1.00  0.00     0.209 HD
ENDBRANCH  33  34
ENDBRANCH  30  33
ENDBRANCH  29  30
ENDBRANCH  28  29
ENDBRANCH  26  28
ENDBRANCH  25  26
ENDBRANCH   4  25
BRANCH   1  36
HETATM   36  C2  UNL     1      15.167  16.142   3.559  1.00  0.00     0.297 C 
BRANCH  36  37
HETATM   37  O1  UNL     1      14.224  15.203   3.320  1.00  0.00    -0.363 OA
HETATM   38  C1  UNL     1      14.200  13.885   3.804  1.00  0.00     0.204 C 
ENDBRANCH  36  37
BRANCH  36  39
HETATM   39  O2  UNL     1      15.498  16.144   4.827  1.00  0.00    -0.368 OA
ATOM     40  H2  UNL     1      15.672  17.031   5.122  1.00  0.00     0.212 HD
ENDBRANCH  36  39
ENDBRANCH   1  36
BRANCH  11  41
HETATM   41  O11 UNL     1      13.887  16.452   1.425  1.00  0.00    -0.376 OA
ATOM     42  H11 UNL     1      13.568  16.055   0.623  1.00  0.00     0.211 HD
ENDBRANCH  11  41
BRANCH  19  43
HETATM   43  O14 UNL     1      19.284  20.613   1.721  1.00  0.00    -0.285 OA
BRANCH  43  44
HETATM   44  C22 UNL     1      19.720  20.716   3.007  1.00  0.00     0.262 C 
HETATM   45  O15 UNL     1      18.981  21.204   3.875  1.00  0.00    -0.265 OA
BRANCH  44  46
HETATM   46  C23 UNL     1      21.076  20.254   3.410  1.00  0.00     0.126 C 
BRANCH  46  47
HETATM   47  C24 UNL     1      21.760  21.213   4.333  1.00  0.00     0.092 C 
HETATM   48  C25 UNL     1      22.839  20.399   5.066  1.00  0.00     0.021 C 
BRANCH  47  49
HETATM   49  C26 UNL     1      22.545  22.233   3.551  1.00  0.00     0.177 C 
HETATM   50  O16 UNL     1      23.624  22.697   3.956  1.00  0.00    -0.648 OA
HETATM   51  O17 UNL     1      22.038  22.665   2.337  1.00  0.00    -0.648 OA
ENDBRANCH  47  49
ENDBRANCH  46  47
ENDBRANCH  44  46
ENDBRANCH  43  44
ENDBRANCH  19  43
BRANCH  13  52
HETATM   52  O12 UNL     1      16.723  13.547   1.270  1.00  0.00    -0.363 OA
ATOM     53  H12 UNL     1      17.301  13.092   1.871  1.00  0.00     0.213 HD
ENDBRANCH  13  52
TORSDOF 18
ENDMDL
MODEL 2
REMARK VINA RESULT: -8.538503957      1.008      1.228
REMARK  18 active torsions:
REMARK  status: ('A' for Active; 'I' for Inactive)
REMARK    1  A    between atoms: O1_2  and  C2_3 
REMARK    2  A    between atoms: C2_3  and  O2_4 
REMARK    3  A    between atoms: C2_3  and  C3_6 
REMARK    4  A    between atoms: C5_9  and  C6_10 
REMARK    5  A    between atoms: C6_10  and  C7_11 
REMARK    6  A    between atoms: C7_11  and  O5_13 
REMARK    7  A    between atoms: O5_13  and  C8_14 
REMARK    8  A    between atoms: C8_14  and  C9_15 
REMARK    9  A    between atoms: C9_15  and  O6_16 
REMARK   10  A    between atoms: C9_15  and  C10_18 
REMARK   11  A    between atoms: C10_18  and  O7_19 
REMARK   12  A    between atoms: C14_27  and  O11_28 
REMARK   13  A    between atoms: C16_31  and  O12_32 
REMARK   14  A    between atoms: C21_39  and  O14_40 
REMARK   15  A    between atoms: O14_40  and  C22_41 
REMARK   16  A    between atoms: C22_41  and  C23_43 
REMARK   17  A    between atoms: C23_43  and  C24_44 
REMARK   18  A    between atoms: C24_44  and  C26_46 
ROOT
HETATM    1  C3  UNL     1      15.908  16.987   2.486  1.00  0.00     0.182 C 
HETATM    2  O3  UNL     1      15.477  18.147   3.004  1.00  0.00    -0.356 OA
HETATM    3  C4  UNL     1      15.364  19.337   2.682  1.00  0.00     0.206 C 
HETATM    4  C5  UNL     1      14.207  20.024   2.022  1.00  0.00     0.105 C 
HETATM    5  C11 UNL     1      15.261  20.992   1.500  1.00  0.00     0.199 C 
HETATM    6  O8  UNL     1      15.209  22.184   1.278  1.00  0.00    -0.291 OA
HETATM    7  C12 UNL     1      16.146  19.820   1.456  1.00  0.00     0.265 C 
HETATM    8  O9  UNL     1      15.907  19.043   0.341  1.00  0.00    -0.270 OA
HETATM    9  C13 UNL     1      15.343  17.797   0.213  1.00  0.00     0.300 C 
HETATM   10  O10 UNL     1      14.751  17.565  -0.867  1.00  0.00    -0.262 OA
HETATM   11  C14 UNL     1      15.303  16.624   1.153  1.00  0.00     0.189 C 
HETATM   12  C15 UNL     1      15.955  15.482   0.462  1.00  0.00     0.122 C 
HETATM   13  C16 UNL     1      16.980  14.719   1.179  1.00  0.00     0.186 C 
HETATM   14  O13 UNL     1      17.313  15.201   2.434  1.00  0.00    -0.338 OA
HETATM   15  C17 UNL     1      17.330  16.652   2.445  1.00  0.00     0.218 C 
HETATM   16  C18 UNL     1      18.282  17.033   1.406  1.00  0.00     0.045 C 
HETATM   17  C19 UNL     1      18.686  18.141   0.854  1.00  0.00    -0.004 C 
HETATM   18  C20 UNL     1      19.769  18.098  -0.269  1.00  0.00     0.051 C 
HETATM   19  C21 UNL     1      18.337  19.564   1.067  1.00  0.00     0.305 C 
HETATM   20  O18 UNL     1      17.424  19.903   1.974  1.00  0.00    -0.311 OA
HETATM   21  N1  UNL     1      18.996  15.855   0.866  1.00  0.00    -0.381 N 
ATOM     22  H1  UNL     1      20.012  15.896   0.787  1.00  0.00     0.160 HD
HETATM   23  C27 UNL     1      18.317  14.649   0.446  1.00  0.00     0.140 C 
HETATM   24  C28 UNL     1      18.172  14.484  -1.021  1.00  0.00     0.037 C 
ENDROOT
BRANCH   4  25
HETATM   25  C6  UNL     1      13.259  20.693   2.998  1.00  0.00     0.126 C 
BRANCH  25  26
HETATM   26  C7  UNL     1      11.869  20.265   2.618  1.00  0.00     0.259 C 
HETATM   27  O4  UNL     1      11.688  19.438   1.698  1.00  0.00    -0.265 OA
BRANCH  26  28
HETATM   28  O5  UNL     1      10.809  20.782   3.279  1.00  0.00    -0.319 OA
BRANCH  28  29
HETATM   29  C8  UNL     1      10.683  21.216   4.564  1.00  0.00     0.212 C 
BRANCH  29  30
HETATM   30  C9  UNL     1       9.581  20.670   5.399  1.00  0.00     0.166 C 
BRANCH  30  31
HETATM   31  O6  UNL     1       8.366  20.631   4.780  1.00  0.00    -0.391 OA
ATOM     32  H6  UNL     1       7.863  21.433   4.849  1.00  0.00     0.210 HD
ENDBRANCH  30  31
BRANCH  30  33
HETATM   33  C10 UNL     1       9.417  21.474   6.685  1.00  0.00     0.198 C 
BRANCH  33  34
HETATM   34  O7  UNL     1      10.191  20.960   7.708  1.00  0.00    -0.398 OA
ATOM     35  H7  UNL     1       9.983  20.049   7.879  1.00  0.00     0.209 HD
ENDBRANCH  33  34
ENDBRANCH  30  33
ENDBRANCH  29  30
ENDBRANCH  28  29
ENDBRANCH  26  28
ENDBRANCH  25  26
ENDBRANCH   4  25
BRANCH   1  36
HETATM   36  C2  UNL     1      15.220  16.109   3.487  1.00  0.00     0.297 C 
BRANCH  36  37
HETATM   37  O1  UNL     1      14.214  15.226   3.297  1.00  0.00    -0.363 OA
HETATM   38  C1  UNL     1      14.128  13.919   3.800  1.00  0.00     0.204 C 
ENDBRANCH  36  37
BRANCH  36  39
HETATM   39  O2  UNL     1      15.576  16.130   4.748  1.00  0.00    -0.368 OA
ATOM     40  H2  UNL     1      15.489  17.008   5.102  1.00  0.00     0.212 HD
ENDBRANCH  36  39
ENDBRANCH   1  36
BRANCH  11  41
HETATM   41  O11 UNL     1      13.949  16.383   1.343  1.00  0.00    -0.376 OA
ATOM     42  H11 UNL     1      13.677  15.715   0.725  1.00  0.00     0.211 HD
ENDBRANCH  11  41
BRANCH  19  43
HETATM   43  O14 UNL     1      19.532  20.299   1.447  1.00  0.00    -0.285 OA
BRANCH  43  44
HETATM   44  C22 UNL     1      19.649  21.049   2.577  1.00  0.00     0.262 C 
HETATM   45  O15 UNL     1      19.311  22.242   2.567  1.00  0.00    -0.265 OA
BRANCH  44  46
HETATM   46  C23 UNL     1      20.179  20.475   3.843  1.00  0.00     0.126 C 
BRANCH  46  47
HETATM   47  C24 UNL     1      21.635  20.136   3.757  1.00  0.00     0.092 C 
HETATM   48  C25 UNL     1      22.315  20.897   4.907  1.00  0.00     0.021 C 
BRANCH  47  49
HETATM   49  C26 UNL     1      21.864  18.688   4.096  1.00  0.00     0.177 C 
HETATM   50  O16 UNL     1      22.792  18.313   4.830  1.00  0.00    -0.648 OA
HETATM   51  O17 UNL     1      21.002  17.742   3.563  1.00  0.00    -0.648 OA
ENDBRANCH  47  49
ENDBRANCH  46  47
ENDBRANCH  44  46
ENDBRANCH  43  44
ENDBRANCH  19  43
BRANCH  13  52
HETATM   52  O12 UNL     1      16.646  13.346   1.314  1.00  0.00    -0.363 OA
ATOM     53  H12 UNL     1      15.713  13.204   1.423  1.00  0.00     0.213 HD
ENDBRANCH  13  52
TORSDOF 18
ENDMDL
MODEL 3
REMARK VINA RESULT: -8.424761353      1.255      1.622
REMARK  18 active torsions:
REMARK  status: ('A' for Active; 'I' for Inactive)
REMARK    1  A    between atoms: O1_2  and  C2_3 
REMARK    2  A    between atoms: C2_3  and  O2_4 
REMARK    3  A    between atoms: C2_3  and  C3_6 
REMARK    4  A    between atoms: C5_9  and  C6_10 
REMARK    5  A    between atoms: C6_10  and  C7_11 
REMARK    6  A    between atoms: C7_11  and  O5_13 
REMARK    7  A    between atoms: O5_13  and  C8_14 
REMARK    8  A    between atoms: C8_14  and  C9_15 
REMARK    9  A    between atoms: C9_15  and  O6_16 
REMARK   10  A    between atoms: C9_15  and  C10_18 
REMARK   11  A    between atoms: C10_18  and  O7_19 
REMARK   12  A    between atoms: C14_27  and  O11_28 
REMARK   13  A    between atoms: C16_31  and  O12_32 
REMARK   14  A    between atoms: C21_39  and  O14_40 
REMARK   15  A    between atoms: O14_40  and  C22_41 
REMARK   16  A    between atoms: C22_41  and  C23_43 
REMARK   17  A    between atoms: C23_43  and  C24_44 
REMARK   18  A    between atoms: C24_44  and  C26_46 
ROOT
HETATM    1  C3  UNL     1      16.019  16.817   2.372  1.00  0.00     0.182 C 
HETATM    2  O3  UNL     1      15.404  17.824   3.011  1.00  0.00    -0.356 OA
HETATM    3  C4  UNL     1      15.070  18.999   2.811  1.00  0.00     0.206 C 
HETATM    4  C5  UNL     1      13.787  19.524   2.241  1.00  0.00     0.105 C 
HETATM    5  C11 UNL     1      14.633  20.713   1.802  1.00  0.00     0.199 C 
HETATM    6  O8  UNL     1      14.361  21.891   1.703  1.00  0.00    -0.291 OA
HETATM    7  C12 UNL     1      15.712  19.732   1.628  1.00  0.00     0.265 C 
HETATM    8  O9  UNL     1      15.578  19.035   0.444  1.00  0.00    -0.270 OA
HETATM    9  C13 UNL     1      15.243  17.725   0.201  1.00  0.00     0.300 C 
HETATM   10  O10 UNL     1      14.666  17.493  -0.887  1.00  0.00    -0.262 OA
HETATM   11  C14 UNL     1      15.445  16.479   1.019  1.00  0.00     0.189 C 
HETATM   12  C15 UNL     1      16.267  15.546   0.207  1.00  0.00     0.122 C 
HETATM   13  C16 UNL     1      17.436  14.916   0.829  1.00  0.00     0.186 C 
HETATM   14  O13 UNL     1      17.719  15.329   2.120  1.00  0.00    -0.338 OA
HETATM   15  C17 UNL     1      17.475  16.750   2.276  1.00  0.00     0.218 C 
HETATM   16  C18 UNL     1      18.309  17.396   1.266  1.00  0.00     0.045 C 
HETATM   17  C19 UNL     1      18.490  18.606   0.822  1.00  0.00    -0.004 C 
HETATM   18  C20 UNL     1      19.525  18.869  -0.317  1.00  0.00     0.051 C 
HETATM   19  C21 UNL     1      17.899  19.916   1.182  1.00  0.00     0.305 C 
HETATM   20  O18 UNL     1      16.971  19.995   2.132  1.00  0.00    -0.311 OA
HETATM   21  N1  UNL     1      19.204  16.425   0.600  1.00  0.00    -0.381 N 
ATOM     22  H1  UNL     1      20.193  16.657   0.509  1.00  0.00     0.160 HD
HETATM   23  C27 UNL     1      18.738  15.161   0.071  1.00  0.00     0.140 C 
HETATM   24  C28 UNL     1      18.576  15.114  -1.402  1.00  0.00     0.037 C 
ENDROOT
BRANCH   4  25
HETATM   25  C6  UNL     1      12.767  19.914   3.294  1.00  0.00     0.126 C 
BRANCH  25  26
HETATM   26  C7  UNL     1      11.758  20.799   2.617  1.00  0.00     0.259 C 
HETATM   27  O4  UNL     1      11.296  20.494   1.496  1.00  0.00    -0.265 OA
BRANCH  26  28
HETATM   28  O5  UNL     1      11.351  21.934   3.227  1.00  0.00    -0.319 OA
BRANCH  28  29
HETATM   29  C8  UNL     1      11.461  22.339   4.524  1.00  0.00     0.212 C 
BRANCH  29  30
HETATM   30  C9  UNL     1      12.668  23.103   4.934  1.00  0.00     0.166 C 
BRANCH  30  31
HETATM   31  O6  UNL     1      13.472  23.492   3.902  1.00  0.00    -0.391 OA
ATOM     32  H6  UNL     1      14.186  22.894   3.712  1.00  0.00     0.210 HD
ENDBRANCH  30  31
BRANCH  30  33
HETATM   33  C10 UNL     1      13.524  22.297   5.905  1.00  0.00     0.198 C 
BRANCH  33  34
HETATM   34  O7  UNL     1      14.764  22.005   5.368  1.00  0.00    -0.398 OA
ATOM     35  H7  UNL     1      15.410  22.659   5.606  1.00  0.00     0.209 HD
ENDBRANCH  33  34
ENDBRANCH  30  33
ENDBRANCH  29  30
ENDBRANCH  28  29
ENDBRANCH  26  28
ENDBRANCH  25  26
ENDBRANCH   4  25
BRANCH   1  36
HETATM   36  C2  UNL     1      15.532  15.737   3.291  1.00  0.00     0.297 C 
BRANCH  36  37
HETATM   37  O1  UNL     1      14.768  14.658   3.008  1.00  0.00    -0.363 OA
HETATM   38  C1  UNL     1      14.975  13.338   3.437  1.00  0.00     0.204 C 
ENDBRANCH  36  37
BRANCH  36  39
HETATM   39  O2  UNL     1      15.842  15.755   4.564  1.00  0.00    -0.368 OA
ATOM     40  H2  UNL     1      16.636  16.259   4.704  1.00  0.00     0.212 HD
ENDBRANCH  36  39
ENDBRANCH   1  36
BRANCH  11  41
HETATM   41  O11 UNL     1      14.162  15.979   1.205  1.00  0.00    -0.376 OA
ATOM     42  H11 UNL     1      14.054  15.777   2.127  1.00  0.00     0.211 HD
ENDBRANCH  11  41
BRANCH  19  43
HETATM   43  O14 UNL     1      18.955  20.815   1.615  1.00  0.00    -0.285 OA
BRANCH  43  44
HETATM   44  C22 UNL     1      19.476  20.843   2.873  1.00  0.00     0.262 C 
HETATM   45  O15 UNL     1      18.781  21.227   3.824  1.00  0.00    -0.265 OA
BRANCH  44  46
HETATM   46  C23 UNL     1      20.877  20.419   3.145  1.00  0.00     0.126 C 
BRANCH  46  47
HETATM   47  C24 UNL     1      21.538  21.259   4.193  1.00  0.00     0.092 C 
HETATM   48  C25 UNL     1      22.496  20.321   4.945  1.00  0.00     0.021 C 
BRANCH  47  49
HETATM   49  C26 UNL     1      22.450  22.276   3.561  1.00  0.00     0.177 C 
HETATM   50  O16 UNL     1      23.550  22.581   4.049  1.00  0.00    -0.648 OA
HETATM   51  O17 UNL     1      22.037  22.893   2.391  1.00  0.00    -0.648 OA
ENDBRANCH  47  49
ENDBRANCH  46  47
ENDBRANCH  44  46
ENDBRANCH  43  44
ENDBRANCH  19  43
BRANCH  13  52
HETATM   52  O12 UNL     1      17.358  13.499   0.831  1.00  0.00    -0.363 OA
ATOM     53  H12 UNL     1      17.103  13.147   1.676  1.00  0.00     0.213 HD
ENDBRANCH  13  52
TORSDOF 18
ENDMDL
MODEL 4
REMARK VINA RESULT: -8.389130026      2.231      2.763
REMARK  18 active torsions:
REMARK  status: ('A' for Active; 'I' for Inactive)
REMARK    1  A    between atoms: O1_2  and  C2_3 
REMARK    2  A    between atoms: C2_3  and  O2_4 
REMARK    3  A    between atoms: C2_3  and  C3_6 
REMARK    4  A    between atoms: C5_9  and  C6_10 
REMARK    5  A    between atoms: C6_10  and  C7_11 
REMARK    6  A    between atoms: C7_11  and  O5_13 
REMARK    7  A    between atoms: O5_13  and  C8_14 
REMARK    8  A    between atoms: C8_14  and  C9_15 
REMARK    9  A    between atoms: C9_15  and  O6_16 
REMARK   10  A    between atoms: C9_15  and  C10_18 
REMARK   11  A    between atoms: C10_18  and  O7_19 
REMARK   12  A    between atoms: C14_27  and  O11_28 
REMARK   13  A    between atoms: C16_31  and  O12_32 
REMARK   14  A    between atoms: C21_39  and  O14_40 
REMARK   15  A    between atoms: O14_40  and  C22_41 
REMARK   16  A    between atoms: C22_41  and  C23_43 
REMARK   17  A    between atoms: C23_43  and  C24_44 
REMARK   18  A    between atoms: C24_44  and  C26_46 
ROOT
HETATM    1  C3  UNL     1      16.103  16.227   3.169  1.00  0.00     0.182 C 
HETATM    2  O3  UNL     1      15.497  17.402   3.395  1.00  0.00    -0.356 OA
HETATM    3  C4  UNL     1      15.380  18.516   2.868  1.00  0.00     0.206 C 
HETATM    4  C5  UNL     1      14.349  18.985   1.885  1.00  0.00     0.105 C 
HETATM    5  C11 UNL     1      15.427  19.965   1.437  1.00  0.00     0.199 C 
HETATM    6  O8  UNL     1      15.347  21.101   1.019  1.00  0.00    -0.291 OA
HETATM    7  C12 UNL     1      16.374  18.891   1.763  1.00  0.00     0.265 C 
HETATM    8  O9  UNL     1      16.430  17.940   0.764  1.00  0.00    -0.270 OA
HETATM    9  C13 UNL     1      15.988  16.640   0.728  1.00  0.00     0.300 C 
HETATM   10  O10 UNL     1      15.658  16.198  -0.396  1.00  0.00    -0.262 OA
HETATM   11  C14 UNL     1      15.824  15.617   1.818  1.00  0.00     0.189 C 
HETATM   12  C15 UNL     1      16.680  14.456   1.468  1.00  0.00     0.122 C 
HETATM   13  C16 UNL     1      17.574  13.908   2.492  1.00  0.00     0.186 C 
HETATM   14  O13 UNL     1      17.599  14.597   3.693  1.00  0.00    -0.338 OA
HETATM   15  C17 UNL     1      17.519  16.028   3.472  1.00  0.00     0.218 C 
HETATM   16  C18 UNL     1      18.645  16.346   2.599  1.00  0.00     0.045 C 
HETATM   17  C19 UNL     1      19.087  17.395   1.967  1.00  0.00    -0.004 C 
HETATM   18  C20 UNL     1      20.386  17.295   1.108  1.00  0.00     0.051 C 
HETATM   19  C21 UNL     1      18.609  18.794   1.872  1.00  0.00     0.305 C 
HETATM   20  O18 UNL     1      17.503  19.171   2.509  1.00  0.00    -0.311 OA
HETATM   21  N1  UNL     1      19.533  15.177   2.412  1.00  0.00    -0.381 N 
ATOM     22  H1  UNL     1      20.538  15.304   2.534  1.00  0.00     0.160 HD
HETATM   23  C27 UNL     1      19.039  13.862   2.064  1.00  0.00     0.140 C 
HETATM   24  C28 UNL     1      19.223  13.473   0.646  1.00  0.00     0.037 C 
ENDROOT
BRANCH   4  25
HETATM   25  C6  UNL     1      13.173  19.694   2.528  1.00  0.00     0.126 C 
BRANCH  25  26
HETATM   26  C7  UNL     1      12.432  20.396   1.425  1.00  0.00     0.259 C 
HETATM   27  O4  UNL     1      12.327  19.870   0.295  1.00  0.00    -0.265 OA
BRANCH  26  28
HETATM   28  O5  UNL     1      11.876  21.605   1.660  1.00  0.00    -0.319 OA
BRANCH  28  29
HETATM   29  C8  UNL     1      11.961  22.432   2.739  1.00  0.00     0.212 C 
BRANCH  29  30
HETATM   30  C9  UNL     1      13.118  23.361   2.839  1.00  0.00     0.166 C 
BRANCH  30  31
HETATM   31  O6  UNL     1      13.735  23.627   1.652  1.00  0.00    -0.391 OA
ATOM     32  H6  UNL     1      13.927  24.546   1.505  1.00  0.00     0.210 HD
ENDBRANCH  30  31
BRANCH  30  33
HETATM   33  C10 UNL     1      14.174  22.819   3.796  1.00  0.00     0.198 C 
BRANCH  33  34
HETATM   34  O7  UNL     1      15.443  23.238   3.442  1.00  0.00    -0.398 OA
ATOM     35  H7  UNL     1      16.111  22.803   3.959  1.00  0.00     0.209 HD
ENDBRANCH  33  34
ENDBRANCH  30  33
ENDBRANCH  29  30
ENDBRANCH  28  29
ENDBRANCH  26  28
ENDBRANCH  25  26
ENDBRANCH   4  25
BRANCH   1  36
HETATM   36  C2  UNL     1      15.274  15.441   4.140  1.00  0.00     0.297 C 
BRANCH  36  37
HETATM   37  O1  UNL     1      14.306  14.530   3.891  1.00  0.00    -0.363 OA
HETATM   38  C1  UNL     1      13.563  13.806   4.835  1.00  0.00     0.204 C 
ENDBRANCH  36  37
BRANCH  36  39
HETATM   39  O2  UNL     1      15.440  15.589   5.431  1.00  0.00    -0.368 OA
ATOM     40  H2  UNL     1      15.095  16.428   5.715  1.00  0.00     0.212 HD
ENDBRANCH  36  39
ENDBRANCH   1  36
BRANCH  11  41
HETATM   41  O11 UNL     1      14.478  15.276   1.768  1.00  0.00    -0.376 OA
ATOM     42  H11 UNL     1      14.344  14.708   1.019  1.00  0.00     0.211 HD
ENDBRANCH  11  41
BRANCH  19  43
HETATM   43  O14 UNL     1      19.646  19.688   2.361  1.00  0.00    -0.285 OA
BRANCH  43  44
HETATM   44  C22 UNL     1      19.777  20.079   3.659  1.00  0.00     0.262 C 
HETATM   45  O15 UNL     1      19.169  21.078   4.071  1.00  0.00    -0.265 OA
BRANCH  44  46
HETATM   46  C23 UNL     1      20.641  19.333   4.614  1.00  0.00     0.126 C 
BRANCH  46  47
HETATM   47  C24 UNL     1      22.041  19.165   4.113  1.00  0.00     0.092 C 
HETATM   48  C25 UNL     1      22.934  19.960   5.080  1.00  0.00     0.021 C 
BRANCH  47  49
HETATM   49  C26 UNL     1      22.499  17.741   4.284  1.00  0.00     0.177 C 
HETATM   50  O16 UNL     1      21.712  16.781   4.265  1.00  0.00    -0.648 OA
HETATM   51  O17 UNL     1      23.851  17.502   4.471  1.00  0.00    -0.648 OA
ENDBRANCH  47  49
ENDBRANCH  46  47
ENDBRANCH  44  46
ENDBRANCH  43  44
ENDBRANCH  19  43
BRANCH  13  52
HETATM   52  O12 UNL     1      17.308  12.543   2.777  1.00  0.00    -0.363 OA
ATOM     53  H12 UNL     1      17.924  11.954   2.356  1.00  0.00     0.213 HD
ENDBRANCH  13  52
TORSDOF 18
ENDMDL
MODEL 5
REMARK VINA RESULT: -8.350907940      2.709      7.482
REMARK  18 active torsions:
REMARK  status: ('A' for Active; 'I' for Inactive)
REMARK    1  A    between atoms: O1_2  and  C2_3 
REMARK    2  A    between atoms: C2_3  and  O2_4 
REMARK    3  A    between atoms: C2_3  and  C3_6 
REMARK    4  A    between atoms: C5_9  and  C6_10 
REMARK    5  A    between atoms: C6_10  and  C7_11 
REMARK    6  A    between atoms: C7_11  and  O5_13 
REMARK    7  A    between atoms: O5_13  and  C8_14 
REMARK    8  A    between atoms: C8_14  and  C9_15 
REMARK    9  A    between atoms: C9_15  and  O6_16 
REMARK   10  A    between atoms: C9_15  and  C10_18 
REMARK   11  A    between atoms: C10_18  and  O7_19 
REMARK   12  A    between atoms: C14_27  and  O11_28 
REMARK   13  A    between atoms: C16_31  and  O12_32 
REMARK   14  A    between atoms: C21_39  and  O14_40 
REMARK   15  A    between atoms: O14_40  and  C22_41 
REMARK   16  A    between atoms: C22_41  and  C23_43 
REMARK   17  A    between atoms: C23_43  and  C24_44 
REMARK   18  A    between atoms: C24_44  and  C26_46 
ROOT
HETATM    1  C3  UNL     1      17.589  17.169   1.641  1.00  0.00     0.182 C 
HETATM    2  O3  UNL     1      16.683  16.433   0.978  1.00  0.00    -0.356 OA
HETATM    3  C4  UNL     1      15.969  16.506  -0.031  1.00  0.00     0.206 C 
HETATM    4  C5  UNL     1      16.285  16.085  -1.435  1.00  0.00     0.105 C 
HETATM    5  C11 UNL     1      15.271  17.151  -1.831  1.00  0.00     0.199 C 
HETATM    6  O8  UNL     1      14.482  17.197  -2.752  1.00  0.00    -0.291 OA
HETATM    7  C12 UNL     1      15.761  17.888  -0.659  1.00  0.00     0.265 C 
HETATM    8  O9  UNL     1      16.955  18.529  -0.924  1.00  0.00    -0.270 OA
HETATM    9  C13 UNL     1      18.231  18.282  -0.478  1.00  0.00     0.300 C 
HETATM   10  O10 UNL     1      19.161  18.611  -1.250  1.00  0.00    -0.262 OA
HETATM   11  C14 UNL     1      18.735  17.672   0.800  1.00  0.00     0.189 C 
HETATM   12  C15 UNL     1      19.597  18.684   1.463  1.00  0.00     0.122 C 
HETATM   13  C16 UNL     1      19.378  18.974   2.882  1.00  0.00     0.186 C 
HETATM   14  O13 UNL     1      18.304  18.321   3.465  1.00  0.00    -0.338 OA
HETATM   15  C17 UNL     1      17.184  18.242   2.546  1.00  0.00     0.218 C 
HETATM   16  C18 UNL     1      16.891  19.624   2.176  1.00  0.00     0.045 C 
HETATM   17  C19 UNL     1      16.094  20.233   1.347  1.00  0.00    -0.004 C 
HETATM   18  C20 UNL     1      16.099  21.792   1.268  1.00  0.00     0.051 C 
HETATM   19  C21 UNL     1      15.081  19.752   0.379  1.00  0.00     0.305 C 
HETATM   20  O18 UNL     1      14.862  18.448   0.228  1.00  0.00    -0.311 OA
HETATM   21  N1  UNL     1      17.685  20.580   2.980  1.00  0.00    -0.381 N 
ATOM     22  H1  UNL     1      17.204  21.366   3.417  1.00  0.00     0.160 HD
HETATM   23  C27 UNL     1      19.113  20.449   3.173  1.00  0.00     0.140 C 
HETATM   24  C28 UNL     1      19.947  21.365   2.358  1.00  0.00     0.037 C 
ENDROOT
BRANCH   4  25
HETATM   25  C6  UNL     1      15.801  14.689  -1.776  1.00  0.00     0.126 C 
BRANCH  25  26
HETATM   26  C7  UNL     1      16.035  14.495  -3.248  1.00  0.00     0.259 C 
HETATM   27  O4  UNL     1      15.280  13.758  -3.920  1.00  0.00    -0.265 OA
BRANCH  26  28
HETATM   28  O5  UNL     1      17.072  15.122  -3.846  1.00  0.00    -0.319 OA
BRANCH  28  29
HETATM   29  C8  UNL     1      17.106  15.983  -4.903  1.00  0.00     0.212 C 
BRANCH  29  30
HETATM   30  C9  UNL     1      17.963  17.193  -4.812  1.00  0.00     0.166 C 
BRANCH  30  31
HETATM   31  O6  UNL     1      18.812  17.208  -3.745  1.00  0.00    -0.391 OA
ATOM     32  H6  UNL     1      18.395  17.390  -2.911  1.00  0.00     0.210 HD
ENDBRANCH  30  31
BRANCH  30  33
HETATM   33  C10 UNL     1      17.117  18.460  -4.744  1.00  0.00     0.198 C 
BRANCH  33  34
HETATM   34  O7  UNL     1      17.561  19.315  -3.753  1.00  0.00    -0.398 OA
ATOM     35  H7  UNL     1      17.236  19.057  -2.898  1.00  0.00     0.209 HD
ENDBRANCH  33  34
ENDBRANCH  30  33
ENDBRANCH  29  30
ENDBRANCH  28  29
ENDBRANCH  26  28
ENDBRANCH  25  26
ENDBRANCH   4  25
BRANCH   1  36
HETATM   36  C2  UNL     1      18.151  16.031   2.440  1.00  0.00     0.297 C 
BRANCH  36  37
HETATM   37  O1  UNL     1      19.357  15.430   2.334  1.00  0.00    -0.363 OA
HETATM   38  C1  UNL     1      20.211  15.056   3.382  1.00  0.00     0.204 C 
ENDBRANCH  36  37
BRANCH  36  39
HETATM   39  O2  UNL     1      17.448  15.479   3.399  1.00  0.00    -0.368 OA
ATOM     40  H2  UNL     1      17.910  14.731   3.758  1.00  0.00     0.212 HD
ENDBRANCH  36  39
ENDBRANCH   1  36
BRANCH  11  41
HETATM   41  O11 UNL     1      19.483  16.577   0.387  1.00  0.00    -0.376 OA
ATOM     42  H11 UNL     1      19.635  16.020   1.141  1.00  0.00     0.211 HD
ENDBRANCH  11  41
BRANCH  19  43
HETATM   43  O14 UNL     1      13.785  20.311   0.725  1.00  0.00    -0.285 OA
BRANCH  43  44
HETATM   44  C22 UNL     1      12.960  19.808   1.685  1.00  0.00     0.262 C 
HETATM   45  O15 UNL     1      12.207  18.859   1.421  1.00  0.00    -0.265 OA
BRANCH  44  46
HETATM   46  C23 UNL     1      12.934  20.371   3.062  1.00  0.00     0.126 C 
BRANCH  46  47
HETATM   47  C24 UNL     1      12.098  21.609   3.163  1.00  0.00     0.092 C 
HETATM   48  C25 UNL     1      11.531  21.622   4.591  1.00  0.00     0.021 C 
BRANCH  47  49
HETATM   49  C26 UNL     1      12.963  22.839   3.104  1.00  0.00     0.177 C 
HETATM   50  O16 UNL     1      13.691  23.187   4.048  1.00  0.00    -0.648 OA
HETATM   51  O17 UNL     1      12.939  23.607   1.952  1.00  0.00    -0.648 OA
ENDBRANCH  47  49
ENDBRANCH  46  47
ENDBRANCH  44  46
ENDBRANCH  43  44
ENDBRANCH  19  43
BRANCH  13  52
HETATM   52  O12 UNL     1      20.526  18.719   3.677  1.00  0.00    -0.363 OA
ATOM     53  H12 UNL     1      20.359  18.091   4.371  1.00  0.00     0.213 HD
ENDBRANCH  13  52
TORSDOF 18
ENDMDL
