MODEL 1
REMARK VINA RESULT: -10.260954432      0.000      0.000
REMARK  14 active torsions:
REMARK  status: ('A' for Active; 'I' for Inactive)
REMARK    1  A    between atoms: C1_4  and  C2_5 
REMARK    2  A    between atoms: C1_4  and  C19_42 
REMARK       I    between atoms: C2_5  and  N2_7 
REMARK    3  A    between atoms: C3_9  and  C4_10 
REMARK    4  A    between atoms: C4_10  and  S1_11 
REMARK    5  A    between atoms: S1_11  and  C5_12 
REMARK    6  A    between atoms: C7_14  and  S2_15 
REMARK    7  A    between atoms: S2_15  and  S3_16 
REMARK    8  A    between atoms: S3_16  and  C8_17 
REMARK    9  A    between atoms: N3_21  and  O2_22 
REMARK       I    between atoms: N4_24  and  C12_25 
REMARK   10  A    between atoms: C12_25  and  C13_27 
REMARK   11  A    between atoms: C14_30  and  C15_31 
REMARK   12  A    between atoms: C17_35  and  C18_36 
REMARK   13  A    between atoms: C20_43  and  O9_44 
REMARK   14  A    between atoms: N7_49  and  N8_50 
ROOT
HETATM    1  C5  UNL     1       9.523  21.422   5.513  1.00  0.00     0.249 C 
HETATM    2  C6  UNL     1      10.167  20.328   4.701  1.00  0.00     0.060 C 
HETATM    3  C7  UNL     1      11.560  20.804   4.277  1.00  0.00     0.064 C 
HETATM    4  C16 UNL     1      12.294  21.509   5.343  1.00  0.00     0.058 C 
HETATM    5  C17 UNL     1      11.511  22.231   6.379  1.00  0.00     0.276 C 
HETATM    6  N6  UNL     1      10.289  21.511   6.751  1.00  0.00    -0.050 N 
ATOM      7  H61 UNL     1      10.458  20.611   7.202  1.00  0.00     0.279 HD
ATOM      8  H62 UNL     1       9.778  21.932   7.527  1.00  0.00     0.279 HD
ENDROOT
BRANCH   1   9
HETATM    9  S1  UNL     1       7.788  21.126   5.718  1.00  0.00    -0.131 SA
BRANCH   9  10
HETATM   10  C4  UNL     1       7.346  20.324   7.233  1.00  0.00     0.120 C 
BRANCH  10  11
HETATM   11  C3  UNL     1       7.753  21.098   8.411  1.00  0.00     0.074 C 
HETATM   12  N2  UNL     1       8.077  20.519   9.537  1.00  0.00    -0.335 N 
HETATM   13  C2  UNL     1       8.003  19.053   9.520  1.00  0.00     0.273 C 
ATOM     14  H2  UNL     1       8.360  21.045  10.363  1.00  0.00     0.168 HD
HETATM   15  O1  UNL     1       9.023  18.532   9.072  1.00  0.00    -0.266 OA
BRANCH  13  16
HETATM   16  C1  UNL     1       6.783  18.472  10.013  1.00  0.00     0.129 C 
HETATM   17  N1  UNL     1       5.892  19.340  10.352  1.00  0.00    -0.393 N 
ATOM     18  H12 UNL     1       6.113  20.331  10.253  1.00  0.00     0.156 HD
ATOM     19  H11 UNL     1       5.027  18.929  10.702  1.00  0.00     0.156 HD
BRANCH  16  20
HETATM   20  C19 UNL     1       6.464  17.046  10.155  1.00  0.00     0.151 A 
HETATM   21  C20 UNL     1       5.241  16.492   9.779  1.00  0.00     0.220 A 
HETATM   22  O10 UNL     1       5.313  15.199  10.055  1.00  0.00    -0.234 OA
HETATM   23  C21 UNL     1       6.439  14.905  10.555  1.00  0.00     0.393 A 
HETATM   24  O11 UNL     1       6.844  13.777  10.929  1.00  0.00    -0.236 OA
HETATM   25  N7  UNL     1       7.184  16.028  10.633  1.00  0.00    -0.198 N 
BRANCH  21  26
HETATM   26  O9  UNL     1       4.115  17.076   9.225  1.00  0.00    -0.339 OA
ATOM     27  H9  UNL     1       3.204  17.045   9.491  1.00  0.00     0.220 HD
ENDBRANCH  21  26
BRANCH  25  28
HETATM   28  N8  UNL     1       8.490  16.052  11.146  1.00  0.00    -0.334 N 
ATOM     29  H82 UNL     1       8.959  16.907  11.442  1.00  0.00     0.177 HD
ATOM     30  H81 UNL     1       9.127  15.269  11.288  1.00  0.00     0.177 HD
ENDBRANCH  25  28
ENDBRANCH  16  20
ENDBRANCH  13  16
ENDBRANCH  10  11
ENDBRANCH   9  10
ENDBRANCH   1   9
BRANCH   3  31
HETATM   31  S2  UNL     1      11.560  21.502   2.641  1.00  0.00    -0.092 SA
BRANCH  31  32
HETATM   32  S3  UNL     1      12.733  20.622   1.196  1.00  0.00    -0.088 SA
BRANCH  32  33
HETATM   33  C8  UNL     1      14.309  19.956   1.696  1.00  0.00     0.112 C 
HETATM   34  C9  UNL     1      15.458  20.860   1.788  1.00  0.00     0.108 C 
HETATM   35  C10 UNL     1      16.643  20.010   2.302  1.00  0.00     0.067 C 
HETATM   36  N3  UNL     1      16.199  21.040   0.568  1.00  0.00    -0.170 NA
HETATM   37  C11 UNL     1      16.848  19.761   0.860  1.00  0.00     0.191 C 
HETATM   38  N4  UNL     1      15.898  18.773   0.308  1.00  0.00    -0.308 N 
HETATM   39  C12 UNL     1      16.332  18.003  -0.823  1.00  0.00     0.322 C 
HETATM   40  C14 UNL     1      14.640  18.678   0.963  1.00  0.00     0.206 C 
HETATM   41  O3  UNL     1      17.494  18.198  -1.293  1.00  0.00    -0.261 OA
BRANCH  39  42
HETATM   42  C13 UNL     1      15.490  17.021  -1.434  1.00  0.00     0.270 C 
HETATM   43  O4  UNL     1      14.613  17.196  -2.306  1.00  0.00    -0.640 OA
HETATM   44  O5  UNL     1      15.678  15.676  -0.993  1.00  0.00    -0.640 OA
ENDBRANCH  39  42
BRANCH  40  45
HETATM   45  C15 UNL     1      14.530  17.514   1.863  1.00  0.00     0.198 C 
HETATM   46  O6  UNL     1      13.849  16.528   1.501  1.00  0.00    -0.646 OA
HETATM   47  O7  UNL     1      15.156  17.501   3.079  1.00  0.00    -0.646 OA
ENDBRANCH  40  45
BRANCH  36  48
HETATM   48  O2  UNL     1      17.048  22.092   0.677  1.00  0.00    -0.311 OA
ATOM     49  H2  UNL     1      17.892  21.881   0.296  1.00  0.00     0.237 HD
ENDBRANCH  36  48
ENDBRANCH  32  33
ENDBRANCH  31  32
ENDBRANCH   3  31
BRANCH   5  50
HETATM   50  C18 UNL     1      12.390  22.382   7.585  1.00  0.00     0.262 C 
HETATM   51  N5  UNL     1      13.801  22.496   7.410  1.00  0.00    -0.060 NA
HETATM   52  O8  UNL     1      11.922  22.410   8.735  1.00  0.00    -0.275 OA
ENDBRANCH   5  50
TORSDOF 14
ENDMDL
MODEL 2
REMARK VINA RESULT: -10.255193786      2.384     11.196
REMARK  14 active torsions:
REMARK  status: ('A' for Active; 'I' for Inactive)
REMARK    1  A    between atoms: C1_4  and  C2_5 
REMARK    2  A    between atoms: C1_4  and  C19_42 
REMARK       I    between atoms: C2_5  and  N2_7 
REMARK    3  A    between atoms: C3_9  and  C4_10 
REMARK    4  A    between atoms: C4_10  and  S1_11 
REMARK    5  A    between atoms: S1_11  and  C5_12 
REMARK    6  A    between atoms: C7_14  and  S2_15 
REMARK    7  A    between atoms: S2_15  and  S3_16 
REMARK    8  A    between atoms: S3_16  and  C8_17 
REMARK    9  A    between atoms: N3_21  and  O2_22 
REMARK       I    between atoms: N4_24  and  C12_25 
REMARK   10  A    between atoms: C12_25  and  C13_27 
REMARK   11  A    between atoms: C14_30  and  C15_31 
REMARK   12  A    between atoms: C17_35  and  C18_36 
REMARK   13  A    between atoms: C20_43  and  O9_44 
REMARK   14  A    between atoms: N7_49  and  N8_50 
ROOT
HETATM    1  C5  UNL     1      11.126  21.511   5.384  1.00  0.00     0.249 C 
HETATM    2  C6  UNL     1      10.185  22.554   5.931  1.00  0.00     0.060 C 
HETATM    3  C7  UNL     1      10.077  22.354   7.446  1.00  0.00     0.064 C 
HETATM    4  C16 UNL     1      11.366  22.060   8.096  1.00  0.00     0.058 C 
HETATM    5  C17 UNL     1      12.420  21.380   7.299  1.00  0.00     0.276 C 
HETATM    6  N6  UNL     1      12.446  21.844   5.908  1.00  0.00    -0.050 N 
ATOM      7  H61 UNL     1      12.700  22.826   5.802  1.00  0.00     0.279 HD
ATOM      8  H62 UNL     1      13.218  21.467   5.358  1.00  0.00     0.279 HD
ENDROOT
BRANCH   1   9
HETATM    9  S1  UNL     1      11.015  21.416   3.619  1.00  0.00    -0.131 SA
BRANCH   9  10
HETATM   10  C4  UNL     1      12.182  20.322   2.859  1.00  0.00     0.120 C 
BRANCH  10  11
HETATM   11  C3  UNL     1      11.995  20.230   1.407  1.00  0.00     0.074 C 
HETATM   12  N2  UNL     1      12.998  20.029   0.595  1.00  0.00    -0.335 N 
HETATM   13  C2  UNL     1      14.306  19.903   1.250  1.00  0.00     0.273 C 
ATOM     14  H2  UNL     1      12.882  19.965  -0.417  1.00  0.00     0.168 HD
HETATM   15  O1  UNL     1      14.527  18.760   1.648  1.00  0.00    -0.266 OA
BRANCH  13  16
HETATM   16  C1  UNL     1      15.099  21.099   1.324  1.00  0.00     0.129 C 
HETATM   17  N1  UNL     1      14.513  22.144   0.846  1.00  0.00    -0.393 N 
ATOM     18  H12 UNL     1      13.573  22.044   0.464  1.00  0.00     0.156 HD
ATOM     19  H11 UNL     1      15.076  22.993   0.897  1.00  0.00     0.156 HD
BRANCH  16  20
HETATM   20  C19 UNL     1      16.453  21.244   1.874  1.00  0.00     0.151 A 
HETATM   21  C20 UNL     1      16.712  21.687   3.170  1.00  0.00     0.220 A 
HETATM   22  O10 UNL     1      18.028  21.694   3.310  1.00  0.00    -0.234 OA
HETATM   23  C21 UNL     1      18.598  21.306   2.247  1.00  0.00     0.393 A 
HETATM   24  O11 UNL     1      19.829  21.192   2.032  1.00  0.00    -0.236 OA
HETATM   25  N7  UNL     1      17.651  21.016   1.330  1.00  0.00    -0.198 N 
BRANCH  21  26
HETATM   26  O9  UNL     1      15.850  22.068   4.185  1.00  0.00    -0.339 OA
ATOM     27  H9  UNL     1      15.831  21.832   5.105  1.00  0.00     0.220 HD
ENDBRANCH  21  26
BRANCH  25  28
HETATM   28  N8  UNL     1      17.947  20.559   0.037  1.00  0.00    -0.334 N 
ATOM     29  H82 UNL     1      17.371  19.881  -0.462  1.00  0.00     0.177 HD
ATOM     30  H81 UNL     1      18.732  20.816  -0.561  1.00  0.00     0.177 HD
ENDBRANCH  25  28
ENDBRANCH  16  20
ENDBRANCH  13  16
ENDBRANCH  10  11
ENDBRANCH   9  10
ENDBRANCH   1   9
BRANCH   3  31
HETATM   31  S2  UNL     1       8.658  21.380   7.893  1.00  0.00    -0.092 SA
BRANCH  31  32
HETATM   32  S3  UNL     1       8.663  19.370   7.445  1.00  0.00    -0.088 SA
BRANCH  32  33
HETATM   33  C8  UNL     1       8.715  18.216   8.801  1.00  0.00     0.112 C 
HETATM   34  C9  UNL     1       9.569  17.030   8.686  1.00  0.00     0.108 C 
HETATM   35  C10 UNL     1       9.449  16.273  10.028  1.00  0.00     0.067 C 
HETATM   36  N3  UNL     1       8.956  15.889   8.060  1.00  0.00    -0.170 NA
HETATM   37  C11 UNL     1       8.311  15.622   9.347  1.00  0.00     0.191 C 
HETATM   38  N4  UNL     1       7.107  16.478   9.299  1.00  0.00    -0.308 N 
HETATM   39  C12 UNL     1       5.833  15.819   9.252  1.00  0.00     0.322 C 
HETATM   40  C14 UNL     1       7.333  17.881   9.311  1.00  0.00     0.206 C 
HETATM   41  O3  UNL     1       5.794  14.551   9.256  1.00  0.00    -0.261 OA
BRANCH  39  42
HETATM   42  C13 UNL     1       4.606  16.553   9.202  1.00  0.00     0.270 C 
HETATM   43  O4  UNL     1       4.104  17.271  10.092  1.00  0.00    -0.640 OA
HETATM   44  O5  UNL     1       3.868  16.452   7.983  1.00  0.00    -0.640 OA
ENDBRANCH  39  42
BRANCH  40  45
HETATM   45  C15 UNL     1       7.095  18.505  10.626  1.00  0.00     0.198 C 
HETATM   46  O6  UNL     1       6.448  19.576  10.682  1.00  0.00    -0.646 OA
HETATM   47  O7  UNL     1       7.569  17.934  11.775  1.00  0.00    -0.646 OA
ENDBRANCH  40  45
BRANCH  36  48
HETATM   48  O2  UNL     1       9.892  14.959   7.744  1.00  0.00    -0.311 OA
ATOM     49  H2  UNL     1       9.563  14.369   7.077  1.00  0.00     0.237 HD
ENDBRANCH  36  48
ENDBRANCH  32  33
ENDBRANCH  31  32
ENDBRANCH   3  31
BRANCH   5  50
HETATM   50  C18 UNL     1      13.738  21.675   7.950  1.00  0.00     0.262 C 
HETATM   51  N5  UNL     1      14.323  20.702   8.815  1.00  0.00    -0.060 NA
HETATM   52  O8  UNL     1      14.338  22.745   7.757  1.00  0.00    -0.275 OA
ENDBRANCH   5  50
TORSDOF 14
ENDMDL
MODEL 3
REMARK VINA RESULT: -10.251648342      1.647      3.065
REMARK  14 active torsions:
REMARK  status: ('A' for Active; 'I' for Inactive)
REMARK    1  A    between atoms: C1_4  and  C2_5 
REMARK    2  A    between atoms: C1_4  and  C19_42 
REMARK       I    between atoms: C2_5  and  N2_7 
REMARK    3  A    between atoms: C3_9  and  C4_10 
REMARK    4  A    between atoms: C4_10  and  S1_11 
REMARK    5  A    between atoms: S1_11  and  C5_12 
REMARK    6  A    between atoms: C7_14  and  S2_15 
REMARK    7  A    between atoms: S2_15  and  S3_16 
REMARK    8  A    between atoms: S3_16  and  C8_17 
REMARK    9  A    between atoms: N3_21  and  O2_22 
REMARK       I    between atoms: N4_24  and  C12_25 
REMARK   10  A    between atoms: C12_25  and  C13_27 
REMARK   11  A    between atoms: C14_30  and  C15_31 
REMARK   12  A    between atoms: C17_35  and  C18_36 
REMARK   13  A    between atoms: C20_43  and  O9_44 
REMARK   14  A    between atoms: N7_49  and  N8_50 
ROOT
HETATM    1  C5  UNL     1       9.755  21.402   5.246  1.00  0.00     0.249 C 
HETATM    2  C6  UNL     1      10.545  20.414   4.427  1.00  0.00     0.060 C 
HETATM    3  C7  UNL     1      11.948  20.989   4.206  1.00  0.00     0.064 C 
HETATM    4  C16 UNL     1      12.519  21.630   5.403  1.00  0.00     0.058 C 
HETATM    5  C17 UNL     1      11.587  22.222   6.398  1.00  0.00     0.276 C 
HETATM    6  N6  UNL     1      10.373  21.417   6.567  1.00  0.00    -0.050 N 
ATOM      7  H61 UNL     1      10.541  20.490   6.959  1.00  0.00     0.279 HD
ATOM      8  H62 UNL     1       9.757  21.745   7.311  1.00  0.00     0.279 HD
ENDROOT
BRANCH   1   9
HETATM    9  S1  UNL     1       8.027  21.010   5.225  1.00  0.00    -0.131 SA
BRANCH   9  10
HETATM   10  C4  UNL     1       7.378  20.437   6.769  1.00  0.00     0.120 C 
BRANCH  10  11
HETATM   11  C3  UNL     1       7.634  21.378   7.865  1.00  0.00     0.074 C 
HETATM   12  N2  UNL     1       7.901  20.969   9.077  1.00  0.00    -0.335 N 
HETATM   13  C2  UNL     1       7.924  19.511   9.243  1.00  0.00     0.273 C 
ATOM     14  H2  UNL     1       8.078  21.613   9.847  1.00  0.00     0.168 HD
HETATM   15  O1  UNL     1       9.010  19.018   8.943  1.00  0.00    -0.266 OA
BRANCH  13  16
HETATM   16  C1  UNL     1       6.709  18.904   9.715  1.00  0.00     0.129 C 
HETATM   17  N1  UNL     1       6.068  19.621  10.575  1.00  0.00    -0.393 N 
ATOM     18  H12 UNL     1       6.459  20.523  10.846  1.00  0.00     0.156 HD
ATOM     19  H11 UNL     1       5.206  19.191  10.910  1.00  0.00     0.156 HD
BRANCH  16  20
HETATM   20  C19 UNL     1       6.145  17.606   9.325  1.00  0.00     0.151 A 
HETATM   21  C20 UNL     1       4.807  17.262   9.513  1.00  0.00     0.220 A 
HETATM   22  O10 UNL     1       4.667  16.029   9.050  1.00  0.00    -0.234 OA
HETATM   23  C21 UNL     1       5.766  15.586   8.603  1.00  0.00     0.393 A 
HETATM   24  O11 UNL     1       5.992  14.461   8.094  1.00  0.00    -0.236 OA
HETATM   25  N7  UNL     1       6.711  16.538   8.756  1.00  0.00    -0.198 N 
BRANCH  21  26
HETATM   26  O9  UNL     1       3.757  17.979  10.059  1.00  0.00    -0.339 OA
ATOM     27  H9  UNL     1       3.466  18.066  10.959  1.00  0.00     0.220 HD
ENDBRANCH  21  26
BRANCH  25  28
HETATM   28  N8  UNL     1       8.047  16.367   8.363  1.00  0.00    -0.334 N 
ATOM     29  H82 UNL     1       8.502  15.456   8.314  1.00  0.00     0.177 HD
ATOM     30  H81 UNL     1       8.722  17.081   8.089  1.00  0.00     0.177 HD
ENDBRANCH  25  28
ENDBRANCH  16  20
ENDBRANCH  13  16
ENDBRANCH  10  11
ENDBRANCH   9  10
ENDBRANCH   1   9
BRANCH   3  31
HETATM   31  S2  UNL     1      12.089  21.826   2.643  1.00  0.00    -0.092 SA
BRANCH  31  32
HETATM   32  S3  UNL     1      13.964  22.088   1.834  1.00  0.00    -0.088 SA
BRANCH  32  33
HETATM   33  C8  UNL     1      14.750  20.677   1.081  1.00  0.00     0.112 C 
HETATM   34  C9  UNL     1      14.167  19.349   1.292  1.00  0.00     0.108 C 
HETATM   35  C10 UNL     1      15.023  18.359   0.470  1.00  0.00     0.067 C 
HETATM   36  N3  UNL     1      14.616  18.660   2.473  1.00  0.00    -0.170 NA
HETATM   37  C11 UNL     1      15.816  18.300   1.716  1.00  0.00     0.191 C 
HETATM   38  N4  UNL     1      16.688  19.480   1.895  1.00  0.00    -0.308 N 
HETATM   39  C12 UNL     1      17.893  19.298   2.654  1.00  0.00     0.322 C 
HETATM   40  C14 UNL     1      16.246  20.686   1.287  1.00  0.00     0.206 C 
HETATM   41  O3  UNL     1      18.156  18.151   3.129  1.00  0.00    -0.261 OA
BRANCH  39  42
HETATM   42  C13 UNL     1      18.806  20.374   2.889  1.00  0.00     0.270 C 
HETATM   43  O4  UNL     1      18.791  21.204   3.823  1.00  0.00    -0.640 OA
HETATM   44  O5  UNL     1      19.863  20.514   1.939  1.00  0.00    -0.640 OA
ENDBRANCH  39  42
BRANCH  40  45
HETATM   45  C15 UNL     1      16.946  21.003   0.028  1.00  0.00     0.198 C 
HETATM   46  O6  UNL     1      16.748  22.114  -0.514  1.00  0.00    -0.646 OA
HETATM   47  O7  UNL     1      17.800  20.105  -0.550  1.00  0.00    -0.646 OA
ENDBRANCH  40  45
BRANCH  36  48
HETATM   48  O2  UNL     1      13.823  17.590   2.731  1.00  0.00    -0.311 OA
ATOM     49  H2  UNL     1      14.346  16.805   2.841  1.00  0.00     0.237 HD
ENDBRANCH  36  48
ENDBRANCH  32  33
ENDBRANCH  31  32
ENDBRANCH   3  31
BRANCH   5  50
HETATM   50  C18 UNL     1      12.318  22.307   7.705  1.00  0.00     0.262 C 
HETATM   51  N5  UNL     1      13.744  22.356   7.706  1.00  0.00    -0.060 NA
HETATM   52  O8  UNL     1      11.715  22.336   8.790  1.00  0.00    -0.275 OA
ENDBRANCH   5  50
TORSDOF 14
ENDMDL
MODEL 4
REMARK VINA RESULT: -10.000882222      0.851      1.226
REMARK  14 active torsions:
REMARK  status: ('A' for Active; 'I' for Inactive)
REMARK    1  A    between atoms: C1_4  and  C2_5 
REMARK    2  A    between atoms: C1_4  and  C19_42 
REMARK       I    between atoms: C2_5  and  N2_7 
REMARK    3  A    between atoms: C3_9  and  C4_10 
REMARK    4  A    between atoms: C4_10  and  S1_11 
REMARK    5  A    between atoms: S1_11  and  C5_12 
REMARK    6  A    between atoms: C7_14  and  S2_15 
REMARK    7  A    between atoms: S2_15  and  S3_16 
REMARK    8  A    between atoms: S3_16  and  C8_17 
REMARK    9  A    between atoms: N3_21  and  O2_22 
REMARK       I    between atoms: N4_24  and  C12_25 
REMARK   10  A    between atoms: C12_25  and  C13_27 
REMARK   11  A    between atoms: C14_30  and  C15_31 
REMARK   12  A    between atoms: C17_35  and  C18_36 
REMARK   13  A    between atoms: C20_43  and  O9_44 
REMARK   14  A    between atoms: N7_49  and  N8_50 
ROOT
HETATM    1  C5  UNL     1       9.529  21.483   5.499  1.00  0.00     0.249 C 
HETATM    2  C6  UNL     1      10.158  20.375   4.695  1.00  0.00     0.060 C 
HETATM    3  C7  UNL     1      11.564  20.821   4.282  1.00  0.00     0.064 C 
HETATM    4  C16 UNL     1      12.303  21.512   5.354  1.00  0.00     0.058 C 
HETATM    5  C17 UNL     1      11.526  22.252   6.382  1.00  0.00     0.276 C 
HETATM    6  N6  UNL     1      10.286  21.557   6.744  1.00  0.00    -0.050 N 
ATOM      7  H61 UNL     1      10.432  20.655   7.197  1.00  0.00     0.279 HD
ATOM      8  H62 UNL     1       9.777  21.990   7.515  1.00  0.00     0.279 HD
ENDROOT
BRANCH   1   9
HETATM    9  S1  UNL     1       7.787  21.223   5.689  1.00  0.00    -0.131 SA
BRANCH   9  10
HETATM   10  C4  UNL     1       7.313  20.454   7.211  1.00  0.00     0.120 C 
BRANCH  10  11
HETATM   11  C3  UNL     1       7.782  21.203   8.383  1.00  0.00     0.074 C 
HETATM   12  N2  UNL     1       8.157  20.601   9.480  1.00  0.00    -0.335 N 
HETATM   13  C2  UNL     1       8.073  19.136   9.439  1.00  0.00     0.273 C 
ATOM     14  H2  UNL     1       8.482  21.110  10.302  1.00  0.00     0.168 HD
HETATM   15  O1  UNL     1       9.067  18.619   8.932  1.00  0.00    -0.266 OA
BRANCH  13  16
HETATM   16  C1  UNL     1       6.876  18.552   9.980  1.00  0.00     0.129 C 
HETATM   17  N1  UNL     1       6.000  19.417  10.365  1.00  0.00    -0.393 N 
ATOM     18  H12 UNL     1       6.218  20.408  10.264  1.00  0.00     0.156 HD
ATOM     19  H11 UNL     1       5.151  19.003  10.749  1.00  0.00     0.156 HD
BRANCH  16  20
HETATM   20  C19 UNL     1       6.562  17.124  10.125  1.00  0.00     0.151 A 
HETATM   21  C20 UNL     1       7.275  16.262  10.956  1.00  0.00     0.220 A 
HETATM   22  O10 UNL     1       6.717  15.068  10.828  1.00  0.00    -0.234 OA
HETATM   23  C21 UNL     1       5.747  15.108  10.014  1.00  0.00     0.393 A 
HETATM   24  O11 UNL     1       5.000  14.162   9.661  1.00  0.00    -0.236 OA
HETATM   25  N7  UNL     1       5.619  16.371   9.555  1.00  0.00    -0.198 N 
BRANCH  21  26
HETATM   26  O9  UNL     1       8.358  16.495  11.787  1.00  0.00    -0.339 OA
ATOM     27  H9  UNL     1       8.405  16.890  12.650  1.00  0.00     0.220 HD
ENDBRANCH  21  26
BRANCH  25  28
HETATM   28  N8  UNL     1       4.637  16.757   8.630  1.00  0.00    -0.334 N 
ATOM     29  H82 UNL     1       4.227  17.691   8.608  1.00  0.00     0.177 HD
ATOM     30  H81 UNL     1       4.209  16.200   7.891  1.00  0.00     0.177 HD
ENDBRANCH  25  28
ENDBRANCH  16  20
ENDBRANCH  13  16
ENDBRANCH  10  11
ENDBRANCH   9  10
ENDBRANCH   1   9
BRANCH   3  31
HETATM   31  S2  UNL     1      11.592  21.517   2.645  1.00  0.00    -0.092 SA
BRANCH  31  32
HETATM   32  S3  UNL     1      12.746  20.600   1.207  1.00  0.00    -0.088 SA
BRANCH  32  33
HETATM   33  C8  UNL     1      14.322  19.933   1.706  1.00  0.00     0.112 C 
HETATM   34  C9  UNL     1      15.471  20.837   1.806  1.00  0.00     0.108 C 
HETATM   35  C10 UNL     1      16.656  19.985   2.316  1.00  0.00     0.067 C 
HETATM   36  N3  UNL     1      16.213  21.026   0.588  1.00  0.00    -0.170 NA
HETATM   37  C11 UNL     1      16.863  19.746   0.873  1.00  0.00     0.191 C 
HETATM   38  N4  UNL     1      15.915  18.760   0.314  1.00  0.00    -0.308 N 
HETATM   39  C12 UNL     1      16.351  17.997  -0.821  1.00  0.00     0.322 C 
HETATM   40  C14 UNL     1      14.656  18.660   0.966  1.00  0.00     0.206 C 
HETATM   41  O3  UNL     1      17.515  18.196  -1.287  1.00  0.00    -0.261 OA
BRANCH  39  42
HETATM   42  C13 UNL     1      15.511  17.018  -1.440  1.00  0.00     0.270 C 
HETATM   43  O4  UNL     1      14.629  17.200  -2.305  1.00  0.00    -0.640 OA
HETATM   44  O5  UNL     1      15.709  15.669  -1.016  1.00  0.00    -0.640 OA
ENDBRANCH  39  42
BRANCH  40  45
HETATM   45  C15 UNL     1      14.545  17.491   1.859  1.00  0.00     0.198 C 
HETATM   46  O6  UNL     1      13.864  16.507   1.490  1.00  0.00    -0.646 OA
HETATM   47  O7  UNL     1      15.171  17.469   3.074  1.00  0.00    -0.646 OA
ENDBRANCH  40  45
BRANCH  36  48
HETATM   48  O2  UNL     1      17.061  22.078   0.705  1.00  0.00    -0.311 OA
ATOM     49  H2  UNL     1      16.586  22.898   0.648  1.00  0.00     0.237 HD
ENDBRANCH  36  48
ENDBRANCH  32  33
ENDBRANCH  31  32
ENDBRANCH   3  31
BRANCH   5  50
HETATM   50  C18 UNL     1      12.398  22.386   7.595  1.00  0.00     0.262 C 
HETATM   51  N5  UNL     1      13.804  22.561   7.429  1.00  0.00    -0.060 NA
HETATM   52  O8  UNL     1      11.928  22.349   8.745  1.00  0.00    -0.275 OA
ENDBRANCH   5  50
TORSDOF 14
ENDMDL
MODEL 5
REMARK VINA RESULT: -9.955338416      1.470      1.874
REMARK  14 active torsions:
REMARK  status: ('A' for Active; 'I' for Inactive)
REMARK    1  A    between atoms: C1_4  and  C2_5 
REMARK    2  A    between atoms: C1_4  and  C19_42 
REMARK       I    between atoms: C2_5  and  N2_7 
REMARK    3  A    between atoms: C3_9  and  C4_10 
REMARK    4  A    between atoms: C4_10  and  S1_11 
REMARK    5  A    between atoms: S1_11  and  C5_12 
REMARK    6  A    between atoms: C7_14  and  S2_15 
REMARK    7  A    between atoms: S2_15  and  S3_16 
REMARK    8  A    between atoms: S3_16  and  C8_17 
REMARK    9  A    between atoms: N3_21  and  O2_22 
REMARK       I    between atoms: N4_24  and  C12_25 
REMARK   10  A    between atoms: C12_25  and  C13_27 
REMARK   11  A    between atoms: C14_30  and  C15_31 
REMARK   12  A    between atoms: C17_35  and  C18_36 
REMARK   13  A    between atoms: C20_43  and  O9_44 
REMARK   14  A    between atoms: N7_49  and  N8_50 
ROOT
HETATM    1  C5  UNL     1      10.204  21.274   4.924  1.00  0.00     0.249 C 
HETATM    2  C6  UNL     1      11.151  20.399   4.143  1.00  0.00     0.060 C 
HETATM    3  C7  UNL     1      12.497  21.124   4.040  1.00  0.00     0.064 C 
HETATM    4  C16 UNL     1      12.910  21.783   5.291  1.00  0.00     0.058 C 
HETATM    5  C17 UNL     1      11.852  22.244   6.228  1.00  0.00     0.276 C 
HETATM    6  N6  UNL     1      10.722  21.311   6.288  1.00  0.00    -0.050 N 
ATOM      7  H61 UNL     1      10.959  20.395   6.669  1.00  0.00     0.279 HD
ATOM      8  H62 UNL     1      10.023  21.550   6.992  1.00  0.00     0.279 HD
ENDROOT
BRANCH   1   9
HETATM    9  S1  UNL     1       8.534  20.704   4.766  1.00  0.00    -0.131 SA
BRANCH   9  10
HETATM   10  C4  UNL     1       7.771  20.213   6.286  1.00  0.00     0.120 C 
BRANCH  10  11
HETATM   11  C3  UNL     1       7.099  21.330   6.959  1.00  0.00     0.074 C 
HETATM   12  N2  UNL     1       7.128  21.470   8.257  1.00  0.00    -0.335 N 
HETATM   13  C2  UNL     1       7.880  20.432   8.972  1.00  0.00     0.273 C 
ATOM     14  H2  UNL     1       6.664  22.241   8.737  1.00  0.00     0.168 HD
HETATM   15  O1  UNL     1       9.086  20.668   9.019  1.00  0.00    -0.266 OA
BRANCH  13  16
HETATM   16  C1  UNL     1       7.112  19.332   9.490  1.00  0.00     0.129 C 
HETATM   17  N1  UNL     1       6.275  19.669  10.412  1.00  0.00    -0.393 N 
ATOM     18  H12 UNL     1       6.229  20.647  10.695  1.00  0.00     0.156 HD
ATOM     19  H11 UNL     1       5.730  18.889  10.780  1.00  0.00     0.156 HD
BRANCH  16  20
HETATM   20  C19 UNL     1       7.178  17.923   9.083  1.00  0.00     0.151 A 
HETATM   21  C20 UNL     1       8.364  17.190   9.043  1.00  0.00     0.220 A 
HETATM   22  O10 UNL     1       8.041  15.974   8.631  1.00  0.00    -0.234 OA
HETATM   23  C21 UNL     1       6.796  15.885   8.416  1.00  0.00     0.393 A 
HETATM   24  O11 UNL     1       6.153  14.882   8.020  1.00  0.00    -0.236 OA
HETATM   25  N7  UNL     1       6.224  17.077   8.686  1.00  0.00    -0.198 N 
BRANCH  21  26
HETATM   26  O9  UNL     1       9.664  17.555   9.348  1.00  0.00    -0.339 OA
ATOM     27  H9  UNL     1      10.307  17.146   9.914  1.00  0.00     0.220 HD
ENDBRANCH  21  26
BRANCH  25  28
HETATM   28  N8  UNL     1       4.849  17.320   8.549  1.00  0.00    -0.334 N 
ATOM     29  H82 UNL     1       4.470  18.121   8.044  1.00  0.00     0.177 HD
ATOM     30  H81 UNL     1       4.070  16.771   8.911  1.00  0.00     0.177 HD
ENDBRANCH  25  28
ENDBRANCH  16  20
ENDBRANCH  13  16
ENDBRANCH  10  11
ENDBRANCH   9  10
ENDBRANCH   1   9
BRANCH   3  31
HETATM   31  S2  UNL     1      12.660  22.020   2.513  1.00  0.00    -0.092 SA
BRANCH  31  32
HETATM   32  S3  UNL     1      14.147  21.466   1.201  1.00  0.00    -0.088 SA
BRANCH  32  33
HETATM   33  C8  UNL     1      15.311  20.228   1.739  1.00  0.00     0.112 C 
HETATM   34  C9  UNL     1      16.671  20.644   2.090  1.00  0.00     0.108 C 
HETATM   35  C10 UNL     1      17.408  19.374   2.572  1.00  0.00     0.067 C 
HETATM   36  N3  UNL     1      17.603  20.693   0.995  1.00  0.00    -0.170 NA
HETATM   37  C11 UNL     1      17.730  19.241   1.136  1.00  0.00     0.191 C 
HETATM   38  N4  UNL     1      16.595  18.729   0.340  1.00  0.00    -0.308 N 
HETATM   39  C12 UNL     1      16.907  17.995  -0.854  1.00  0.00     0.322 C 
HETATM   40  C14 UNL     1      15.296  19.012   0.842  1.00  0.00     0.206 C 
HETATM   41  O3  UNL     1      18.123  17.817  -1.168  1.00  0.00    -0.261 OA
BRANCH  39  42
HETATM   42  C13 UNL     1      15.884  17.458  -1.697  1.00  0.00     0.270 C 
HETATM   43  O4  UNL     1      14.991  16.639  -1.395  1.00  0.00    -0.640 OA
HETATM   44  O5  UNL     1      15.887  17.916  -3.050  1.00  0.00    -0.640 OA
ENDBRANCH  39  42
BRANCH  40  45
HETATM   45  C15 UNL     1      14.665  17.867   1.525  1.00  0.00     0.198 C 
HETATM   46  O6  UNL     1      13.425  17.869   1.696  1.00  0.00    -0.646 OA
HETATM   47  O7  UNL     1      15.413  16.812   1.970  1.00  0.00    -0.646 OA
ENDBRANCH  40  45
BRANCH  36  48
HETATM   48  O2  UNL     1      18.732  21.352   1.358  1.00  0.00    -0.311 OA
ATOM     49  H2  UNL     1      18.812  22.166   0.877  1.00  0.00     0.237 HD
ENDBRANCH  36  48
ENDBRANCH  32  33
ENDBRANCH  31  32
ENDBRANCH   3  31
BRANCH   5  50
HETATM   50  C18 UNL     1      12.475  22.364   7.587  1.00  0.00     0.262 C 
HETATM   51  N5  UNL     1      13.897  22.350   7.708  1.00  0.00    -0.060 NA
HETATM   52  O8  UNL     1      11.786  22.474   8.615  1.00  0.00    -0.275 OA
ENDBRANCH   5  50
TORSDOF 14
ENDMDL
