MODEL 1
REMARK VINA RESULT: -7.493267292      0.000      0.000
REMARK  3 active torsions:
REMARK  status: ('A' for Active; 'I' for Inactive)
REMARK    1  A    between atoms: N1_1  and  C1_4 
REMARK    2  A    between atoms: C5_10  and  S1_11 
REMARK    3  A    between atoms: S1_11  and  N3_14 
ROOT
HETATM    1  C1  UNL     1      18.750  66.904  36.843  1.00  0.00     0.125 A 
HETATM    2  C2  UNL     1      17.432  66.753  37.269  1.00  0.00     0.067 A 
HETATM    3  C3  UNL     1      16.441  66.902  36.333  1.00  0.00     0.093 A 
HETATM    4  N2  UNL     1      16.739  67.181  35.050  1.00  0.00    -0.348 N 
ATOM      5  H2  UNL     1      15.983  67.284  34.373  1.00  0.00     0.167 HD
HETATM    6  C4  UNL     1      18.009  67.325  34.645  1.00  0.00     0.172 A 
HETATM    7  C5  UNL     1      18.605  67.602  33.444  1.00  0.00     0.211 A 
HETATM    8  N6  UNL     1      19.928  67.615  33.680  1.00  0.00    -0.270 N 
ATOM      9  H6  UNL     1      20.641  67.796  32.974  1.00  0.00     0.189 HD
HETATM   10  N7  UNL     1      20.177  67.363  34.950  1.00  0.00    -0.232 N 
ATOM     11  H7  UNL     1      21.098  67.315  35.388  1.00  0.00     0.209 HD
HETATM   12  N8  UNL     1      19.015  67.184  35.551  1.00  0.00    -0.207 N 
ENDROOT
BRANCH   7  13
HETATM   13  S1  UNL     1      17.824  67.885  31.909  1.00  0.00     0.285 S 
HETATM   14  O1  UNL     1      18.740  67.509  30.773  1.00  0.00    -0.198 OA
HETATM   15  O2  UNL     1      16.604  67.006  31.785  1.00  0.00    -0.198 OA
BRANCH  13  16
HETATM   16  N3  UNL     1      17.280  69.516  31.769  1.00  0.00    -0.255 N 
HETATM   17  C6  UNL     1      16.782  70.004  30.705  1.00  0.00     0.210 C 
HETATM   18  N4  UNL     1      16.366  71.348  30.688  1.00  0.00    -0.066 NA
HETATM   19  N5  UNL     1      16.648  69.206  29.557  1.00  0.00    -0.066 NA
ATOM     20  H3  UNL     1      17.362  70.122  32.585  1.00  0.00     0.181 HD
ENDBRANCH  13  16
ENDBRANCH   7  13
BRANCH   1  21
HETATM   21  N1  UNL     1      19.708  66.773  37.686  1.00  0.00    -0.384 N 
ATOM     22  H12 UNL     1      20.606  66.392  37.390  1.00  0.00     0.157 HD
ATOM     23  H11 UNL     1      19.565  67.052  38.657  1.00  0.00     0.157 HD
ENDBRANCH   1  21
TORSDOF 3
ENDMDL
MODEL 2
REMARK VINA RESULT: -7.201932792      1.641      1.857
REMARK  3 active torsions:
REMARK  status: ('A' for Active; 'I' for Inactive)
REMARK    1  A    between atoms: N1_1  and  C1_4 
REMARK    2  A    between atoms: C5_10  and  S1_11 
REMARK    3  A    between atoms: S1_11  and  N3_14 
ROOT
HETATM    1  C1  UNL     1      18.650  66.402  36.523  1.00  0.00     0.125 A 
HETATM    2  C2  UNL     1      17.673  65.992  37.429  1.00  0.00     0.067 A 
HETATM    3  C3  UNL     1      16.371  66.321  37.151  1.00  0.00     0.093 A 
HETATM    4  N2  UNL     1      16.055  67.012  36.041  1.00  0.00    -0.348 N 
ATOM      5  H2  UNL     1      15.078  67.241  35.857  1.00  0.00     0.167 HD
HETATM    6  C4  UNL     1      16.997  67.404  35.172  1.00  0.00     0.172 A 
HETATM    7  C5  UNL     1      16.983  68.098  33.992  1.00  0.00     0.211 A 
HETATM    8  N6  UNL     1      18.263  68.174  33.589  1.00  0.00    -0.270 N 
ATOM      9  H6  UNL     1      18.575  68.636  32.736  1.00  0.00     0.189 HD
HETATM   10  N7  UNL     1      19.058  67.569  34.449  1.00  0.00    -0.232 N 
ATOM     11  H7  UNL     1      20.073  67.483  34.377  1.00  0.00     0.209 HD
HETATM   12  N8  UNL     1      18.300  67.094  35.420  1.00  0.00    -0.207 N 
ENDROOT
BRANCH   7  13
HETATM   13  S1  UNL     1      15.596  68.760  33.165  1.00  0.00     0.285 S 
HETATM   14  O1  UNL     1      14.875  67.683  32.395  1.00  0.00    -0.198 OA
HETATM   15  O2  UNL     1      14.609  69.301  34.170  1.00  0.00    -0.198 OA
BRANCH  13  16
HETATM   16  N3  UNL     1      16.040  70.077  32.142  1.00  0.00    -0.255 N 
HETATM   17  C6  UNL     1      16.663  69.937  31.042  1.00  0.00     0.210 C 
HETATM   18  N4  UNL     1      16.982  71.073  30.277  1.00  0.00    -0.066 NA
HETATM   19  N5  UNL     1      17.031  68.656  30.596  1.00  0.00    -0.066 NA
ATOM     20  H3  UNL     1      15.788  71.020  32.436  1.00  0.00     0.181 HD
ENDBRANCH  13  16
ENDBRANCH   7  13
BRANCH   1  21
HETATM   21  N1  UNL     1      19.880  66.117  36.745  1.00  0.00    -0.384 N 
ATOM     22  H12 UNL     1      20.130  65.248  37.218  1.00  0.00     0.157 HD
ATOM     23  H11 UNL     1      20.609  66.764  36.446  1.00  0.00     0.157 HD
ENDBRANCH   1  21
TORSDOF 3
ENDMDL
MODEL 3
REMARK VINA RESULT: -7.055572308      3.169      5.822
REMARK  3 active torsions:
REMARK  status: ('A' for Active; 'I' for Inactive)
REMARK    1  A    between atoms: N1_1  and  C1_4 
REMARK    2  A    between atoms: C5_10  and  S1_11 
REMARK    3  A    between atoms: S1_11  and  N3_14 
ROOT
HETATM    1  C1  UNL     1      17.436  68.443  32.326  1.00  0.00     0.125 A 
HETATM    2  C2  UNL     1      16.071  68.597  32.564  1.00  0.00     0.067 A 
HETATM    3  C3  UNL     1      15.593  68.213  33.791  1.00  0.00     0.093 A 
HETATM    4  N2  UNL     1      16.418  67.708  34.726  1.00  0.00    -0.348 N 
ATOM      5  H2  UNL     1      16.037  67.432  35.631  1.00  0.00     0.167 HD
HETATM    6  C4  UNL     1      17.730  67.562  34.493  1.00  0.00     0.172 A 
HETATM    7  C5  UNL     1      18.786  67.093  35.226  1.00  0.00     0.211 A 
HETATM    8  N6  UNL     1      19.867  67.202  34.435  1.00  0.00    -0.270 N 
ATOM      9  H6  UNL     1      20.812  66.930  34.703  1.00  0.00     0.189 HD
HETATM   10  N7  UNL     1      19.536  67.710  33.263  1.00  0.00    -0.232 N 
ATOM     11  H7  UNL     1      20.169  67.894  32.484  1.00  0.00     0.209 HD
HETATM   12  N8  UNL     1      18.235  67.934  33.285  1.00  0.00    -0.207 N 
ENDROOT
BRANCH   7  13
HETATM   13  S1  UNL     1      18.757  66.474  36.858  1.00  0.00     0.285 S 
HETATM   14  O1  UNL     1      19.474  65.150  36.934  1.00  0.00    -0.198 OA
HETATM   15  O2  UNL     1      19.497  67.414  37.777  1.00  0.00    -0.198 OA
BRANCH  13  16
HETATM   16  N3  UNL     1      17.145  66.353  37.459  1.00  0.00    -0.255 N 
HETATM   17  C6  UNL     1      16.835  65.745  38.532  1.00  0.00     0.210 C 
HETATM   18  N4  UNL     1      15.490  65.701  38.941  1.00  0.00    -0.066 NA
HETATM   19  N5  UNL     1      17.831  65.121  39.303  1.00  0.00    -0.066 NA
ATOM     20  H3  UNL     1      16.398  66.796  36.924  1.00  0.00     0.181 HD
ENDBRANCH  13  16
ENDBRANCH   7  13
BRANCH   1  21
HETATM   21  N1  UNL     1      17.924  68.790  31.192  1.00  0.00    -0.384 N 
ATOM     22  H12 UNL     1      17.797  69.741  30.845  1.00  0.00     0.157 HD
ATOM     23  H11 UNL     1      18.441  68.108  30.637  1.00  0.00     0.157 HD
ENDBRANCH   1  21
TORSDOF 3
ENDMDL
MODEL 4
REMARK VINA RESULT: -7.001463853      1.067      1.320
REMARK  3 active torsions:
REMARK  status: ('A' for Active; 'I' for Inactive)
REMARK    1  A    between atoms: N1_1  and  C1_4 
REMARK    2  A    between atoms: C5_10  and  S1_11 
REMARK    3  A    between atoms: S1_11  and  N3_14 
ROOT
HETATM    1  C1  UNL     1      18.845  66.849  36.997  1.00  0.00     0.125 A 
HETATM    2  C2  UNL     1      17.559  66.654  37.499  1.00  0.00     0.067 A 
HETATM    3  C3  UNL     1      16.510  66.792  36.628  1.00  0.00     0.093 A 
HETATM    4  N2  UNL     1      16.721  67.103  35.335  1.00  0.00    -0.348 N 
ATOM      5  H2  UNL     1      15.923  67.198  34.708  1.00  0.00     0.167 HD
HETATM    6  C4  UNL     1      17.959  67.290  34.857  1.00  0.00     0.172 A 
HETATM    7  C5  UNL     1      18.473  67.605  33.628  1.00  0.00     0.211 A 
HETATM    8  N6  UNL     1      19.808  67.651  33.783  1.00  0.00    -0.270 N 
ATOM      9  H6  UNL     1      20.471  67.864  33.039  1.00  0.00     0.189 HD
HETATM   10  N7  UNL     1      20.141  67.382  35.031  1.00  0.00    -0.232 N 
ATOM     11  H7  UNL     1      21.087  67.352  35.410  1.00  0.00     0.209 HD
HETATM   12  N8  UNL     1      19.023  67.160  35.697  1.00  0.00    -0.207 N 
ENDROOT
BRANCH   7  13
HETATM   13  S1  UNL     1      17.593  67.895  32.149  1.00  0.00     0.285 S 
HETATM   14  O1  UNL     1      18.490  67.704  30.953  1.00  0.00    -0.198 OA
HETATM   15  O2  UNL     1      16.477  66.889  32.012  1.00  0.00    -0.198 OA
BRANCH  13  16
HETATM   16  N3  UNL     1      16.861  69.457  32.146  1.00  0.00    -0.255 N 
HETATM   17  C6  UNL     1      15.770  69.726  32.744  1.00  0.00     0.210 C 
HETATM   18  N4  UNL     1      15.251  71.032  32.683  1.00  0.00    -0.066 NA
HETATM   19  N5  UNL     1      15.091  68.725  33.459  1.00  0.00    -0.066 NA
ATOM     20  H3  UNL     1      17.328  70.206  31.636  1.00  0.00     0.181 HD
ENDBRANCH  13  16
ENDBRANCH   7  13
BRANCH   1  21
HETATM   21  N1  UNL     1      19.855  66.729  37.778  1.00  0.00    -0.384 N 
ATOM     22  H12 UNL     1      20.556  66.008  37.607  1.00  0.00     0.157 HD
ATOM     23  H11 UNL     1      19.954  67.360  38.574  1.00  0.00     0.157 HD
ENDBRANCH   1  21
TORSDOF 3
ENDMDL
MODEL 5
REMARK VINA RESULT: -6.853714593      1.039      1.199
REMARK  3 active torsions:
REMARK  status: ('A' for Active; 'I' for Inactive)
REMARK    1  A    between atoms: N1_1  and  C1_4 
REMARK    2  A    between atoms: C5_10  and  S1_11 
REMARK    3  A    between atoms: S1_11  and  N3_14 
ROOT
HETATM    1  C1  UNL     1      18.574  67.201  35.809  1.00  0.00     0.125 A 
HETATM    2  C2  UNL     1      17.252  67.139  36.245  1.00  0.00     0.067 A 
HETATM    3  C3  UNL     1      16.265  67.257  35.300  1.00  0.00     0.093 A 
HETATM    4  N2  UNL     1      16.571  67.423  34.000  1.00  0.00    -0.348 N 
ATOM      5  H2  UNL     1      15.818  67.505  33.316  1.00  0.00     0.167 HD
HETATM    6  C4  UNL     1      17.844  67.481  33.585  1.00  0.00     0.172 A 
HETATM    7  C5  UNL     1      18.448  67.639  32.367  1.00  0.00     0.211 A 
HETATM    8  N6  UNL     1      19.771  67.615  32.601  1.00  0.00    -0.270 N 
ATOM      9  H6  UNL     1      20.489  67.710  31.883  1.00  0.00     0.189 HD
HETATM   10  N7  UNL     1      20.014  67.452  33.887  1.00  0.00    -0.232 N 
ATOM     11  H7  UNL     1      20.933  67.399  34.327  1.00  0.00     0.209 HD
HETATM   12  N8  UNL     1      18.847  67.369  34.500  1.00  0.00    -0.207 N 
ENDROOT
BRANCH   7  13
HETATM   13  S1  UNL     1      17.676  67.835  30.814  1.00  0.00     0.285 S 
HETATM   14  O1  UNL     1      18.527  67.241  29.721  1.00  0.00    -0.198 OA
HETATM   15  O2  UNL     1      16.367  67.083  30.793  1.00  0.00    -0.198 OA
BRANCH  13  16
HETATM   16  N3  UNL     1      17.305  69.489  30.497  1.00  0.00    -0.255 N 
HETATM   17  C6  UNL     1      16.322  70.105  31.020  1.00  0.00     0.210 C 
HETATM   18  N4  UNL     1      16.101  71.456  30.700  1.00  0.00    -0.066 NA
HETATM   19  N5  UNL     1      15.464  69.438  31.911  1.00  0.00    -0.066 NA
ATOM     20  H3  UNL     1      17.908  70.003  29.855  1.00  0.00     0.181 HD
ENDBRANCH  13  16
ENDBRANCH   7  13
BRANCH   1  21
HETATM   21  N1  UNL     1      19.527  67.096  36.660  1.00  0.00    -0.384 N 
ATOM     22  H12 UNL     1      19.344  66.737  37.597  1.00  0.00     0.157 HD
ATOM     23  H11 UNL     1      20.472  67.375  36.396  1.00  0.00     0.157 HD
ENDBRANCH   1  21
TORSDOF 3
ENDMDL
