MODEL 1
REMARK VINA RESULT: -7.039806181      0.000      0.000
REMARK  4 active torsions:
REMARK  status: ('A' for Active; 'I' for Inactive)
REMARK    1  A    between atoms: N4_12  and  C5_13 
REMARK    2  A    between atoms: C5_13  and  C6_14 
REMARK    3  A    between atoms: C7_17  and  N6_18 
REMARK       I    between atoms: N6_18  and  C8_20 
REMARK       I    between atoms: C8_20  and  N7_22 
REMARK    4  A    between atoms: N7_22  and  N8_24 
ROOT
HETATM    1  N1  UNL     1      20.271  67.961  35.385  1.00  0.00    -0.234 N 
ATOM      2  H11 UNL     1      20.052  68.300  34.449  1.00  0.00     0.174 HD
ATOM      3  H12 UNL     1      21.268  68.139  35.514  1.00  0.00     0.174 HD
HETATM    4  C1  UNL     1      19.450  67.422  36.222  1.00  0.00     0.698 A 
HETATM    5  N2  UNL     1      19.745  66.967  37.478  1.00  0.00    -0.198 N 
ATOM      6  H2  UNL     1      20.664  66.998  37.918  1.00  0.00     0.183 HD
HETATM    7  C2  UNL     1      18.631  66.476  38.036  1.00  0.00     0.156 A 
HETATM    8  C3  UNL     1      17.599  66.619  37.116  1.00  0.00     0.164 A 
HETATM    9  N3  UNL     1      16.300  66.280  37.211  1.00  0.00    -0.335 N 
ATOM     10  H3  UNL     1      15.926  65.843  38.054  1.00  0.00     0.168 HD
HETATM   11  C4  UNL     1      15.522  66.536  36.161  1.00  0.00     0.203 A 
HETATM   12  N4  UNL     1      16.018  67.121  35.033  1.00  0.00    -0.170 N 
HETATM   13  C7  UNL     1      17.317  67.457  34.950  1.00  0.00     0.712 A 
HETATM   14  N9  UNL     1      18.134  67.187  36.052  1.00  0.00     0.040 N 
ENDROOT
BRANCH  13  15
HETATM   15  N6  UNL     1      17.863  67.994  33.999  1.00  0.00    -0.139 N 
HETATM   16  C8  UNL     1      17.805  68.322  32.707  1.00  0.00     0.352 C 
HETATM   17  O2  UNL     1      18.178  67.512  31.775  1.00  0.00    -0.245 OA
HETATM   18  N7  UNL     1      17.336  69.588  32.203  1.00  0.00    -0.258 N 
ATOM     19  H7  UNL     1      17.017  70.303  32.855  1.00  0.00     0.191 HD
ATOM     20  H6  UNL     1      18.757  68.345  34.343  1.00  0.00     0.189 HD
BRANCH  18  21
HETATM   21  N8  UNL     1      17.313  69.845  30.836  1.00  0.00    -0.341 N 
ATOM     22  H82 UNL     1      18.197  70.022  30.357  1.00  0.00     0.177 HD
ATOM     23  H81 UNL     1      16.432  69.857  30.321  1.00  0.00     0.177 HD
ENDBRANCH  18  21
ENDBRANCH  13  15
BRANCH  12  24
HETATM   24  C5  UNL     1      15.055  67.323  33.964  1.00  0.00     0.247 C 
BRANCH  24  25
HETATM   25  C6  UNL     1      14.311  68.604  34.149  1.00  0.00     0.249 C 
HETATM   26  N5  UNL     1      12.984  68.657  34.602  1.00  0.00    -0.061 NA
HETATM   27  O1  UNL     1      14.911  69.677  33.883  1.00  0.00    -0.275 OA
ENDBRANCH  24  25
ENDBRANCH  12  24
TORSDOF 4
ENDMDL
MODEL 2
REMARK VINA RESULT: -6.976165902      0.980      1.000
REMARK  4 active torsions:
REMARK  status: ('A' for Active; 'I' for Inactive)
REMARK    1  A    between atoms: N4_12  and  C5_13 
REMARK    2  A    between atoms: C5_13  and  C6_14 
REMARK    3  A    between atoms: C7_17  and  N6_18 
REMARK       I    between atoms: N6_18  and  C8_20 
REMARK       I    between atoms: C8_20  and  N7_22 
REMARK    4  A    between atoms: N7_22  and  N8_24 
ROOT
HETATM    1  N1  UNL     1      20.273  67.785  35.301  1.00  0.00    -0.234 N 
ATOM      2  H11 UNL     1      20.071  68.119  34.360  1.00  0.00     0.174 HD
ATOM      3  H12 UNL     1      21.279  67.903  35.424  1.00  0.00     0.174 HD
HETATM    4  C1  UNL     1      19.424  67.312  36.150  1.00  0.00     0.698 A 
HETATM    5  N2  UNL     1      19.695  66.865  37.414  1.00  0.00    -0.198 N 
ATOM      6  H2  UNL     1      20.616  66.848  37.851  1.00  0.00     0.183 HD
HETATM    7  C2  UNL     1      18.555  66.453  37.985  1.00  0.00     0.156 A 
HETATM    8  C3  UNL     1      17.530  66.642  37.065  1.00  0.00     0.164 A 
HETATM    9  N3  UNL     1      16.213  66.385  37.169  1.00  0.00    -0.335 N 
ATOM     10  H3  UNL     1      15.817  65.988  38.022  1.00  0.00     0.168 HD
HETATM   11  C4  UNL     1      15.449  66.668  36.117  1.00  0.00     0.203 A 
HETATM   12  N4  UNL     1      15.975  67.200  34.977  1.00  0.00    -0.170 N 
HETATM   13  C7  UNL     1      17.292  67.454  34.884  1.00  0.00     0.712 A 
HETATM   14  N9  UNL     1      18.095  67.156  35.989  1.00  0.00     0.040 N 
ENDROOT
BRANCH  13  15
HETATM   15  N6  UNL     1      17.866  67.938  33.921  1.00  0.00    -0.139 N 
HETATM   16  C8  UNL     1      18.209  67.815  32.638  1.00  0.00     0.352 C 
HETATM   17  O2  UNL     1      19.269  67.178  32.269  1.00  0.00    -0.245 OA
HETATM   18  N7  UNL     1      17.466  68.365  31.533  1.00  0.00    -0.258 N 
ATOM     19  H7  UNL     1      16.610  68.890  31.713  1.00  0.00     0.191 HD
ATOM     20  H6  UNL     1      18.255  68.827  34.237  1.00  0.00     0.189 HD
BRANCH  18  21
HETATM   21  N8  UNL     1      17.902  68.190  30.224  1.00  0.00    -0.341 N 
ATOM     22  H82 UNL     1      18.597  67.468  30.033  1.00  0.00     0.177 HD
ATOM     23  H81 UNL     1      17.534  68.770  29.469  1.00  0.00     0.177 HD
ENDBRANCH  18  21
ENDBRANCH  13  15
BRANCH  12  24
HETATM   24  C5  UNL     1      15.022  67.440  33.906  1.00  0.00     0.247 C 
BRANCH  24  25
HETATM   25  C6  UNL     1      14.538  68.852  33.928  1.00  0.00     0.249 C 
HETATM   26  N5  UNL     1      15.333  69.938  33.532  1.00  0.00    -0.061 NA
HETATM   27  O1  UNL     1      13.362  69.066  34.322  1.00  0.00    -0.275 OA
ENDBRANCH  24  25
ENDBRANCH  12  24
TORSDOF 4
ENDMDL
MODEL 3
REMARK VINA RESULT: -6.881066074      2.304      5.634
REMARK  4 active torsions:
REMARK  status: ('A' for Active; 'I' for Inactive)
REMARK    1  A    between atoms: N4_12  and  C5_13 
REMARK    2  A    between atoms: C5_13  and  C6_14 
REMARK    3  A    between atoms: C7_17  and  N6_18 
REMARK       I    between atoms: N6_18  and  C8_20 
REMARK       I    between atoms: C8_20  and  N7_22 
REMARK    4  A    between atoms: N7_22  and  N8_24 
ROOT
HETATM    1  N1  UNL     1      14.625  68.402  34.823  1.00  0.00    -0.234 N 
ATOM      2  H11 UNL     1      14.508  67.950  35.730  1.00  0.00     0.174 HD
ATOM      3  H12 UNL     1      13.715  68.804  34.599  1.00  0.00     0.174 HD
HETATM    4  C1  UNL     1      15.705  68.448  34.119  1.00  0.00     0.698 A 
HETATM    5  N2  UNL     1      15.862  69.056  32.903  1.00  0.00    -0.198 N 
ATOM      6  H2  UNL     1      15.135  69.556  32.393  1.00  0.00     0.183 HD
HETATM    7  C2  UNL     1      17.125  68.887  32.491  1.00  0.00     0.156 A 
HETATM    8  C3  UNL     1      17.794  68.156  33.467  1.00  0.00     0.164 A 
HETATM    9  N3  UNL     1      19.072  67.738  33.513  1.00  0.00    -0.335 N 
ATOM     10  H3  UNL     1      19.725  67.946  32.758  1.00  0.00     0.168 HD
HETATM   11  C4  UNL     1      19.451  67.044  34.584  1.00  0.00     0.203 A 
HETATM   12  N4  UNL     1      18.581  66.766  35.597  1.00  0.00    -0.170 N 
HETATM   13  C7  UNL     1      17.306  67.190  35.541  1.00  0.00     0.712 A 
HETATM   14  N9  UNL     1      16.908  67.918  34.415  1.00  0.00     0.040 N 
ENDROOT
BRANCH  13  15
HETATM   15  N6  UNL     1      16.449  67.010  36.391  1.00  0.00    -0.139 N 
HETATM   16  C8  UNL     1      15.584  66.165  36.956  1.00  0.00     0.352 C 
HETATM   17  O2  UNL     1      14.394  65.987  36.489  1.00  0.00    -0.245 OA
HETATM   18  N7  UNL     1      15.859  65.370  38.126  1.00  0.00    -0.258 N 
ATOM     19  H7  UNL     1      16.771  65.435  38.576  1.00  0.00     0.191 HD
ATOM     20  H6  UNL     1      16.349  67.895  36.889  1.00  0.00     0.189 HD
BRANCH  18  21
HETATM   21  N8  UNL     1      14.893  64.516  38.649  1.00  0.00    -0.341 N 
ATOM     22  H82 UNL     1      14.469  63.822  38.032  1.00  0.00     0.177 HD
ATOM     23  H81 UNL     1      14.614  64.581  39.628  1.00  0.00     0.177 HD
ENDBRANCH  18  21
ENDBRANCH  13  15
BRANCH  12  24
HETATM   24  C5  UNL     1      19.132  65.985  36.692  1.00  0.00     0.247 C 
BRANCH  24  25
HETATM   25  C6  UNL     1      19.162  66.781  37.954  1.00  0.00     0.249 C 
HETATM   26  N5  UNL     1      19.885  67.976  38.086  1.00  0.00    -0.061 NA
HETATM   27  O1  UNL     1      18.506  66.351  38.938  1.00  0.00    -0.275 OA
ENDBRANCH  24  25
ENDBRANCH  12  24
TORSDOF 4
ENDMDL
MODEL 4
REMARK VINA RESULT: -6.719754468      1.227      1.305
REMARK  4 active torsions:
REMARK  status: ('A' for Active; 'I' for Inactive)
REMARK    1  A    between atoms: N4_12  and  C5_13 
REMARK    2  A    between atoms: C5_13  and  C6_14 
REMARK    3  A    between atoms: C7_17  and  N6_18 
REMARK       I    between atoms: N6_18  and  C8_20 
REMARK       I    between atoms: C8_20  and  N7_22 
REMARK    4  A    between atoms: N7_22  and  N8_24 
ROOT
HETATM    1  N1  UNL     1      20.180  67.547  35.014  1.00  0.00    -0.234 N 
ATOM      2  H11 UNL     1      19.936  67.995  34.130  1.00  0.00     0.174 HD
ATOM      3  H12 UNL     1      21.200  67.548  35.048  1.00  0.00     0.174 HD
HETATM    4  C1  UNL     1      19.359  67.081  35.894  1.00  0.00     0.698 A 
HETATM    5  N2  UNL     1      19.686  66.481  37.079  1.00  0.00    -0.198 N 
ATOM      6  H2  UNL     1      20.634  66.325  37.421  1.00  0.00     0.183 HD
HETATM    7  C2  UNL     1      18.561  66.134  37.717  1.00  0.00     0.156 A 
HETATM    8  C3  UNL     1      17.488  66.521  36.922  1.00  0.00     0.164 A 
HETATM    9  N3  UNL     1      16.165  66.392  37.129  1.00  0.00    -0.335 N 
ATOM     10  H3  UNL     1      15.801  65.954  37.975  1.00  0.00     0.168 HD
HETATM   11  C4  UNL     1      15.349  66.859  36.186  1.00  0.00     0.203 A 
HETATM   12  N4  UNL     1      15.832  67.447  35.054  1.00  0.00    -0.170 N 
HETATM   13  C7  UNL     1      17.156  67.572  34.858  1.00  0.00     0.712 A 
HETATM   14  N9  UNL     1      18.013  67.080  35.848  1.00  0.00     0.040 N 
ENDROOT
BRANCH  13  15
HETATM   15  N6  UNL     1      17.696  68.089  33.893  1.00  0.00    -0.139 N 
HETATM   16  C8  UNL     1      17.989  68.013  32.594  1.00  0.00     0.352 C 
HETATM   17  O2  UNL     1      19.030  67.386  32.161  1.00  0.00    -0.245 OA
HETATM   18  N7  UNL     1      17.207  68.607  31.540  1.00  0.00    -0.258 N 
ATOM     19  H7  UNL     1      16.361  69.128  31.771  1.00  0.00     0.191 HD
ATOM     20  H6  UNL     1      18.101  68.964  34.226  1.00  0.00     0.189 HD
BRANCH  18  21
HETATM   21  N8  UNL     1      17.592  68.479  30.209  1.00  0.00    -0.341 N 
ATOM     22  H82 UNL     1      17.134  67.771  29.634  1.00  0.00     0.177 HD
ATOM     23  H81 UNL     1      18.317  69.080  29.814  1.00  0.00     0.177 HD
ENDBRANCH  18  21
ENDBRANCH  13  15
BRANCH  12  24
HETATM   24  C5  UNL     1      14.822  67.892  34.108  1.00  0.00     0.247 C 
BRANCH  24  25
HETATM   25  C6  UNL     1      14.392  66.773  33.218  1.00  0.00     0.249 C 
HETATM   26  N5  UNL     1      13.179  66.089  33.385  1.00  0.00    -0.061 NA
HETATM   27  O1  UNL     1      15.161  66.438  32.280  1.00  0.00    -0.275 OA
ENDBRANCH  24  25
ENDBRANCH  12  24
TORSDOF 4
ENDMDL
MODEL 5
REMARK VINA RESULT: -6.713553648      2.705      6.006
REMARK  4 active torsions:
REMARK  status: ('A' for Active; 'I' for Inactive)
REMARK    1  A    between atoms: N4_12  and  C5_13 
REMARK    2  A    between atoms: C5_13  and  C6_14 
REMARK    3  A    between atoms: C7_17  and  N6_18 
REMARK       I    between atoms: N6_18  and  C8_20 
REMARK       I    between atoms: C8_20  and  N7_22 
REMARK    4  A    between atoms: N7_22  and  N8_24 
ROOT
HETATM    1  N1  UNL     1      13.612  67.093  36.803  1.00  0.00    -0.234 N 
ATOM      2  H11 UNL     1      14.003  66.603  37.607  1.00  0.00     0.174 HD
ATOM      3  H12 UNL     1      12.606  67.133  36.969  1.00  0.00     0.174 HD
HETATM    4  C1  UNL     1      14.265  67.560  35.793  1.00  0.00     0.698 A 
HETATM    5  N2  UNL     1      13.741  68.218  34.714  1.00  0.00    -0.198 N 
ATOM      6  H2  UNL     1      12.752  68.425  34.570  1.00  0.00     0.183 HD
HETATM    7  C2  UNL     1      14.734  68.545  33.877  1.00  0.00     0.156 A 
HETATM    8  C3  UNL     1      15.923  68.087  34.434  1.00  0.00     0.164 A 
HETATM    9  N3  UNL     1      17.185  68.176  33.975  1.00  0.00    -0.335 N 
ATOM     10  H3  UNL     1      17.396  68.634  33.089  1.00  0.00     0.168 HD
HETATM   11  C4  UNL     1      18.147  67.641  34.724  1.00  0.00     0.203 A 
HETATM   12  N4  UNL     1      17.869  67.029  35.911  1.00  0.00    -0.170 N 
HETATM   13  C7  UNL     1      16.604  66.948  36.360  1.00  0.00     0.712 A 
HETATM   14  N9  UNL     1      15.593  67.508  35.573  1.00  0.00     0.040 N 
ENDROOT
BRANCH  13  15
HETATM   15  N6  UNL     1      16.243  66.436  37.408  1.00  0.00    -0.139 N 
HETATM   16  C8  UNL     1      16.091  65.318  38.120  1.00  0.00     0.352 C 
HETATM   17  O2  UNL     1      15.037  64.580  38.022  1.00  0.00    -0.245 OA
HETATM   18  N7  UNL     1      17.053  64.809  39.064  1.00  0.00    -0.258 N 
ATOM     19  H7  UNL     1      17.924  65.317  39.219  1.00  0.00     0.191 HD
ATOM     20  H6  UNL     1      15.912  67.198  38.000  1.00  0.00     0.189 HD
BRANCH  18  21
HETATM   21  N8  UNL     1      16.808  63.633  39.766  1.00  0.00    -0.341 N 
ATOM     22  H82 UNL     1      17.483  63.335  40.471  1.00  0.00     0.177 HD
ATOM     23  H81 UNL     1      15.972  63.079  39.580  1.00  0.00     0.177 HD
ENDBRANCH  18  21
ENDBRANCH  13  15
BRANCH  12  24
HETATM   24  C5  UNL     1      19.018  66.478  36.609  1.00  0.00     0.247 C 
BRANCH  24  25
HETATM   25  C6  UNL     1      19.412  67.346  37.758  1.00  0.00     0.249 C 
HETATM   26  N5  UNL     1      20.193  68.503  37.608  1.00  0.00    -0.061 NA
HETATM   27  O1  UNL     1      19.022  67.016  38.908  1.00  0.00    -0.275 OA
ENDBRANCH  24  25
ENDBRANCH  12  24
TORSDOF 4
ENDMDL
