MODEL 1
REMARK VINA RESULT: -6.801287342      0.000      0.000
REMARK  5 active torsions:
REMARK  status: ('A' for Active; 'I' for Inactive)
REMARK    1  A    between atoms: C4_9  and  N4_10 
REMARK    2  A    between atoms: C5_15  and  N6_16 
REMARK    3  A    between atoms: N6_16  and  N7_18 
REMARK    4  A    between atoms: N7_18  and  S1_20 
REMARK    5  A    between atoms: S1_20  and  N8_21 
ROOT
HETATM    1  C1  UNL     1      20.514  66.140  31.225  1.00  0.00     0.157 C 
HETATM    2  N1  UNL     1      19.291  66.842  30.829  1.00  0.00    -0.341 N 
HETATM    3  C2  UNL     1      18.754  66.914  29.592  1.00  0.00     0.184 A 
HETATM    4  N2  UNL     1      17.638  67.658  29.691  1.00  0.00    -0.336 N 
ATOM      5  H2  UNL     1      17.014  67.890  28.918  1.00  0.00     0.168 HD
HETATM    6  C3  UNL     1      17.472  68.049  30.970  1.00  0.00     0.152 A 
HETATM    7  N3  UNL     1      16.551  68.789  31.623  1.00  0.00    -0.174 N 
ATOM      8  H3  UNL     1      15.764  69.183  31.107  1.00  0.00     0.186 HD
HETATM    9  C4  UNL     1      16.657  69.015  32.944  1.00  0.00     0.679 A 
HETATM   10  N5  UNL     1      17.693  68.502  33.651  1.00  0.00    -0.173 N 
ATOM     11  H5  UNL     1      17.752  68.687  34.653  1.00  0.00     0.186 HD
HETATM   12  C5  UNL     1      18.645  67.756  33.065  1.00  0.00     0.167 A 
HETATM   13  C6  UNL     1      18.534  67.526  31.703  1.00  0.00     0.126 A 
ENDROOT
BRANCH  12  14
HETATM   14  N6  UNL     1      19.648  67.249  33.698  1.00  0.00    -0.272 N 
ATOM     15  H6  UNL     1      20.225  66.566  33.206  1.00  0.00     0.189 HD
BRANCH  14  16
HETATM   16  N7  UNL     1      19.992  67.568  34.993  1.00  0.00    -0.208 N 
ATOM     17  H7  UNL     1      20.692  68.290  35.159  1.00  0.00     0.201 HD
BRANCH  16  18
HETATM   18  S1  UNL     1      19.264  66.771  36.344  1.00  0.00     0.330 S 
HETATM   19  O1  UNL     1      19.761  65.355  36.401  1.00  0.00    -0.181 OA
HETATM   20  O2  UNL     1      17.774  66.858  36.293  1.00  0.00    -0.181 OA
BRANCH  18  21
HETATM   21  N8  UNL     1      19.805  67.581  37.772  1.00  0.00    -0.310 N 
ATOM     22  H82 UNL     1      19.356  67.535  38.687  1.00  0.00     0.170 HD
ATOM     23  H81 UNL     1      20.645  68.104  37.524  1.00  0.00     0.170 HD
ENDBRANCH  18  21
ENDBRANCH  16  18
ENDBRANCH  14  16
ENDBRANCH  12  14
BRANCH   9  24
HETATM   24  N4  UNL     1      15.782  69.722  33.582  1.00  0.00    -0.234 N 
ATOM     25  H42 UNL     1      14.966  69.241  33.961  1.00  0.00     0.174 HD
ATOM     26  H41 UNL     1      15.897  70.728  33.706  1.00  0.00     0.174 HD
ENDBRANCH   9  24
TORSDOF 5
ENDMDL
MODEL 2
REMARK VINA RESULT: -6.603460447      0.910      3.014
REMARK  5 active torsions:
REMARK  status: ('A' for Active; 'I' for Inactive)
REMARK    1  A    between atoms: C4_9  and  N4_10 
REMARK    2  A    between atoms: C5_15  and  N6_16 
REMARK    3  A    between atoms: N6_16  and  N7_18 
REMARK    4  A    between atoms: N7_18  and  S1_20 
REMARK    5  A    between atoms: S1_20  and  N8_21 
ROOT
HETATM    1  C1  UNL     1      16.579  69.158  33.403  1.00  0.00     0.157 C 
HETATM    2  N1  UNL     1      16.958  68.645  32.084  1.00  0.00    -0.341 N 
HETATM    3  C2  UNL     1      16.278  68.788  30.926  1.00  0.00     0.184 A 
HETATM    4  N2  UNL     1      16.990  68.160  29.973  1.00  0.00    -0.336 N 
ATOM      5  H2  UNL     1      16.729  68.096  28.989  1.00  0.00     0.168 HD
HETATM    6  C3  UNL     1      18.103  67.630  30.520  1.00  0.00     0.152 A 
HETATM    7  N3  UNL     1      19.145  66.916  30.045  1.00  0.00    -0.174 N 
ATOM      8  H3  UNL     1      19.181  66.676  29.054  1.00  0.00     0.186 HD
HETATM    9  C4  UNL     1      20.135  66.514  30.861  1.00  0.00     0.679 A 
HETATM   10  N5  UNL     1      20.110  66.821  32.181  1.00  0.00    -0.173 N 
ATOM     11  H5  UNL     1      20.873  66.506  32.779  1.00  0.00     0.186 HD
HETATM   12  C5  UNL     1      19.103  67.529  32.720  1.00  0.00     0.167 A 
HETATM   13  C6  UNL     1      18.083  67.941  31.877  1.00  0.00     0.126 A 
ENDROOT
BRANCH  12  14
HETATM   14  N6  UNL     1      19.038  67.843  33.969  1.00  0.00    -0.272 N 
ATOM     15  H6  UNL     1      18.325  68.515  34.254  1.00  0.00     0.189 HD
BRANCH  14  16
HETATM   16  N7  UNL     1      19.867  67.332  34.944  1.00  0.00    -0.208 N 
ATOM     17  H7  UNL     1      20.877  67.369  34.809  1.00  0.00     0.201 HD
BRANCH  16  18
HETATM   18  S1  UNL     1      19.234  66.629  36.391  1.00  0.00     0.330 S 
HETATM   19  O1  UNL     1      19.761  65.229  36.524  1.00  0.00    -0.181 OA
HETATM   20  O2  UNL     1      17.742  66.690  36.422  1.00  0.00    -0.181 OA
BRANCH  18  21
HETATM   21  N8  UNL     1      19.841  67.552  37.720  1.00  0.00    -0.310 N 
ATOM     22  H82 UNL     1      19.456  68.437  38.054  1.00  0.00     0.170 HD
ATOM     23  H81 UNL     1      20.645  67.050  38.097  1.00  0.00     0.170 HD
ENDBRANCH  18  21
ENDBRANCH  16  18
ENDBRANCH  14  16
ENDBRANCH  12  14
BRANCH   9  24
HETATM   24  N4  UNL     1      21.139  65.829  30.420  1.00  0.00    -0.234 N 
ATOM     25  H42 UNL     1      21.269  65.772  29.409  1.00  0.00     0.174 HD
ATOM     26  H41 UNL     1      21.784  65.358  31.054  1.00  0.00     0.174 HD
ENDBRANCH   9  24
TORSDOF 5
ENDMDL
MODEL 3
REMARK VINA RESULT: -6.602660801      0.995      1.151
REMARK  5 active torsions:
REMARK  status: ('A' for Active; 'I' for Inactive)
REMARK    1  A    between atoms: C4_9  and  N4_10 
REMARK    2  A    between atoms: C5_15  and  N6_16 
REMARK    3  A    between atoms: N6_16  and  N7_18 
REMARK    4  A    between atoms: N7_18  and  S1_20 
REMARK    5  A    between atoms: S1_20  and  N8_21 
ROOT
HETATM    1  C1  UNL     1      20.348  65.911  31.039  1.00  0.00     0.157 C 
HETATM    2  N1  UNL     1      19.243  66.747  30.563  1.00  0.00    -0.341 N 
HETATM    3  C2  UNL     1      18.760  66.824  29.304  1.00  0.00     0.184 A 
HETATM    4  N2  UNL     1      17.751  67.712  29.325  1.00  0.00    -0.336 N 
ATOM      5  H2  UNL     1      17.188  67.983  28.518  1.00  0.00     0.168 HD
HETATM    6  C3  UNL     1      17.598  68.189  30.576  1.00  0.00     0.152 A 
HETATM    7  N3  UNL     1      16.764  69.077  31.157  1.00  0.00    -0.174 N 
ATOM      8  H3  UNL     1      16.053  69.543  30.593  1.00  0.00     0.186 HD
HETATM    9  C4  UNL     1      16.858  69.356  32.469  1.00  0.00     0.679 A 
HETATM   10  N5  UNL     1      17.793  68.749  33.239  1.00  0.00    -0.173 N 
ATOM     11  H5  UNL     1      17.844  68.976  34.232  1.00  0.00     0.186 HD
HETATM   12  C5  UNL     1      18.655  67.854  32.726  1.00  0.00     0.167 A 
HETATM   13  C6  UNL     1      18.557  67.569  31.374  1.00  0.00     0.126 A 
ENDROOT
BRANCH  12  14
HETATM   14  N6  UNL     1      19.560  67.253  33.421  1.00  0.00    -0.272 N 
ATOM     15  H6  UNL     1      19.970  66.402  33.034  1.00  0.00     0.189 HD
BRANCH  14  16
HETATM   16  N7  UNL     1      20.011  67.683  34.650  1.00  0.00    -0.208 N 
ATOM     17  H7  UNL     1      20.816  68.307  34.695  1.00  0.00     0.201 HD
BRANCH  16  18
HETATM   18  S1  UNL     1      19.242  67.189  36.117  1.00  0.00     0.330 S 
HETATM   19  O1  UNL     1      17.754  67.214  35.922  1.00  0.00    -0.181 OA
HETATM   20  O2  UNL     1      19.687  68.021  37.275  1.00  0.00    -0.181 OA
BRANCH  18  21
HETATM   21  N8  UNL     1      19.710  65.552  36.417  1.00  0.00    -0.310 N 
ATOM     22  H82 UNL     1      20.653  65.175  36.314  1.00  0.00     0.170 HD
ATOM     23  H81 UNL     1      18.874  65.046  36.711  1.00  0.00     0.170 HD
ENDBRANCH  18  21
ENDBRANCH  16  18
ENDBRANCH  14  16
ENDBRANCH  12  14
BRANCH   9  24
HETATM   24  N4  UNL     1      16.065  70.204  33.039  1.00  0.00    -0.234 N 
ATOM     25  H42 UNL     1      16.041  70.223  34.059  1.00  0.00     0.174 HD
ATOM     26  H41 UNL     1      15.480  70.837  32.493  1.00  0.00     0.174 HD
ENDBRANCH   9  24
TORSDOF 5
ENDMDL
MODEL 4
REMARK VINA RESULT: -6.306057167      3.434      5.754
REMARK  5 active torsions:
REMARK  status: ('A' for Active; 'I' for Inactive)
REMARK    1  A    between atoms: C4_9  and  N4_10 
REMARK    2  A    between atoms: C5_15  and  N6_16 
REMARK    3  A    between atoms: N6_16  and  N7_18 
REMARK    4  A    between atoms: N7_18  and  S1_20 
REMARK    5  A    between atoms: S1_20  and  N8_21 
ROOT
HETATM    1  C1  UNL     1      16.027  66.584  37.577  1.00  0.00     0.157 C 
HETATM    2  N1  UNL     1      17.434  66.549  37.172  1.00  0.00    -0.341 N 
HETATM    3  C2  UNL     1      18.493  66.185  37.926  1.00  0.00     0.184 A 
HETATM    4  N2  UNL     1      19.587  66.305  37.152  1.00  0.00    -0.336 N 
ATOM      5  H2  UNL     1      20.542  66.101  37.446  1.00  0.00     0.168 HD
HETATM    6  C3  UNL     1      19.225  66.738  35.928  1.00  0.00     0.152 A 
HETATM    7  N3  UNL     1      19.889  67.025  34.789  1.00  0.00    -0.174 N 
ATOM      8  H3  UNL     1      20.903  66.917  34.757  1.00  0.00     0.186 HD
HETATM    9  C4  UNL     1      19.233  67.452  33.696  1.00  0.00     0.679 A 
HETATM   10  N5  UNL     1      17.887  67.603  33.713  1.00  0.00    -0.173 N 
ATOM     11  H5  UNL     1      17.411  67.927  32.871  1.00  0.00     0.186 HD
HETATM   12  C5  UNL     1      17.162  67.335  34.813  1.00  0.00     0.167 A 
HETATM   13  C6  UNL     1      17.841  66.896  35.939  1.00  0.00     0.126 A 
ENDROOT
BRANCH  12  14
HETATM   14  N6  UNL     1      15.880  67.464  34.875  1.00  0.00    -0.272 N 
ATOM     15  H6  UNL     1      15.323  66.620  35.009  1.00  0.00     0.189 HD
BRANCH  14  16
HETATM   16  N7  UNL     1      15.215  68.666  34.773  1.00  0.00    -0.208 N 
ATOM     17  H7  UNL     1      14.866  69.116  35.619  1.00  0.00     0.201 HD
BRANCH  16  18
HETATM   18  S1  UNL     1      14.955  69.428  33.243  1.00  0.00     0.330 S 
HETATM   19  O1  UNL     1      13.592  70.056  33.235  1.00  0.00    -0.181 OA
HETATM   20  O2  UNL     1      15.157  68.472  32.114  1.00  0.00    -0.181 OA
BRANCH  18  21
HETATM   21  N8  UNL     1      16.123  70.694  33.095  1.00  0.00    -0.310 N 
ATOM     22  H82 UNL     1      16.798  70.966  33.810  1.00  0.00     0.170 HD
ATOM     23  H81 UNL     1      16.007  71.108  32.169  1.00  0.00     0.170 HD
ENDBRANCH  18  21
ENDBRANCH  16  18
ENDBRANCH  14  16
ENDBRANCH  12  14
BRANCH   9  24
HETATM   24  N4  UNL     1      19.857  67.730  32.598  1.00  0.00    -0.234 N 
ATOM     25  H42 UNL     1      20.192  68.685  32.469  1.00  0.00     0.174 HD
ATOM     26  H41 UNL     1      20.013  67.024  31.879  1.00  0.00     0.174 HD
ENDBRANCH   9  24
TORSDOF 5
ENDMDL
MODEL 5
REMARK VINA RESULT: -6.176996025      3.420      5.781
REMARK  5 active torsions:
REMARK  status: ('A' for Active; 'I' for Inactive)
REMARK    1  A    between atoms: C4_9  and  N4_10 
REMARK    2  A    between atoms: C5_15  and  N6_16 
REMARK    3  A    between atoms: N6_16  and  N7_18 
REMARK    4  A    between atoms: N7_18  and  S1_20 
REMARK    5  A    between atoms: S1_20  and  N8_21 
ROOT
HETATM    1  C1  UNL     1      15.956  66.661  37.468  1.00  0.00     0.157 C 
HETATM    2  N1  UNL     1      17.368  66.576  37.085  1.00  0.00    -0.341 N 
HETATM    3  C2  UNL     1      18.399  66.159  37.851  1.00  0.00     0.184 A 
HETATM    4  N2  UNL     1      19.509  66.246  37.097  1.00  0.00    -0.336 N 
ATOM      5  H2  UNL     1      20.450  65.999  37.403  1.00  0.00     0.168 HD
HETATM    6  C3  UNL     1      19.184  66.711  35.873  1.00  0.00     0.152 A 
HETATM    7  N3  UNL     1      19.879  66.986  34.749  1.00  0.00    -0.174 N 
ATOM      8  H3  UNL     1      20.888  66.838  34.732  1.00  0.00     0.186 HD
HETATM    9  C4  UNL     1      19.258  67.454  33.652  1.00  0.00     0.679 A 
HETATM   10  N5  UNL     1      17.919  67.659  33.650  1.00  0.00    -0.173 N 
ATOM     11  H5  UNL     1      17.471  68.014  32.805  1.00  0.00     0.186 HD
HETATM   12  C5  UNL     1      17.166  67.405  34.734  1.00  0.00     0.167 A 
HETATM   13  C6  UNL     1      17.808  66.924  35.864  1.00  0.00     0.126 A 
ENDROOT
BRANCH  12  14
HETATM   14  N6  UNL     1      15.890  67.585  34.778  1.00  0.00    -0.272 N 
ATOM     15  H6  UNL     1      15.296  66.760  34.871  1.00  0.00     0.189 HD
BRANCH  14  16
HETATM   16  N7  UNL     1      15.275  68.815  34.706  1.00  0.00    -0.208 N 
ATOM     17  H7  UNL     1      15.037  69.304  35.569  1.00  0.00     0.201 HD
BRANCH  16  18
HETATM   18  S1  UNL     1      14.898  69.550  33.187  1.00  0.00     0.330 S 
HETATM   19  O1  UNL     1      15.184  68.570  32.086  1.00  0.00    -0.181 OA
HETATM   20  O2  UNL     1      15.621  70.845  33.011  1.00  0.00    -0.181 OA
BRANCH  18  21
HETATM   21  N8  UNL     1      13.200  69.874  33.181  1.00  0.00    -0.310 N 
ATOM     22  H82 UNL     1      12.466  69.202  33.408  1.00  0.00     0.170 HD
ATOM     23  H81 UNL     1      13.078  70.850  32.910  1.00  0.00     0.170 HD
ENDBRANCH  18  21
ENDBRANCH  16  18
ENDBRANCH  14  16
ENDBRANCH  12  14
BRANCH   9  24
HETATM   24  N4  UNL     1      19.912  67.723  32.568  1.00  0.00    -0.234 N 
ATOM     25  H42 UNL     1      19.773  67.109  31.765  1.00  0.00     0.174 HD
ATOM     26  H41 UNL     1      20.546  68.519  32.511  1.00  0.00     0.174 HD
ENDBRANCH   9  24
TORSDOF 5
ENDMDL
