MODEL 1
REMARK VINA RESULT: -7.641646797      0.000      0.000
REMARK  16 active torsions:
REMARK  status: ('A' for Active; 'I' for Inactive)
REMARK    1  A    between atoms: O1_2  and  C2_3 
REMARK    2  A    between atoms: C2_3  and  C3_5 
REMARK    3  A    between atoms: C4_6  and  C5_7 
REMARK    4  A    between atoms: C5_7  and  O4_9 
REMARK    5  A    between atoms: C10_17  and  C11_18 
REMARK    6  A    between atoms: C11_18  and  N2_19 
REMARK    7  A    between atoms: C11_18  and  O6_28 
REMARK       I    between atoms: N2_19  and  C12_21 
REMARK       I    between atoms: C12_21  and  N3_23 
REMARK    8  A    between atoms: N3_23  and  N4_25 
REMARK    9  A    between atoms: C13_32  and  O8_33 
REMARK   10  A    between atoms: O8_33  and  C14_34 
REMARK   11  A    between atoms: C14_34  and  C16_36 
REMARK   12  A    between atoms: C16_36  and  O9_37 
REMARK   13  A    between atoms: O9_37  and  C17_38 
REMARK   14  A    between atoms: C17_38  and  C18_39 
REMARK   15  A    between atoms: C18_39  and  O10_40 
REMARK   16  A    between atoms: C22_50  and  N8_51 
ROOT
HETATM    1  C3  UNL     1       3.478   8.905  27.711  1.00  0.00     0.130 A 
HETATM    2  C4  UNL     1       4.124   9.993  27.348  1.00  0.00     0.112 A 
HETATM    3  C7  UNL     1       5.343  10.429  28.088  1.00  0.00     0.227 A 
HETATM    4  N1  UNL     1       5.657   9.600  29.181  1.00  0.00    -0.338 N 
ATOM      5  H1  UNL     1       6.462   9.870  29.746  1.00  0.00     0.164 HD
HETATM    6  C8  UNL     1       5.017   8.516  29.546  1.00  0.00     0.093 A 
HETATM    7  C9  UNL     1       5.454   7.720  30.736  1.00  0.00     0.152 C 
HETATM    8  S1  UNL     1       3.889   6.896  31.108  1.00  0.00    -0.131 SA
HETATM    9  C10 UNL     1       3.303   6.867  29.332  1.00  0.00     0.203 C 
HETATM   10  N5  UNL     1       3.891   8.073  28.859  1.00  0.00    -0.312 N 
HETATM   11  O7  UNL     1       5.065  11.696  28.627  1.00  0.00    -0.317 OA
HETATM   12  C13 UNL     1       6.248  12.228  29.207  1.00  0.00     0.293 C 
HETATM   13  C19 UNL     1       7.222  12.599  28.179  1.00  0.00     0.194 C 
HETATM   14  N6  UNL     1       8.562  12.812  28.674  1.00  0.00    -0.328 N 
ATOM     15  H6  UNL     1       8.837  13.077  29.620  1.00  0.00     0.165 HD
HETATM   16  C20 UNL     1       9.440  12.567  27.527  1.00  0.00     0.321 C 
HETATM   17  O11 UNL     1      10.585  13.015  27.344  1.00  0.00    -0.247 OA
HETATM   18  N7  UNL     1       8.695  11.695  26.650  1.00  0.00    -0.308 N 
ATOM     19  H7  UNL     1       9.015  11.329  25.754  1.00  0.00     0.170 HD
HETATM   20  C21 UNL     1       7.421  11.433  27.264  1.00  0.00     0.075 C 
HETATM   21  C22 UNL     1       6.566  10.472  27.234  1.00  0.00     0.166 C 
ENDROOT
BRANCH   2  22
HETATM   22  C5  UNL     1       3.722  10.864  26.210  1.00  0.00     0.296 C 
HETATM   23  O3  UNL     1       3.243  11.969  26.158  1.00  0.00    -0.259 OA
BRANCH  22  24
HETATM   24  O4  UNL     1       3.937  10.297  24.912  1.00  0.00    -0.323 OA
HETATM   25  C6  UNL     1       3.730  11.083  23.742  1.00  0.00     0.213 C 
ENDBRANCH  22  24
ENDBRANCH   2  22
BRANCH  21  26
HETATM   26  N8  UNL     1       6.810   9.380  26.316  1.00  0.00    -0.112 N 
HETATM   27  O12 UNL     1       6.885   8.205  26.647  1.00  0.00    -0.532 OA
HETATM   28  O13 UNL     1       6.963   9.719  24.998  1.00  0.00    -0.532 OA
ENDBRANCH  21  26
BRANCH   1  29
HETATM   29  C2  UNL     1       2.298   8.452  27.022  1.00  0.00     0.310 C 
HETATM   30  O2  UNL     1       2.293   7.566  26.167  1.00  0.00    -0.258 OA
BRANCH  29  31
HETATM   31  O1  UNL     1       1.043   8.984  27.263  1.00  0.00    -0.321 OA
HETATM   32  C1  UNL     1       0.853   9.850  28.349  1.00  0.00     0.213 C 
ENDBRANCH  29  31
ENDBRANCH   1  29
BRANCH  12  33
HETATM   33  O8  UNL     1       5.846  13.366  29.900  1.00  0.00    -0.352 OA
BRANCH  33  34
HETATM   34  C14 UNL     1       6.082  13.268  31.262  1.00  0.00     0.144 C 
HETATM   35  C15 UNL     1       7.150  14.165  31.776  1.00  0.00     0.042 C 
BRANCH  34  36
HETATM   36  C16 UNL     1       4.834  13.501  32.084  1.00  0.00     0.199 C 
BRANCH  36  37
HETATM   37  O9  UNL     1       4.796  12.495  33.065  1.00  0.00    -0.387 OA
BRANCH  37  38
HETATM   38  C17 UNL     1       4.848  11.244  32.425  1.00  0.00     0.193 C 
BRANCH  38  39
HETATM   39  C18 UNL     1       3.428  10.801  32.134  1.00  0.00     0.190 C 
BRANCH  39  40
HETATM   40  O10 UNL     1       3.149  10.919  30.778  1.00  0.00    -0.399 OA
ATOM     41  H10 UNL     1       2.519  11.614  30.627  1.00  0.00     0.209 HD
ENDBRANCH  39  40
ENDBRANCH  38  39
ENDBRANCH  37  38
ENDBRANCH  36  37
ENDBRANCH  34  36
ENDBRANCH  33  34
ENDBRANCH  12  33
BRANCH   9  42
HETATM   42  C11 UNL     1       3.753   5.577  28.766  1.00  0.00     0.274 C 
BRANCH  42  43
HETATM   43  N2  UNL     1       2.761   4.858  27.979  1.00  0.00    -0.311 N 
HETATM   44  C12 UNL     1       2.026   3.830  28.641  1.00  0.00     0.336 C 
HETATM   45  O5  UNL     1       2.247   3.569  29.873  1.00  0.00    -0.246 OA
HETATM   46  N3  UNL     1       1.041   3.066  27.986  1.00  0.00    -0.258 N 
ATOM     47  H3  UNL     1       0.833   3.244  27.004  1.00  0.00     0.191 HD
ATOM     48  H2  UNL     1       2.598   5.081  26.997  1.00  0.00     0.167 HD
BRANCH  46  49
HETATM   49  N4  UNL     1       0.353   2.077  28.663  1.00  0.00    -0.341 N 
ATOM     50  H42 UNL     1       0.814   1.603  29.439  1.00  0.00     0.177 HD
ATOM     51  H41 UNL     1      -0.598   1.826  28.390  1.00  0.00     0.177 HD
ENDBRANCH  46  49
ENDBRANCH  42  43
BRANCH  42  52
HETATM   52  O6  UNL     1       4.734   5.915  27.789  1.00  0.00    -0.279 OA
HETATM   53  S2  UNL     1       6.163   5.031  27.983  1.00  0.00     0.095 SA
ENDBRANCH  42  52
ENDBRANCH   9  42
TORSDOF 16
ENDMDL
MODEL 2
REMARK VINA RESULT: -7.622022386      1.098      1.898
REMARK  16 active torsions:
REMARK  status: ('A' for Active; 'I' for Inactive)
REMARK    1  A    between atoms: O1_2  and  C2_3 
REMARK    2  A    between atoms: C2_3  and  C3_5 
REMARK    3  A    between atoms: C4_6  and  C5_7 
REMARK    4  A    between atoms: C5_7  and  O4_9 
REMARK    5  A    between atoms: C10_17  and  C11_18 
REMARK    6  A    between atoms: C11_18  and  N2_19 
REMARK    7  A    between atoms: C11_18  and  O6_28 
REMARK       I    between atoms: N2_19  and  C12_21 
REMARK       I    between atoms: C12_21  and  N3_23 
REMARK    8  A    between atoms: N3_23  and  N4_25 
REMARK    9  A    between atoms: C13_32  and  O8_33 
REMARK   10  A    between atoms: O8_33  and  C14_34 
REMARK   11  A    between atoms: C14_34  and  C16_36 
REMARK   12  A    between atoms: C16_36  and  O9_37 
REMARK   13  A    between atoms: O9_37  and  C17_38 
REMARK   14  A    between atoms: C17_38  and  C18_39 
REMARK   15  A    between atoms: C18_39  and  O10_40 
REMARK   16  A    between atoms: C22_50  and  N8_51 
ROOT
HETATM    1  C3  UNL     1       3.478   8.931  27.693  1.00  0.00     0.130 A 
HETATM    2  C4  UNL     1       4.124  10.019  27.332  1.00  0.00     0.112 A 
HETATM    3  C7  UNL     1       5.336  10.461  28.082  1.00  0.00     0.227 A 
HETATM    4  N1  UNL     1       5.642   9.636  29.181  1.00  0.00    -0.338 N 
ATOM      5  H1  UNL     1       6.441   9.909  29.752  1.00  0.00     0.164 HD
HETATM    6  C8  UNL     1       5.001   8.551  29.544  1.00  0.00     0.093 A 
HETATM    7  C9  UNL     1       5.429   7.760  30.740  1.00  0.00     0.152 C 
HETATM    8  S1  UNL     1       3.863   6.933  31.100  1.00  0.00    -0.131 SA
HETATM    9  C10 UNL     1       3.293   6.898  29.318  1.00  0.00     0.203 C 
HETATM   10  N5  UNL     1       3.882   8.103  28.847  1.00  0.00    -0.312 N 
HETATM   11  O7  UNL     1       5.050  11.728  28.615  1.00  0.00    -0.317 OA
HETATM   12  C13 UNL     1       6.227  12.265  29.203  1.00  0.00     0.293 C 
HETATM   13  C19 UNL     1       7.209  12.635  28.183  1.00  0.00     0.194 C 
HETATM   14  N6  UNL     1       8.544  12.853  28.690  1.00  0.00    -0.328 N 
ATOM     15  H6  UNL     1       8.810  13.122  29.638  1.00  0.00     0.165 HD
HETATM   16  C20 UNL     1       9.433  12.606  27.552  1.00  0.00     0.321 C 
HETATM   17  O11 UNL     1      10.578  13.056  27.378  1.00  0.00    -0.247 OA
HETATM   18  N7  UNL     1       8.698  11.730  26.671  1.00  0.00    -0.308 N 
ATOM     19  H7  UNL     1       9.027  11.362  25.779  1.00  0.00     0.170 HD
HETATM   20  C21 UNL     1       7.420  11.467  27.274  1.00  0.00     0.075 C 
HETATM   21  C22 UNL     1       6.567  10.504  27.240  1.00  0.00     0.166 C 
ENDROOT
BRANCH   2  22
HETATM   22  C5  UNL     1       3.731  10.886  26.188  1.00  0.00     0.296 C 
HETATM   23  O3  UNL     1       3.244  11.986  26.128  1.00  0.00    -0.259 OA
BRANCH  22  24
HETATM   24  O4  UNL     1       3.969  10.320  24.894  1.00  0.00    -0.323 OA
HETATM   25  C6  UNL     1       3.610  11.040  23.718  1.00  0.00     0.213 C 
ENDBRANCH  22  24
ENDBRANCH   2  22
BRANCH  21  26
HETATM   26  N8  UNL     1       6.821   9.410  26.327  1.00  0.00    -0.112 N 
HETATM   27  O12 UNL     1       6.889   8.235  26.661  1.00  0.00    -0.532 OA
HETATM   28  O13 UNL     1       6.994   9.746  25.011  1.00  0.00    -0.532 OA
ENDBRANCH  21  26
BRANCH   1  29
HETATM   29  C2  UNL     1       2.305   8.473  26.995  1.00  0.00     0.310 C 
HETATM   30  O2  UNL     1       2.312   7.594  26.132  1.00  0.00    -0.258 OA
BRANCH  29  31
HETATM   31  O1  UNL     1       1.045   8.993  27.233  1.00  0.00    -0.321 OA
HETATM   32  C1  UNL     1       0.840   9.842  28.329  1.00  0.00     0.213 C 
ENDBRANCH  29  31
ENDBRANCH   1  29
BRANCH  12  33
HETATM   33  O8  UNL     1       5.815  13.404  29.889  1.00  0.00    -0.352 OA
BRANCH  33  34
HETATM   34  C14 UNL     1       5.980  13.286  31.261  1.00  0.00     0.144 C 
HETATM   35  C15 UNL     1       6.094  11.890  31.757  1.00  0.00     0.042 C 
BRANCH  34  36
HETATM   36  C16 UNL     1       7.172  14.067  31.769  1.00  0.00     0.199 C 
BRANCH  36  37
HETATM   37  O9  UNL     1       7.400  13.650  33.092  1.00  0.00    -0.387 OA
BRANCH  37  38
HETATM   38  C17 UNL     1       7.021  14.691  33.959  1.00  0.00     0.193 C 
BRANCH  38  39
HETATM   39  C18 UNL     1       7.973  15.852  33.750  1.00  0.00     0.190 C 
BRANCH  39  40
HETATM   40  O10 UNL     1       8.926  15.889  34.761  1.00  0.00    -0.399 OA
ATOM     41  H10 UNL     1       9.700  15.400  34.507  1.00  0.00     0.209 HD
ENDBRANCH  39  40
ENDBRANCH  38  39
ENDBRANCH  37  38
ENDBRANCH  36  37
ENDBRANCH  34  36
ENDBRANCH  33  34
ENDBRANCH  12  33
BRANCH   9  42
HETATM   42  C11 UNL     1       3.751   5.607  28.761  1.00  0.00     0.274 C 
BRANCH  42  43
HETATM   43  N2  UNL     1       2.764   4.880  27.974  1.00  0.00    -0.311 N 
HETATM   44  C12 UNL     1       2.034   3.849  28.638  1.00  0.00     0.336 C 
HETATM   45  O5  UNL     1       2.254   3.595  29.873  1.00  0.00    -0.246 OA
HETATM   46  N3  UNL     1       1.055   3.077  27.984  1.00  0.00    -0.258 N 
ATOM     47  H3  UNL     1       0.849   3.250  27.001  1.00  0.00     0.191 HD
ATOM     48  H2  UNL     1       2.603   5.097  26.991  1.00  0.00     0.167 HD
BRANCH  46  49
HETATM   49  N4  UNL     1       0.371   2.087  28.664  1.00  0.00    -0.341 N 
ATOM     50  H42 UNL     1      -0.496   2.330  29.142  1.00  0.00     0.177 HD
ATOM     51  H41 UNL     1       0.728   1.131  28.686  1.00  0.00     0.177 HD
ENDBRANCH  46  49
ENDBRANCH  42  43
BRANCH  42  52
HETATM   52  O6  UNL     1       4.734   5.945  27.785  1.00  0.00    -0.279 OA
HETATM   53  S2  UNL     1       6.158   5.054  27.976  1.00  0.00     0.095 SA
ENDBRANCH  42  52
ENDBRANCH   9  42
TORSDOF 16
ENDMDL
MODEL 3
REMARK VINA RESULT: -7.545649454      1.436      2.293
REMARK  16 active torsions:
REMARK  status: ('A' for Active; 'I' for Inactive)
REMARK    1  A    between atoms: O1_2  and  C2_3 
REMARK    2  A    between atoms: C2_3  and  C3_5 
REMARK    3  A    between atoms: C4_6  and  C5_7 
REMARK    4  A    between atoms: C5_7  and  O4_9 
REMARK    5  A    between atoms: C10_17  and  C11_18 
REMARK    6  A    between atoms: C11_18  and  N2_19 
REMARK    7  A    between atoms: C11_18  and  O6_28 
REMARK       I    between atoms: N2_19  and  C12_21 
REMARK       I    between atoms: C12_21  and  N3_23 
REMARK    8  A    between atoms: N3_23  and  N4_25 
REMARK    9  A    between atoms: C13_32  and  O8_33 
REMARK   10  A    between atoms: O8_33  and  C14_34 
REMARK   11  A    between atoms: C14_34  and  C16_36 
REMARK   12  A    between atoms: C16_36  and  O9_37 
REMARK   13  A    between atoms: O9_37  and  C17_38 
REMARK   14  A    between atoms: C17_38  and  C18_39 
REMARK   15  A    between atoms: C18_39  and  O10_40 
REMARK   16  A    between atoms: C22_50  and  N8_51 
ROOT
HETATM    1  C3  UNL     1       3.423   8.961  27.637  1.00  0.00     0.130 A 
HETATM    2  C4  UNL     1       4.051  10.055  27.263  1.00  0.00     0.112 A 
HETATM    3  C7  UNL     1       5.242  10.538  28.021  1.00  0.00     0.227 A 
HETATM    4  N1  UNL     1       5.548   9.744  29.141  1.00  0.00    -0.338 N 
ATOM      5  H1  UNL     1       6.333  10.046  29.718  1.00  0.00     0.164 HD
HETATM    6  C8  UNL     1       4.925   8.653  29.517  1.00  0.00     0.093 A 
HETATM    7  C9  UNL     1       5.352   7.897  30.736  1.00  0.00     0.152 C 
HETATM    8  S1  UNL     1       3.799   7.044  31.091  1.00  0.00    -0.131 SA
HETATM    9  C10 UNL     1       3.257   6.959  29.303  1.00  0.00     0.203 C 
HETATM   10  N5  UNL     1       3.827   8.167  28.815  1.00  0.00    -0.312 N 
HETATM   11  O7  UNL     1       4.920  11.811  28.522  1.00  0.00    -0.317 OA
HETATM   12  C13 UNL     1       6.077  12.385  29.116  1.00  0.00     0.293 C 
HETATM   13  C19 UNL     1       7.066  12.755  28.103  1.00  0.00     0.194 C 
HETATM   14  N6  UNL     1       8.388  13.012  28.624  1.00  0.00    -0.328 N 
ATOM     15  H6  UNL     1       8.634  13.307  29.570  1.00  0.00     0.165 HD
HETATM   16  C20 UNL     1       9.299  12.761  27.505  1.00  0.00     0.321 C 
HETATM   17  O11 UNL     1      10.437  13.232  27.337  1.00  0.00    -0.247 OA
HETATM   18  N7  UNL     1       8.596  11.850  26.632  1.00  0.00    -0.308 N 
ATOM     19  H7  UNL     1       8.947  11.471  25.753  1.00  0.00     0.170 HD
HETATM   20  C21 UNL     1       7.315  11.573  27.221  1.00  0.00     0.075 C 
HETATM   21  C22 UNL     1       6.484  10.591  27.195  1.00  0.00     0.166 C 
ENDROOT
BRANCH   2  22
HETATM   22  C5  UNL     1       3.657  10.889  26.095  1.00  0.00     0.296 C 
HETATM   23  O3  UNL     1       3.141  11.974  26.004  1.00  0.00    -0.259 OA
BRANCH  22  24
HETATM   24  O4  UNL     1       3.934  10.305  24.817  1.00  0.00    -0.323 OA
HETATM   25  C6  UNL     1       3.610  11.008  23.621  1.00  0.00     0.213 C 
ENDBRANCH  22  24
ENDBRANCH   2  22
BRANCH  21  26
HETATM   26  N8  UNL     1       6.775   9.483  26.310  1.00  0.00    -0.112 N 
HETATM   27  O12 UNL     1       6.855   8.317  26.669  1.00  0.00    -0.532 OA
HETATM   28  O13 UNL     1       6.970   9.797  24.992  1.00  0.00    -0.532 OA
ENDBRANCH  21  26
BRANCH   1  29
HETATM   29  C2  UNL     1       2.271   8.463  26.932  1.00  0.00     0.310 C 
HETATM   30  O2  UNL     1       2.314   7.591  26.064  1.00  0.00    -0.258 OA
BRANCH  29  31
HETATM   31  O1  UNL     1       0.991   8.932  27.170  1.00  0.00    -0.321 OA
HETATM   32  C1  UNL     1       0.769   9.852  28.203  1.00  0.00     0.213 C 
ENDBRANCH  29  31
ENDBRANCH   1  29
BRANCH  12  33
HETATM   33  O8  UNL     1       5.630  13.529  29.771  1.00  0.00    -0.352 OA
BRANCH  33  34
HETATM   34  C14 UNL     1       4.391  13.952  29.314  1.00  0.00     0.144 C 
HETATM   35  C15 UNL     1       3.369  14.148  30.375  1.00  0.00     0.042 C 
BRANCH  34  36
HETATM   36  C16 UNL     1       4.479  15.226  28.502  1.00  0.00     0.199 C 
BRANCH  36  37
HETATM   37  O9  UNL     1       4.163  14.886  27.175  1.00  0.00    -0.387 OA
BRANCH  37  38
HETATM   38  C17 UNL     1       3.313  15.877  26.651  1.00  0.00     0.193 C 
BRANCH  38  39
HETATM   39  C18 UNL     1       1.937  15.270  26.460  1.00  0.00     0.190 C 
BRANCH  39  40
HETATM   40  O10 UNL     1       1.912  14.469  25.324  1.00  0.00    -0.399 OA
ATOM     41  H10 UNL     1       1.517  14.936  24.597  1.00  0.00     0.209 HD
ENDBRANCH  39  40
ENDBRANCH  38  39
ENDBRANCH  37  38
ENDBRANCH  36  37
ENDBRANCH  34  36
ENDBRANCH  33  34
ENDBRANCH  12  33
BRANCH   9  42
HETATM   42  C11 UNL     1       3.751   5.667  28.780  1.00  0.00     0.274 C 
BRANCH  42  43
HETATM   43  N2  UNL     1       2.796   4.907  27.985  1.00  0.00    -0.311 N 
HETATM   44  C12 UNL     1       2.050   3.894  28.657  1.00  0.00     0.336 C 
HETATM   45  O5  UNL     1       2.229   3.681  29.906  1.00  0.00    -0.246 OA
HETATM   46  N3  UNL     1       1.098   3.094  27.996  1.00  0.00    -0.258 N 
ATOM     47  H3  UNL     1       0.924   3.233  27.001  1.00  0.00     0.191 HD
ATOM     48  H2  UNL     1       2.667   5.091  26.990  1.00  0.00     0.167 HD
BRANCH  46  49
HETATM   49  N4  UNL     1       0.397   2.122  28.684  1.00  0.00    -0.341 N 
ATOM     50  H42 UNL     1       0.588   1.991  29.677  1.00  0.00     0.177 HD
ATOM     51  H41 UNL     1      -0.297   1.547  28.207  1.00  0.00     0.177 HD
ENDBRANCH  46  49
ENDBRANCH  42  43
BRANCH  42  52
HETATM   52  O6  UNL     1       4.750   6.005  27.820  1.00  0.00    -0.279 OA
HETATM   53  S2  UNL     1       6.149   5.072  27.996  1.00  0.00     0.095 SA
ENDBRANCH  42  52
ENDBRANCH   9  42
TORSDOF 16
ENDMDL
MODEL 4
REMARK VINA RESULT: -7.486791119      1.461      2.083
REMARK  16 active torsions:
REMARK  status: ('A' for Active; 'I' for Inactive)
REMARK    1  A    between atoms: O1_2  and  C2_3 
REMARK    2  A    between atoms: C2_3  and  C3_5 
REMARK    3  A    between atoms: C4_6  and  C5_7 
REMARK    4  A    between atoms: C5_7  and  O4_9 
REMARK    5  A    between atoms: C10_17  and  C11_18 
REMARK    6  A    between atoms: C11_18  and  N2_19 
REMARK    7  A    between atoms: C11_18  and  O6_28 
REMARK       I    between atoms: N2_19  and  C12_21 
REMARK       I    between atoms: C12_21  and  N3_23 
REMARK    8  A    between atoms: N3_23  and  N4_25 
REMARK    9  A    between atoms: C13_32  and  O8_33 
REMARK   10  A    between atoms: O8_33  and  C14_34 
REMARK   11  A    between atoms: C14_34  and  C16_36 
REMARK   12  A    between atoms: C16_36  and  O9_37 
REMARK   13  A    between atoms: O9_37  and  C17_38 
REMARK   14  A    between atoms: C17_38  and  C18_39 
REMARK   15  A    between atoms: C18_39  and  O10_40 
REMARK   16  A    between atoms: C22_50  and  N8_51 
ROOT
HETATM    1  C3  UNL     1       3.539   8.999  27.442  1.00  0.00     0.130 A 
HETATM    2  C4  UNL     1       4.143  10.136  27.170  1.00  0.00     0.112 A 
HETATM    3  C7  UNL     1       5.351  10.551  27.941  1.00  0.00     0.227 A 
HETATM    4  N1  UNL     1       5.700   9.644  28.959  1.00  0.00    -0.338 N 
ATOM      5  H1  UNL     1       6.499   9.894  29.543  1.00  0.00     0.164 HD
HETATM    6  C8  UNL     1       5.101   8.511  29.233  1.00  0.00     0.093 A 
HETATM    7  C9  UNL     1       5.573   7.633  30.350  1.00  0.00     0.152 C 
HETATM    8  S1  UNL     1       4.041   6.725  30.655  1.00  0.00    -0.131 SA
HETATM    9  C10 UNL     1       3.445   6.826  28.884  1.00  0.00     0.203 C 
HETATM   10  N5  UNL     1       3.987   8.087  28.514  1.00  0.00    -0.312 N 
HETATM   11  O7  UNL     1       5.031  11.757  28.587  1.00  0.00    -0.317 OA
HETATM   12  C13 UNL     1       6.199  12.280  29.205  1.00  0.00     0.293 C 
HETATM   13  C19 UNL     1       7.153  12.771  28.210  1.00  0.00     0.194 C 
HETATM   14  N6  UNL     1       8.487  12.989  28.718  1.00  0.00    -0.328 N 
ATOM     15  H6  UNL     1       8.759  13.183  29.682  1.00  0.00     0.165 HD
HETATM   16  C20 UNL     1       9.367  12.874  27.551  1.00  0.00     0.321 C 
HETATM   17  O11 UNL     1      10.493  13.376  27.403  1.00  0.00    -0.247 OA
HETATM   18  N7  UNL     1       8.647  12.053  26.606  1.00  0.00    -0.308 N 
ATOM     19  H7  UNL     1       8.975  11.776  25.681  1.00  0.00     0.170 HD
HETATM   20  C21 UNL     1       7.388  11.695  27.199  1.00  0.00     0.075 C 
HETATM   21  C22 UNL     1       6.567  10.710  27.090  1.00  0.00     0.166 C 
ENDROOT
BRANCH   2  22
HETATM   22  C5  UNL     1       3.704  11.085  26.111  1.00  0.00     0.296 C 
HETATM   23  O3  UNL     1       3.145  12.152  26.153  1.00  0.00    -0.259 OA
BRANCH  22  24
HETATM   24  O4  UNL     1       3.993  10.669  24.772  1.00  0.00    -0.323 OA
HETATM   25  C6  UNL     1       3.421  11.362  23.666  1.00  0.00     0.213 C 
ENDBRANCH  22  24
ENDBRANCH   2  22
BRANCH  21  26
HETATM   26  N8  UNL     1       6.843   9.709  26.082  1.00  0.00    -0.112 N 
HETATM   27  O12 UNL     1       6.924   9.942  24.884  1.00  0.00    -0.532 OA
HETATM   28  O13 UNL     1       7.018   8.428  26.531  1.00  0.00    -0.532 OA
ENDBRANCH  21  26
BRANCH   1  29
HETATM   29  C2  UNL     1       2.371   8.564  26.720  1.00  0.00     0.310 C 
HETATM   30  O2  UNL     1       2.405   7.909  25.678  1.00  0.00    -0.258 OA
BRANCH  29  31
HETATM   31  O1  UNL     1       1.085   8.851  27.141  1.00  0.00    -0.321 OA
HETATM   32  C1  UNL     1       0.875   9.851  28.100  1.00  0.00     0.213 C 
ENDBRANCH  29  31
ENDBRANCH   1  29
BRANCH  12  33
HETATM   33  O8  UNL     1       5.760  13.340  29.994  1.00  0.00    -0.352 OA
BRANCH  33  34
HETATM   34  C14 UNL     1       6.022  13.143  31.341  1.00  0.00     0.144 C 
HETATM   35  C15 UNL     1       7.035  14.063  31.921  1.00  0.00     0.042 C 
BRANCH  34  36
HETATM   36  C16 UNL     1       4.773  13.220  32.190  1.00  0.00     0.199 C 
BRANCH  36  37
HETATM   37  O9  UNL     1       4.810  12.125  33.071  1.00  0.00    -0.387 OA
BRANCH  37  38
HETATM   38  C17 UNL     1       4.838  10.941  32.313  1.00  0.00     0.193 C 
BRANCH  38  39
HETATM   39  C18 UNL     1       3.409  10.545  31.998  1.00  0.00     0.190 C 
BRANCH  39  40
HETATM   40  O10 UNL     1       3.137  10.738  30.648  1.00  0.00    -0.399 OA
ATOM     41  H10 UNL     1       2.255  10.452  30.442  1.00  0.00     0.209 HD
ENDBRANCH  39  40
ENDBRANCH  38  39
ENDBRANCH  37  38
ENDBRANCH  36  37
ENDBRANCH  34  36
ENDBRANCH  33  34
ENDBRANCH  12  33
BRANCH   9  42
HETATM   42  C11 UNL     1       3.937   5.605  28.210  1.00  0.00     0.274 C 
BRANCH  42  43
HETATM   43  N2  UNL     1       4.890   4.810  28.972  1.00  0.00    -0.311 N 
HETATM   44  C12 UNL     1       6.211   4.700  28.447  1.00  0.00     0.336 C 
HETATM   45  O5  UNL     1       6.523   5.284  27.352  1.00  0.00    -0.246 OA
HETATM   46  N3  UNL     1       7.221   3.959  29.092  1.00  0.00    -0.258 N 
ATOM     47  H3  UNL     1       7.014   3.480  29.968  1.00  0.00     0.191 HD
ATOM     48  H2  UNL     1       4.624   4.351  29.843  1.00  0.00     0.167 HD
BRANCH  46  49
HETATM   49  N4  UNL     1       8.488   3.876  28.549  1.00  0.00    -0.341 N 
ATOM     50  H42 UNL     1       8.659   4.298  27.636  1.00  0.00     0.177 HD
ATOM     51  H41 UNL     1       9.239   3.402  29.052  1.00  0.00     0.177 HD
ENDBRANCH  46  49
ENDBRANCH  42  43
BRANCH  42  52
HETATM   52  O6  UNL     1       2.808   4.738  28.130  1.00  0.00    -0.279 OA
HETATM   53  S2  UNL     1       2.839   3.533  29.316  1.00  0.00     0.095 SA
ENDBRANCH  42  52
ENDBRANCH   9  42
TORSDOF 16
ENDMDL
MODEL 5
REMARK VINA RESULT: -7.378126192      1.813      2.805
REMARK  16 active torsions:
REMARK  status: ('A' for Active; 'I' for Inactive)
REMARK    1  A    between atoms: O1_2  and  C2_3 
REMARK    2  A    between atoms: C2_3  and  C3_5 
REMARK    3  A    between atoms: C4_6  and  C5_7 
REMARK    4  A    between atoms: C5_7  and  O4_9 
REMARK    5  A    between atoms: C10_17  and  C11_18 
REMARK    6  A    between atoms: C11_18  and  N2_19 
REMARK    7  A    between atoms: C11_18  and  O6_28 
REMARK       I    between atoms: N2_19  and  C12_21 
REMARK       I    between atoms: C12_21  and  N3_23 
REMARK    8  A    between atoms: N3_23  and  N4_25 
REMARK    9  A    between atoms: C13_32  and  O8_33 
REMARK   10  A    between atoms: O8_33  and  C14_34 
REMARK   11  A    between atoms: C14_34  and  C16_36 
REMARK   12  A    between atoms: C16_36  and  O9_37 
REMARK   13  A    between atoms: O9_37  and  C17_38 
REMARK   14  A    between atoms: C17_38  and  C18_39 
REMARK   15  A    between atoms: C18_39  and  O10_40 
REMARK   16  A    between atoms: C22_50  and  N8_51 
ROOT
HETATM    1  C3  UNL     1       3.493   8.999  27.500  1.00  0.00     0.130 A 
HETATM    2  C4  UNL     1       4.088  10.139  27.224  1.00  0.00     0.112 A 
HETATM    3  C7  UNL     1       5.296  10.565  27.989  1.00  0.00     0.227 A 
HETATM    4  N1  UNL     1       5.656   9.663  29.008  1.00  0.00    -0.338 N 
ATOM      5  H1  UNL     1       6.455   9.919  29.587  1.00  0.00     0.164 HD
HETATM    6  C8  UNL     1       5.066   8.526  29.287  1.00  0.00     0.093 A 
HETATM    7  C9  UNL     1       5.548   7.654  30.404  1.00  0.00     0.152 C 
HETATM    8  S1  UNL     1       4.024   6.736  30.717  1.00  0.00    -0.131 SA
HETATM    9  C10 UNL     1       3.420   6.828  28.948  1.00  0.00     0.203 C 
HETATM   10  N5  UNL     1       3.952   8.093  28.573  1.00  0.00    -0.312 N 
HETATM   11  O7  UNL     1       4.970  11.770  28.633  1.00  0.00    -0.317 OA
HETATM   12  C13 UNL     1       6.136  12.302  29.246  1.00  0.00     0.293 C 
HETATM   13  C19 UNL     1       7.083  12.798  28.246  1.00  0.00     0.194 C 
HETATM   14  N6  UNL     1       8.417  13.027  28.748  1.00  0.00    -0.328 N 
ATOM     15  H6  UNL     1       8.692  13.225  29.710  1.00  0.00     0.165 HD
HETATM   16  C20 UNL     1       9.294  12.915  27.578  1.00  0.00     0.321 C 
HETATM   17  O11 UNL     1      10.416  13.425  27.424  1.00  0.00    -0.247 OA
HETATM   18  N7  UNL     1       8.576  12.086  26.637  1.00  0.00    -0.308 N 
ATOM     19  H7  UNL     1       8.902  11.810  25.712  1.00  0.00     0.170 HD
HETATM   20  C21 UNL     1       7.322  11.721  27.236  1.00  0.00     0.075 C 
HETATM   21  C22 UNL     1       6.507  10.730  27.133  1.00  0.00     0.166 C 
ENDROOT
BRANCH   2  22
HETATM   22  C5  UNL     1       3.638  11.083  26.165  1.00  0.00     0.296 C 
HETATM   23  O3  UNL     1       3.098  12.159  26.207  1.00  0.00    -0.259 OA
BRANCH  22  24
HETATM   24  O4  UNL     1       3.885  10.645  24.823  1.00  0.00    -0.323 OA
HETATM   25  C6  UNL     1       3.431  11.423  23.719  1.00  0.00     0.213 C 
ENDBRANCH  22  24
ENDBRANCH   2  22
BRANCH  21  26
HETATM   26  N8  UNL     1       6.787   9.729  26.126  1.00  0.00    -0.112 N 
HETATM   27  O12 UNL     1       6.863   9.960  24.927  1.00  0.00    -0.532 OA
HETATM   28  O13 UNL     1       6.971   8.450  26.577  1.00  0.00    -0.532 OA
ENDBRANCH  21  26
BRANCH   1  29
HETATM   29  C2  UNL     1       2.326   8.553  26.784  1.00  0.00     0.310 C 
HETATM   30  O2  UNL     1       2.361   7.892  25.746  1.00  0.00    -0.258 OA
BRANCH  29  31
HETATM   31  O1  UNL     1       1.039   8.838  27.207  1.00  0.00    -0.321 OA
HETATM   32  C1  UNL     1       0.825   9.852  28.150  1.00  0.00     0.213 C 
ENDBRANCH  29  31
ENDBRANCH   1  29
BRANCH  12  33
HETATM   33  O8  UNL     1       5.693  13.361  30.033  1.00  0.00    -0.352 OA
BRANCH  33  34
HETATM   34  C14 UNL     1       5.893  13.135  31.387  1.00  0.00     0.144 C 
HETATM   35  C15 UNL     1       6.064  11.707  31.762  1.00  0.00     0.042 C 
BRANCH  34  36
HETATM   36  C16 UNL     1       7.070  13.912  31.935  1.00  0.00     0.199 C 
BRANCH  36  37
HETATM   37  O9  UNL     1       7.204  13.551  33.287  1.00  0.00    -0.387 OA
BRANCH  37  38
HETATM   38  C17 UNL     1       6.988  14.693  34.078  1.00  0.00     0.193 C 
BRANCH  38  39
HETATM   39  C18 UNL     1       8.021  15.736  33.698  1.00  0.00     0.190 C 
BRANCH  39  40
HETATM   40  O10 UNL     1       8.913  15.941  34.744  1.00  0.00    -0.399 OA
ATOM     41  H10 UNL     1       9.759  15.559  34.540  1.00  0.00     0.209 HD
ENDBRANCH  39  40
ENDBRANCH  38  39
ENDBRANCH  37  38
ENDBRANCH  36  37
ENDBRANCH  34  36
ENDBRANCH  33  34
ENDBRANCH  12  33
BRANCH   9  42
HETATM   42  C11 UNL     1       3.918   5.609  28.275  1.00  0.00     0.274 C 
BRANCH  42  43
HETATM   43  N2  UNL     1       4.878   4.822  29.036  1.00  0.00    -0.311 N 
HETATM   44  C12 UNL     1       6.190   4.693  28.490  1.00  0.00     0.336 C 
HETATM   45  O5  UNL     1       6.486   5.254  27.379  1.00  0.00    -0.246 OA
HETATM   46  N3  UNL     1       7.205   3.957  29.132  1.00  0.00    -0.258 N 
ATOM     47  H3  UNL     1       7.010   3.496  30.021  1.00  0.00     0.191 HD
ATOM     48  H2  UNL     1       4.624   4.382  29.920  1.00  0.00     0.167 HD
BRANCH  46  49
HETATM   49  N4  UNL     1       8.463   3.855  28.569  1.00  0.00    -0.341 N 
ATOM     50  H42 UNL     1       9.015   4.703  28.446  1.00  0.00     0.177 HD
ATOM     51  H41 UNL     1       8.831   2.947  28.282  1.00  0.00     0.177 HD
ENDBRANCH  46  49
ENDBRANCH  42  43
BRANCH  42  52
HETATM   52  O6  UNL     1       2.795   4.735  28.200  1.00  0.00    -0.279 OA
HETATM   53  S2  UNL     1       2.866   3.498  29.351  1.00  0.00     0.095 SA
ENDBRANCH  42  52
ENDBRANCH   9  42
TORSDOF 16
ENDMDL
