MODEL 1
REMARK VINA RESULT: -9.155758737      0.000      0.000
REMARK  16 active torsions:
REMARK  status: ('A' for Active; 'I' for Inactive)
REMARK    1  A    between atoms: O1_2  and  C2_3 
REMARK    2  A    between atoms: C2_3  and  C3_4 
REMARK    3  A    between atoms: C3_4  and  N1_5 
REMARK    4  A    between atoms: C3_4  and  C26_59 
REMARK       I    between atoms: N1_5  and  C4_7 
REMARK    5  A    between atoms: C4_7  and  C5_9 
REMARK    6  A    between atoms: C6_10  and  N2_11 
REMARK    7  A    between atoms: C8_13  and  C9_14 
REMARK    8  A    between atoms: C9_14  and  C10_16 
REMARK    9  A    between atoms: C10_16  and  N3_17 
REMARK   10  A    between atoms: C11_22  and  C12_23 
REMARK   11  A    between atoms: C15_29  and  C16_30 
REMARK   12  A    between atoms: C16_30  and  C17_31 
REMARK   13  A    between atoms: C19_38  and  O6_39 
REMARK   14  A    between atoms: C23_44  and  O7_45 
REMARK   15  A    between atoms: C24_51  and  N11_52 
REMARK   16  A    between atoms: C26_59  and  O9_61 
ROOT
HETATM    1  C9  UNL     1       0.801   3.403  31.087  1.00  0.00     0.198 C 
HETATM    2  O3  UNL     1      -0.438   3.524  30.757  1.00  0.00    -0.289 OA
ENDROOT
BRANCH   1   3
HETATM    3  C8  UNL     1       1.287   4.214  32.187  1.00  0.00     0.114 A 
HETATM    4  C7  UNL     1       1.166   5.603  32.313  1.00  0.00     0.153 A 
HETATM    5  N2  UNL     1       1.739   6.003  33.470  1.00  0.00    -0.245 N 
HETATM    6  N10 UNL     1       2.205   4.923  34.056  1.00  0.00    -0.235 N 
HETATM    7  N9  UNL     1       1.940   3.849  33.299  1.00  0.00    -0.281 N 
ATOM      8  H10 UNL     1       2.694   4.905  34.951  1.00  0.00     0.209 HD
ATOM      9  H9  UNL     1       2.197   2.890  33.536  1.00  0.00     0.188 HD
BRANCH   5  10
HETATM   10  C6  UNL     1       1.827   7.339  33.960  1.00  0.00     0.136 A 
HETATM   11  C5  UNL     1       0.961   7.943  34.901  1.00  0.00     0.151 A 
HETATM   12  N13 UNL     1       1.382   9.192  35.118  1.00  0.00    -0.288 N 
HETATM   13  N12 UNL     1       2.473   9.405  34.359  1.00  0.00    -0.281 N 
HETATM   14  C25 UNL     1       0.825  10.207  35.986  1.00  0.00     0.178 C 
HETATM   15  C24 UNL     1       2.751   8.303  33.659  1.00  0.00     0.145 A 
ATOM     16  H12 UNL     1       3.005  10.274  34.323  1.00  0.00     0.189 HD
BRANCH  11  17
HETATM   17  C4  UNL     1      -0.161   7.236  35.435  1.00  0.00     0.273 C 
HETATM   18  N1  UNL     1      -0.150   6.174  36.390  1.00  0.00    -0.340 N 
ATOM     19  H1  UNL     1       0.743   5.849  36.760  1.00  0.00     0.163 HD
HETATM   20  O2  UNL     1      -1.347   7.544  35.047  1.00  0.00    -0.266 OA
BRANCH  18  21
HETATM   21  C3  UNL     1      -1.357   5.556  36.841  1.00  0.00     0.208 C 
BRANCH  21  22
HETATM   22  C2  UNL     1      -1.449   5.316  38.291  1.00  0.00     0.202 C 
BRANCH  22  23
HETATM   23  O1  UNL     1      -0.328   5.192  39.037  1.00  0.00    -0.393 OA
HETATM   24  C1  UNL     1      -0.311   5.258  40.377  1.00  0.00     0.201 C 
ENDBRANCH  22  23
ENDBRANCH  21  22
BRANCH  21  25
HETATM   25  C26 UNL     1      -1.494   4.182  36.199  1.00  0.00     0.283 C 
HETATM   26  O8  UNL     1      -0.579   3.829  35.440  1.00  0.00    -0.263 OA
BRANCH  25  27
HETATM   27  O9  UNL     1      -2.562   3.365  36.436  1.00  0.00    -0.325 OA
HETATM   28  C27 UNL     1      -3.791   3.493  35.711  1.00  0.00     0.213 C 
ENDBRANCH  25  27
ENDBRANCH  21  25
ENDBRANCH  18  21
ENDBRANCH  11  17
BRANCH  15  29
HETATM   29  N11 UNL     1       3.738   8.154  32.828  1.00  0.00    -0.382 N 
ATOM     30 2H11 UNL     1       3.713   7.631  31.954  1.00  0.00     0.157 HD
ATOM     31 1H11 UNL     1       4.670   8.553  32.949  1.00  0.00     0.157 HD
ENDBRANCH  15  29
ENDBRANCH   5  10
ENDBRANCH   1   3
BRANCH   1  32
HETATM   32  C10 UNL     1       1.561   2.449  30.290  1.00  0.00     0.238 C 
BRANCH  32  33
HETATM   33  N3  UNL     1       2.900   2.988  30.057  1.00  0.00    -0.247 N 
HETATM   34  N4  UNL     1       3.931   2.843  30.900  1.00  0.00    -0.238 N 
HETATM   35  N5  UNL     1       4.979   3.461  30.408  1.00  0.00    -0.282 N 
ATOM     36  H4  UNL     1       3.905   2.333  31.783  1.00  0.00     0.208 HD
HETATM   37  C11 UNL     1       4.710   4.038  29.235  1.00  0.00     0.102 A 
ATOM     38  H5  UNL     1       5.889   3.496  30.867  1.00  0.00     0.188 HD
HETATM   39  C23 UNL     1       3.342   3.711  29.035  1.00  0.00     0.187 A 
BRANCH  37  40
HETATM   40  C12 UNL     1       5.485   4.815  28.292  1.00  0.00     0.053 C 
HETATM   41  C13 UNL     1       5.539   6.043  27.934  1.00  0.00     0.040 A 
HETATM   42  C14 UNL     1       6.525   6.388  26.884  1.00  0.00     0.256 A 
HETATM   43  C21 UNL     1       4.776   7.167  28.437  1.00  0.00    -0.044 A 
HETATM   44  O4  UNL     1       7.272   5.549  26.333  1.00  0.00    -0.267 OA
HETATM   45  N6  UNL     1       6.644   7.729  26.465  1.00  0.00    -0.326 N 
HETATM   46  C15 UNL     1       5.950   8.691  26.936  1.00  0.00     0.018 A 
ATOM     47  H6  UNL     1       7.329   7.943  25.740  1.00  0.00     0.169 HD
HETATM   48  C20 UNL     1       4.975   8.402  27.963  1.00  0.00     0.033 A 
HETATM   49  C22 UNL     1       3.787   7.008  29.523  1.00  0.00     0.049 C 
BRANCH  46  50
HETATM   50  C16 UNL     1       6.142  10.060  26.435  1.00  0.00     0.118 C 
BRANCH  50  51
HETATM   51  C17 UNL     1       5.184  10.280  25.297  1.00  0.00     0.070 A 
HETATM   52  N7  UNL     1       4.205  11.189  25.231  1.00  0.00    -0.308 N 
HETATM   53  C18 UNL     1       3.572  11.071  24.047  1.00  0.00     0.326 A 
ATOM     54  H7  UNL     1       3.974  11.865  25.960  1.00  0.00     0.170 HD
HETATM   55  O5  UNL     1       2.597  11.775  23.659  1.00  0.00    -0.247 OA
HETATM   56  N8  UNL     1       4.137  10.085  23.341  1.00  0.00    -0.287 N 
HETATM   57  C19 UNL     1       5.145   9.582  24.108  1.00  0.00     0.167 A 
ATOM     58  H8  UNL     1       3.867   9.771  22.409  1.00  0.00     0.172 HD
BRANCH  57  59
HETATM   59  O6  UNL     1       5.953   8.550  23.704  1.00  0.00    -0.345 OA
ATOM     60  H6  UNL     1       6.234   7.794  24.206  1.00  0.00     0.219 HD
ENDBRANCH  57  59
ENDBRANCH  50  51
ENDBRANCH  46  50
ENDBRANCH  37  40
BRANCH  39  61
HETATM   61  O7  UNL     1       2.630   4.113  27.919  1.00  0.00    -0.343 OA
ATOM     62  H7  UNL     1       2.719   3.790  27.030  1.00  0.00     0.219 HD
ENDBRANCH  39  61
ENDBRANCH  32  33
ENDBRANCH   1  32
TORSDOF 16
ENDMDL
MODEL 2
REMARK VINA RESULT: -9.009614585      2.860     10.129
REMARK  16 active torsions:
REMARK  status: ('A' for Active; 'I' for Inactive)
REMARK    1  A    between atoms: O1_2  and  C2_3 
REMARK    2  A    between atoms: C2_3  and  C3_4 
REMARK    3  A    between atoms: C3_4  and  N1_5 
REMARK    4  A    between atoms: C3_4  and  C26_59 
REMARK       I    between atoms: N1_5  and  C4_7 
REMARK    5  A    between atoms: C4_7  and  C5_9 
REMARK    6  A    between atoms: C6_10  and  N2_11 
REMARK    7  A    between atoms: C8_13  and  C9_14 
REMARK    8  A    between atoms: C9_14  and  C10_16 
REMARK    9  A    between atoms: C10_16  and  N3_17 
REMARK   10  A    between atoms: C11_22  and  C12_23 
REMARK   11  A    between atoms: C15_29  and  C16_30 
REMARK   12  A    between atoms: C16_30  and  C17_31 
REMARK   13  A    between atoms: C19_38  and  O6_39 
REMARK   14  A    between atoms: C23_44  and  O7_45 
REMARK   15  A    between atoms: C24_51  and  N11_52 
REMARK   16  A    between atoms: C26_59  and  O9_61 
ROOT
HETATM    1  C9  UNL     1       3.570   4.971  28.277  1.00  0.00     0.198 C 
HETATM    2  O3  UNL     1       2.663   4.303  27.652  1.00  0.00    -0.289 OA
ENDROOT
BRANCH   1   3
HETATM    3  C8  UNL     1       3.751   6.364  27.912  1.00  0.00     0.114 A 
HETATM    4  C7  UNL     1       4.948   6.970  27.514  1.00  0.00     0.153 A 
HETATM    5  N2  UNL     1       4.729   8.278  27.256  1.00  0.00    -0.245 N 
HETATM    6  N10 UNL     1       3.452   8.500  27.479  1.00  0.00    -0.235 N 
HETATM    7  N9  UNL     1       2.858   7.364  27.871  1.00  0.00    -0.281 N 
ATOM      8  H10 UNL     1       2.985   9.400  27.370  1.00  0.00     0.209 HD
ATOM      9  H9  UNL     1       1.870   7.272  28.104  1.00  0.00     0.188 HD
BRANCH   5  10
HETATM   10  C6  UNL     1       5.693   9.236  26.828  1.00  0.00     0.136 A 
HETATM   11  C5  UNL     1       6.510  10.032  27.664  1.00  0.00     0.151 A 
HETATM   12  N13 UNL     1       7.294  10.787  26.890  1.00  0.00    -0.288 N 
HETATM   13  N12 UNL     1       7.012  10.505  25.605  1.00  0.00    -0.281 N 
HETATM   14  C25 UNL     1       8.289  11.766  27.275  1.00  0.00     0.178 C 
HETATM   15  C24 UNL     1       6.054   9.578  25.552  1.00  0.00     0.145 A 
ATOM     16  H12 UNL     1       7.461  10.935  24.796  1.00  0.00     0.189 HD
BRANCH  11  17
HETATM   17  C4  UNL     1       6.397   9.967  29.088  1.00  0.00     0.273 C 
HETATM   18  N1  UNL     1       6.472   8.808  29.918  1.00  0.00    -0.340 N 
ATOM     19  H1  UNL     1       6.622   7.896  29.484  1.00  0.00     0.163 HD
HETATM   20  O2  UNL     1       6.199  11.046  29.758  1.00  0.00    -0.266 OA
BRANCH  18  21
HETATM   21  C3  UNL     1       6.344   8.890  31.339  1.00  0.00     0.208 C 
BRANCH  21  22
HETATM   22  C2  UNL     1       7.191   7.966  32.111  1.00  0.00     0.202 C 
BRANCH  22  23
HETATM   23  O1  UNL     1       6.947   6.636  32.092  1.00  0.00    -0.393 OA
HETATM   24  C1  UNL     1       7.583   5.772  31.285  1.00  0.00     0.201 C 
ENDBRANCH  22  23
ENDBRANCH  21  22
BRANCH  21  25
HETATM   25  C26 UNL     1       4.915   8.552  31.740  1.00  0.00     0.283 C 
HETATM   26  O8  UNL     1       4.260   7.867  30.939  1.00  0.00    -0.263 OA
BRANCH  25  27
HETATM   27  O9  UNL     1       4.364   8.971  32.916  1.00  0.00    -0.325 OA
HETATM   28  C27 UNL     1       3.612   8.091  33.760  1.00  0.00     0.213 C 
ENDBRANCH  25  27
ENDBRANCH  21  25
ENDBRANCH  18  21
ENDBRANCH  11  17
BRANCH  15  29
HETATM   29  N11 UNL     1       5.543   9.069  24.472  1.00  0.00    -0.382 N 
ATOM     30 2H11 UNL     1       6.057   8.591  23.732  1.00  0.00     0.157 HD
ATOM     31 1H11 UNL     1       4.551   9.080  24.232  1.00  0.00     0.157 HD
ENDBRANCH  15  29
ENDBRANCH   5  10
ENDBRANCH   1   3
BRANCH   1  32
HETATM   32  C10 UNL     1       4.306   4.220  29.284  1.00  0.00     0.238 C 
BRANCH  32  33
HETATM   33  N3  UNL     1       3.388   3.840  30.357  1.00  0.00    -0.247 N 
HETATM   34  N4  UNL     1       2.340   3.021  30.202  1.00  0.00    -0.238 N 
HETATM   35  N5  UNL     1       1.711   2.905  31.348  1.00  0.00    -0.282 N 
ATOM     36  H4  UNL     1       2.074   2.561  29.331  1.00  0.00     0.208 HD
HETATM   37  C11 UNL     1       2.294   3.624  32.309  1.00  0.00     0.102 A 
ATOM     38  H5  UNL     1       0.877   2.334  31.486  1.00  0.00     0.188 HD
HETATM   39  C23 UNL     1       3.387   4.224  31.628  1.00  0.00     0.187 A 
BRANCH  37  40
HETATM   40  C12 UNL     1       2.022   3.839  33.714  1.00  0.00     0.053 C 
HETATM   41  C13 UNL     1       1.372   4.697  34.406  1.00  0.00     0.040 A 
HETATM   42  C14 UNL     1       1.377   4.511  35.875  1.00  0.00     0.256 A 
HETATM   43  C21 UNL     1       0.600   5.833  33.945  1.00  0.00    -0.044 A 
HETATM   44  O4  UNL     1       1.989   3.585  36.453  1.00  0.00    -0.267 OA
HETATM   45  N6  UNL     1       0.662   5.414  36.687  1.00  0.00    -0.326 N 
HETATM   46  C15 UNL     1      -0.008   6.405  36.238  1.00  0.00     0.018 A 
ATOM     47  H6  UNL     1       0.680   5.267  37.696  1.00  0.00     0.169 HD
HETATM   48  C20 UNL     1      -0.041   6.626  34.811  1.00  0.00     0.033 A 
HETATM   49  C22 UNL     1       0.447   6.134  32.507  1.00  0.00     0.049 C 
BRANCH  46  50
HETATM   50  C16 UNL     1      -0.722   7.297  37.163  1.00  0.00     0.118 C 
BRANCH  50  51
HETATM   51  C17 UNL     1      -0.831   6.602  38.492  1.00  0.00     0.070 A 
HETATM   52  N7  UNL     1      -0.274   6.979  39.649  1.00  0.00    -0.308 N 
HETATM   53  C18 UNL     1      -0.610   6.096  40.609  1.00  0.00     0.326 A 
ATOM     54  H7  UNL     1       0.312   7.804  39.782  1.00  0.00     0.170 HD
HETATM   55  O5  UNL     1      -0.252   6.153  41.820  1.00  0.00    -0.247 OA
HETATM   56  N8  UNL     1      -1.387   5.143  40.081  1.00  0.00    -0.287 N 
HETATM   57  C19 UNL     1      -1.533   5.445  38.761  1.00  0.00     0.167 A 
ATOM     58  H8  UNL     1      -1.790   4.346  40.572  1.00  0.00     0.172 HD
BRANCH  57  59
HETATM   59  O6  UNL     1      -2.274   4.683  37.893  1.00  0.00    -0.345 OA
ATOM     60  H6  UNL     1      -2.754   4.969  37.125  1.00  0.00     0.219 HD
ENDBRANCH  57  59
ENDBRANCH  50  51
ENDBRANCH  46  50
ENDBRANCH  37  40
BRANCH  39  61
HETATM   61  O7  UNL     1       4.285   5.072  32.251  1.00  0.00    -0.343 OA
ATOM     62  H7  UNL     1       4.101   5.709  32.932  1.00  0.00     0.219 HD
ENDBRANCH  39  61
ENDBRANCH  32  33
ENDBRANCH   1  32
TORSDOF 16
ENDMDL
MODEL 3
REMARK VINA RESULT: -8.964532236      2.873      9.523
REMARK  16 active torsions:
REMARK  status: ('A' for Active; 'I' for Inactive)
REMARK    1  A    between atoms: O1_2  and  C2_3 
REMARK    2  A    between atoms: C2_3  and  C3_4 
REMARK    3  A    between atoms: C3_4  and  N1_5 
REMARK    4  A    between atoms: C3_4  and  C26_59 
REMARK       I    between atoms: N1_5  and  C4_7 
REMARK    5  A    between atoms: C4_7  and  C5_9 
REMARK    6  A    between atoms: C6_10  and  N2_11 
REMARK    7  A    between atoms: C8_13  and  C9_14 
REMARK    8  A    between atoms: C9_14  and  C10_16 
REMARK    9  A    between atoms: C10_16  and  N3_17 
REMARK   10  A    between atoms: C11_22  and  C12_23 
REMARK   11  A    between atoms: C15_29  and  C16_30 
REMARK   12  A    between atoms: C16_30  and  C17_31 
REMARK   13  A    between atoms: C19_38  and  O6_39 
REMARK   14  A    between atoms: C23_44  and  O7_45 
REMARK   15  A    between atoms: C24_51  and  N11_52 
REMARK   16  A    between atoms: C26_59  and  O9_61 
ROOT
HETATM    1  C9  UNL     1       6.806   7.255  27.781  1.00  0.00     0.198 C 
HETATM    2  O3  UNL     1       7.213   7.256  29.003  1.00  0.00    -0.289 OA
ENDROOT
BRANCH   1   3
HETATM    3  C8  UNL     1       6.691   8.537  27.109  1.00  0.00     0.114 A 
HETATM    4  C7  UNL     1       6.544   9.786  27.722  1.00  0.00     0.153 A 
HETATM    5  N2  UNL     1       6.469  10.747  26.775  1.00  0.00    -0.245 N 
HETATM    6  N10 UNL     1       6.562  10.142  25.612  1.00  0.00    -0.235 N 
HETATM    7  N9  UNL     1       6.695   8.822  25.799  1.00  0.00    -0.281 N 
ATOM      8  H10 UNL     1       6.536  10.607  24.704  1.00  0.00     0.209 HD
ATOM      9  H9  UNL     1       6.788   8.133  25.053  1.00  0.00     0.188 HD
BRANCH   5  10
HETATM   10  C6  UNL     1       6.314  12.148  26.992  1.00  0.00     0.136 A 
HETATM   11  C5  UNL     1       5.090  12.845  27.115  1.00  0.00     0.151 A 
HETATM   12  N13 UNL     1       5.361  14.135  27.332  1.00  0.00    -0.288 N 
HETATM   13  N12 UNL     1       6.698  14.285  27.351  1.00  0.00    -0.281 N 
HETATM   14  C25 UNL     1       4.448  15.243  27.513  1.00  0.00     0.178 C 
HETATM   15  C24 UNL     1       7.283  13.103  27.149  1.00  0.00     0.145 A 
ATOM     16  H12 UNL     1       7.189  15.167  27.497  1.00  0.00     0.189 HD
BRANCH  11  17
HETATM   17  C4  UNL     1       3.837  12.170  26.982  1.00  0.00     0.273 C 
HETATM   18  N1  UNL     1       3.238  11.253  27.897  1.00  0.00    -0.340 N 
ATOM     19  H1  UNL     1       3.728  11.021  28.761  1.00  0.00     0.163 HD
HETATM   20  O2  UNL     1       3.119  12.368  25.934  1.00  0.00    -0.266 OA
BRANCH  18  21
HETATM   21  C3  UNL     1       1.968  10.650  27.635  1.00  0.00     0.208 C 
BRANCH  21  22
HETATM   22  C2  UNL     1       0.875  11.043  28.540  1.00  0.00     0.202 C 
BRANCH  22  23
HETATM   23  O1  UNL     1       0.031  12.043  28.200  1.00  0.00    -0.393 OA
HETATM   24  C1  UNL     1       0.273  13.341  28.447  1.00  0.00     0.201 C 
ENDBRANCH  22  23
ENDBRANCH  21  22
BRANCH  21  25
HETATM   25  C26 UNL     1       2.084   9.139  27.783  1.00  0.00     0.283 C 
HETATM   26  O8  UNL     1       2.118   8.694  28.940  1.00  0.00    -0.263 OA
BRANCH  25  27
HETATM   27  O9  UNL     1       2.149   8.300  26.707  1.00  0.00    -0.325 OA
HETATM   28  C27 UNL     1       3.155   8.436  25.696  1.00  0.00     0.213 C 
ENDBRANCH  25  27
ENDBRANCH  21  25
ENDBRANCH  18  21
ENDBRANCH  11  17
BRANCH  15  29
HETATM   29  N11 UNL     1       8.562  12.879  27.110  1.00  0.00    -0.382 N 
ATOM     30 2H11 UNL     1       9.062  12.382  26.374  1.00  0.00     0.157 HD
ATOM     31 1H11 UNL     1       9.230  13.182  27.819  1.00  0.00     0.157 HD
ENDBRANCH  15  29
ENDBRANCH   5  10
ENDBRANCH   1   3
BRANCH   1  32
HETATM   32  C10 UNL     1       6.509   5.940  27.230  1.00  0.00     0.238 C 
BRANCH  32  33
HETATM   33  N3  UNL     1       5.832   5.141  28.250  1.00  0.00    -0.247 N 
HETATM   34  N4  UNL     1       6.433   4.214  29.007  1.00  0.00    -0.238 N 
HETATM   35  N5  UNL     1       5.545   3.666  29.803  1.00  0.00    -0.282 N 
ATOM     36  H4  UNL     1       7.423   3.972  28.970  1.00  0.00     0.208 HD
HETATM   37  C11 UNL     1       4.329   4.188  29.625  1.00  0.00     0.102 A 
ATOM     38  H5  UNL     1       5.758   2.930  30.476  1.00  0.00     0.188 HD
HETATM   39  C23 UNL     1       4.552   5.149  28.602  1.00  0.00     0.187 A 
BRANCH  37  40
HETATM   40  C12 UNL     1       3.034   3.959  30.228  1.00  0.00     0.053 C 
HETATM   41  C13 UNL     1       2.470   4.253  31.339  1.00  0.00     0.040 A 
HETATM   42  C14 UNL     1       1.078   3.784  31.524  1.00  0.00     0.256 A 
HETATM   43  C21 UNL     1       3.003   5.014  32.451  1.00  0.00    -0.044 A 
HETATM   44  O4  UNL     1       0.454   3.114  30.671  1.00  0.00    -0.267 OA
HETATM   45  N6  UNL     1       0.399   4.096  32.719  1.00  0.00    -0.326 N 
HETATM   46  C15 UNL     1       0.908   4.771  33.677  1.00  0.00     0.018 A 
ATOM     47  H6  UNL     1      -0.559   3.762  32.825  1.00  0.00     0.169 HD
HETATM   48  C20 UNL     1       2.264   5.249  33.540  1.00  0.00     0.033 A 
HETATM   49  C22 UNL     1       4.359   5.600  32.410  1.00  0.00     0.049 C 
BRANCH  46  50
HETATM   50  C16 UNL     1       0.122   5.046  34.889  1.00  0.00     0.118 C 
BRANCH  50  51
HETATM   51  C17 UNL     1       0.183   6.524  35.160  1.00  0.00     0.070 A 
HETATM   52  N7  UNL     1      -0.355   7.502  34.422  1.00  0.00    -0.308 N 
HETATM   53  C18 UNL     1      -0.084   8.689  34.999  1.00  0.00     0.326 A 
ATOM     54  H7  UNL     1      -0.884   7.370  33.560  1.00  0.00     0.170 HD
HETATM   55  O5  UNL     1      -0.443   9.820  34.563  1.00  0.00    -0.247 OA
HETATM   56  N8  UNL     1       0.629   8.487  36.113  1.00  0.00    -0.287 N 
HETATM   57  C19 UNL     1       0.803   7.140  36.226  1.00  0.00     0.167 A 
ATOM     58  H8  UNL     1       0.974   9.202  36.753  1.00  0.00     0.172 HD
BRANCH  57  59
HETATM   59  O6  UNL     1       1.492   6.556  37.259  1.00  0.00    -0.345 OA
ATOM     60  H6  UNL     1       1.193   6.394  38.146  1.00  0.00     0.219 HD
ENDBRANCH  57  59
ENDBRANCH  50  51
ENDBRANCH  46  50
ENDBRANCH  37  40
BRANCH  39  61
HETATM   61  O7  UNL     1       3.544   5.947  28.091  1.00  0.00    -0.343 OA
ATOM     62  H7  UNL     1       3.214   5.961  27.200  1.00  0.00     0.219 HD
ENDBRANCH  39  61
ENDBRANCH  32  33
ENDBRANCH   1  32
TORSDOF 16
ENDMDL
MODEL 4
REMARK VINA RESULT: -8.948404072      4.474      7.893
REMARK  16 active torsions:
REMARK  status: ('A' for Active; 'I' for Inactive)
REMARK    1  A    between atoms: O1_2  and  C2_3 
REMARK    2  A    between atoms: C2_3  and  C3_4 
REMARK    3  A    between atoms: C3_4  and  N1_5 
REMARK    4  A    between atoms: C3_4  and  C26_59 
REMARK       I    between atoms: N1_5  and  C4_7 
REMARK    5  A    between atoms: C4_7  and  C5_9 
REMARK    6  A    between atoms: C6_10  and  N2_11 
REMARK    7  A    between atoms: C8_13  and  C9_14 
REMARK    8  A    between atoms: C9_14  and  C10_16 
REMARK    9  A    between atoms: C10_16  and  N3_17 
REMARK   10  A    between atoms: C11_22  and  C12_23 
REMARK   11  A    between atoms: C15_29  and  C16_30 
REMARK   12  A    between atoms: C16_30  and  C17_31 
REMARK   13  A    between atoms: C19_38  and  O6_39 
REMARK   14  A    between atoms: C23_44  and  O7_45 
REMARK   15  A    between atoms: C24_51  and  N11_52 
REMARK   16  A    between atoms: C26_59  and  O9_61 
ROOT
HETATM    1  C9  UNL     1       0.229   4.968  39.449  1.00  0.00     0.198 C 
HETATM    2  O3  UNL     1       1.410   4.457  39.508  1.00  0.00    -0.289 OA
ENDROOT
BRANCH   1   3
HETATM    3  C8  UNL     1      -0.360   5.448  40.686  1.00  0.00     0.114 A 
HETATM    4  C7  UNL     1       0.075   6.540  41.445  1.00  0.00     0.153 A 
HETATM    5  N2  UNL     1      -0.719   6.680  42.529  1.00  0.00    -0.245 N 
HETATM    6  N10 UNL     1      -1.619   5.723  42.468  1.00  0.00    -0.235 N 
HETATM    7  N9  UNL     1      -1.414   4.981  41.370  1.00  0.00    -0.281 N 
ATOM      8  H10 UNL     1      -2.359   5.569  43.152  1.00  0.00     0.209 HD
ATOM      9  H9  UNL     1      -1.979   4.178  41.096  1.00  0.00     0.188 HD
BRANCH   5  10
HETATM   10  C6  UNL     1      -0.604   7.672  43.547  1.00  0.00     0.136 A 
HETATM   11  C5  UNL     1      -1.051   9.011  43.466  1.00  0.00     0.151 A 
HETATM   12  N13 UNL     1      -0.781   9.615  44.626  1.00  0.00    -0.288 N 
HETATM   13  N12 UNL     1      -0.185   8.721  45.436  1.00  0.00    -0.281 N 
HETATM   14  C25 UNL     1      -1.036  10.983  45.026  1.00  0.00     0.178 C 
HETATM   15  C24 UNL     1      -0.072   7.551  44.803  1.00  0.00     0.145 A 
ATOM     16  H12 UNL     1       0.131   8.909  46.387  1.00  0.00     0.189 HD
BRANCH  11  17
HETATM   17  C4  UNL     1      -1.650   9.520  42.271  1.00  0.00     0.273 C 
HETATM   18  N1  UNL     1      -2.883   9.117  41.674  1.00  0.00    -0.340 N 
ATOM     19  H1  UNL     1      -3.433   8.381  42.117  1.00  0.00     0.163 HD
HETATM   20  O2  UNL     1      -1.056  10.448  41.610  1.00  0.00    -0.266 OA
BRANCH  18  21
HETATM   21  C3  UNL     1      -3.367   9.719  40.471  1.00  0.00     0.208 C 
BRANCH  21  22
HETATM   22  C2  UNL     1      -4.796  10.073  40.464  1.00  0.00     0.202 C 
BRANCH  22  23
HETATM   23  O1  UNL     1      -5.741   9.106  40.450  1.00  0.00    -0.393 OA
HETATM   24  C1  UNL     1      -6.473   8.762  41.521  1.00  0.00     0.201 C 
ENDBRANCH  22  23
ENDBRANCH  21  22
BRANCH  21  25
HETATM   25  C26 UNL     1      -3.191   8.747  39.311  1.00  0.00     0.283 C 
HETATM   26  O8  UNL     1      -3.300   9.218  38.170  1.00  0.00    -0.263 OA
BRANCH  25  27
HETATM   27  O9  UNL     1      -2.925   7.421  39.500  1.00  0.00    -0.325 OA
HETATM   28  C27 UNL     1      -3.863   6.399  39.140  1.00  0.00     0.213 C 
ENDBRANCH  25  27
ENDBRANCH  21  25
ENDBRANCH  18  21
ENDBRANCH  11  17
BRANCH  15  29
HETATM   29  N11 UNL     1       0.450   6.467  45.290  1.00  0.00    -0.382 N 
ATOM     30 2H11 UNL     1       0.747   5.651  44.755  1.00  0.00     0.157 HD
ATOM     31 1H11 UNL     1       0.633   6.298  46.280  1.00  0.00     0.157 HD
ENDBRANCH  15  29
ENDBRANCH   5  10
ENDBRANCH   1   3
BRANCH   1  32
HETATM   32  C10 UNL     1      -0.366   4.994  38.119  1.00  0.00     0.238 C 
BRANCH  32  33
HETATM   33  N3  UNL     1       0.581   5.605  37.188  1.00  0.00    -0.247 N 
HETATM   34  N4  UNL     1       1.199   6.774  37.396  1.00  0.00    -0.238 N 
HETATM   35  N5  UNL     1       1.961   7.048  36.364  1.00  0.00    -0.282 N 
ATOM     36  H4  UNL     1       1.094   7.359  38.226  1.00  0.00     0.208 HD
HETATM   37  C11 UNL     1       1.895   6.095  35.431  1.00  0.00     0.102 A 
ATOM     38  H5  UNL     1       2.535   7.887  36.284  1.00  0.00     0.188 HD
HETATM   39  C23 UNL     1       0.983   5.167  36.001  1.00  0.00     0.187 A 
BRANCH  37  40
HETATM   40  C12 UNL     1       2.520   5.902  34.141  1.00  0.00     0.053 C 
HETATM   41  C13 UNL     1       3.706   5.991  33.669  1.00  0.00     0.040 A 
HETATM   42  C14 UNL     1       3.875   5.693  32.228  1.00  0.00     0.256 A 
HETATM   43  C21 UNL     1       4.934   6.325  34.362  1.00  0.00    -0.044 A 
HETATM   44  O4  UNL     1       2.928   5.384  31.469  1.00  0.00    -0.267 OA
HETATM   45  N6  UNL     1       5.162   5.754  31.657  1.00  0.00    -0.326 N 
HETATM   46  C15 UNL     1       6.220   6.054  32.306  1.00  0.00     0.018 A 
ATOM     47  H6  UNL     1       5.254   5.546  30.663  1.00  0.00     0.169 HD
HETATM   48  C20 UNL     1       6.104   6.353  33.715  1.00  0.00     0.033 A 
HETATM   49  C22 UNL     1       4.953   6.600  35.814  1.00  0.00     0.049 C 
BRANCH  46  50
HETATM   50  C16 UNL     1       7.522   6.096  31.625  1.00  0.00     0.118 C 
BRANCH  50  51
HETATM   51  C17 UNL     1       7.330   5.594  30.220  1.00  0.00     0.070 A 
HETATM   52  N7  UNL     1       7.427   6.303  29.089  1.00  0.00    -0.308 N 
HETATM   53  C18 UNL     1       7.189   5.493  28.039  1.00  0.00     0.326 A 
ATOM     54  H7  UNL     1       7.645   7.298  29.032  1.00  0.00     0.170 HD
HETATM   55  O5  UNL     1       7.200   5.840  26.824  1.00  0.00    -0.247 OA
HETATM   56  N8  UNL     1       6.939   4.256  28.483  1.00  0.00    -0.287 N 
HETATM   57  C19 UNL     1       7.023   4.304  29.842  1.00  0.00     0.167 A 
ATOM     58  H8  UNL     1       6.726   3.437  27.915  1.00  0.00     0.172 HD
BRANCH  57  59
HETATM   59  O6  UNL     1       6.825   3.210  30.647  1.00  0.00    -0.345 OA
ATOM     60  H6  UNL     1       6.529   2.343  30.395  1.00  0.00     0.219 HD
ENDBRANCH  57  59
ENDBRANCH  50  51
ENDBRANCH  46  50
ENDBRANCH  37  40
BRANCH  39  61
HETATM   61  O7  UNL     1       0.609   3.996  35.366  1.00  0.00    -0.343 OA
ATOM     62  H7  UNL     1      -0.085   3.882  34.727  1.00  0.00     0.219 HD
ENDBRANCH  39  61
ENDBRANCH  32  33
ENDBRANCH   1  32
TORSDOF 16
ENDMDL
MODEL 5
REMARK VINA RESULT: -8.936278564      3.056      9.964
REMARK  16 active torsions:
REMARK  status: ('A' for Active; 'I' for Inactive)
REMARK    1  A    between atoms: O1_2  and  C2_3 
REMARK    2  A    between atoms: C2_3  and  C3_4 
REMARK    3  A    between atoms: C3_4  and  N1_5 
REMARK    4  A    between atoms: C3_4  and  C26_59 
REMARK       I    between atoms: N1_5  and  C4_7 
REMARK    5  A    between atoms: C4_7  and  C5_9 
REMARK    6  A    between atoms: C6_10  and  N2_11 
REMARK    7  A    between atoms: C8_13  and  C9_14 
REMARK    8  A    between atoms: C9_14  and  C10_16 
REMARK    9  A    between atoms: C10_16  and  N3_17 
REMARK   10  A    between atoms: C11_22  and  C12_23 
REMARK   11  A    between atoms: C15_29  and  C16_30 
REMARK   12  A    between atoms: C16_30  and  C17_31 
REMARK   13  A    between atoms: C19_38  and  O6_39 
REMARK   14  A    between atoms: C23_44  and  O7_45 
REMARK   15  A    between atoms: C24_51  and  N11_52 
REMARK   16  A    between atoms: C26_59  and  O9_61 
ROOT
HETATM    1  C9  UNL     1       3.472   5.071  28.312  1.00  0.00     0.198 C 
HETATM    2  O3  UNL     1       2.536   4.468  27.665  1.00  0.00    -0.289 OA
ENDROOT
BRANCH   1   3
HETATM    3  C8  UNL     1       3.712   6.469  28.003  1.00  0.00     0.114 A 
HETATM    4  C7  UNL     1       4.884   7.011  27.465  1.00  0.00     0.153 A 
HETATM    5  N2  UNL     1       4.737   8.346  27.316  1.00  0.00    -0.245 N 
HETATM    6  N10 UNL     1       3.528   8.645  27.739  1.00  0.00    -0.235 N 
HETATM    7  N9  UNL     1       2.907   7.530  28.151  1.00  0.00    -0.281 N 
ATOM      8  H10 UNL     1       3.125   9.581  27.751  1.00  0.00     0.209 HD
ATOM      9  H9  UNL     1       1.957   7.495  28.523  1.00  0.00     0.188 HD
BRANCH   5  10
HETATM   10  C6  UNL     1       5.705   9.259  26.803  1.00  0.00     0.136 A 
HETATM   11  C5  UNL     1       6.545  10.102  27.566  1.00  0.00     0.151 A 
HETATM   12  N13 UNL     1       7.324  10.789  26.727  1.00  0.00    -0.288 N 
HETATM   13  N12 UNL     1       7.016  10.420  25.470  1.00  0.00    -0.281 N 
HETATM   14  C25 UNL     1       8.337  11.781  27.022  1.00  0.00     0.178 C 
HETATM   15  C24 UNL     1       6.046   9.503  25.500  1.00  0.00     0.145 A 
ATOM     16  H12 UNL     1       7.455  10.784  24.625  1.00  0.00     0.189 HD
BRANCH  11  17
HETATM   17  C4  UNL     1       6.457  10.141  28.993  1.00  0.00     0.273 C 
HETATM   18  N1  UNL     1       6.478   9.038  29.899  1.00  0.00    -0.340 N 
ATOM     19  H1  UNL     1       6.563   8.092  29.527  1.00  0.00     0.163 HD
HETATM   20  O2  UNL     1       6.340  11.274  29.590  1.00  0.00    -0.266 OA
BRANCH  18  21
HETATM   21  C3  UNL     1       6.384   9.225  31.313  1.00  0.00     0.208 C 
BRANCH  21  22
HETATM   22  C2  UNL     1       7.009   8.178  32.139  1.00  0.00     0.202 C 
BRANCH  22  23
HETATM   23  O1  UNL     1       6.893   6.875  31.796  1.00  0.00    -0.393 OA
HETATM   24  C1  UNL     1       7.912   6.129  31.342  1.00  0.00     0.201 C 
ENDBRANCH  22  23
ENDBRANCH  21  22
BRANCH  21  25
HETATM   25  C26 UNL     1       4.919   9.238  31.727  1.00  0.00     0.283 C 
HETATM   26  O8  UNL     1       4.103   8.808  30.897  1.00  0.00    -0.263 OA
BRANCH  25  27
HETATM   27  O9  UNL     1       4.505   9.695  32.944  1.00  0.00    -0.325 OA
HETATM   28  C27 UNL     1       4.752  11.039  33.376  1.00  0.00     0.213 C 
ENDBRANCH  25  27
ENDBRANCH  21  25
ENDBRANCH  18  21
ENDBRANCH  11  17
BRANCH  15  29
HETATM   29  N11 UNL     1       5.510   8.924  24.469  1.00  0.00    -0.382 N 
ATOM     30 2H11 UNL     1       5.978   8.710  23.590  1.00  0.00     0.157 HD
ATOM     31 1H11 UNL     1       4.542   8.604  24.415  1.00  0.00     0.157 HD
ENDBRANCH  15  29
ENDBRANCH   5  10
ENDBRANCH   1   3
BRANCH   1  32
HETATM   32  C10 UNL     1       4.177   4.249  29.286  1.00  0.00     0.238 C 
BRANCH  32  33
HETATM   33  N3  UNL     1       3.883   4.746  30.628  1.00  0.00    -0.247 N 
HETATM   34  N4  UNL     1       4.296   5.928  31.104  1.00  0.00    -0.238 N 
HETATM   35  N5  UNL     1       3.885   6.061  32.343  1.00  0.00    -0.282 N 
ATOM     36  H4  UNL     1       4.844   6.616  30.585  1.00  0.00     0.208 HD
HETATM   37  C11 UNL     1       3.189   4.998  32.752  1.00  0.00     0.102 A 
ATOM     38  H5  UNL     1       4.074   6.878  32.924  1.00  0.00     0.188 HD
HETATM   39  C23 UNL     1       3.208   4.156  31.607  1.00  0.00     0.187 A 
BRANCH  37  40
HETATM   40  C12 UNL     1       2.523   4.641  33.986  1.00  0.00     0.053 C 
HETATM   41  C13 UNL     1       1.425   4.953  34.564  1.00  0.00     0.040 A 
HETATM   42  C14 UNL     1       1.156   4.317  35.874  1.00  0.00     0.256 A 
HETATM   43  C21 UNL     1       0.377   5.839  34.098  1.00  0.00    -0.044 A 
HETATM   44  O4  UNL     1       1.946   3.523  36.433  1.00  0.00    -0.267 OA
HETATM   45  N6  UNL     1      -0.047   4.606  36.548  1.00  0.00    -0.326 N 
HETATM   46  C15 UNL     1      -0.946   5.395  36.100  1.00  0.00     0.018 A 
ATOM     47  H6  UNL     1      -0.211   4.157  37.448  1.00  0.00     0.169 HD
HETATM   48  C20 UNL     1      -0.728   6.039  34.825  1.00  0.00     0.033 A 
HETATM   49  C22 UNL     1       0.460   6.515  32.787  1.00  0.00     0.049 C 
BRANCH  46  50
HETATM   50  C16 UNL     1      -2.172   5.639  36.875  1.00  0.00     0.118 C 
BRANCH  50  51
HETATM   51  C17 UNL     1      -3.304   4.916  36.199  1.00  0.00     0.070 A 
HETATM   52  N7  UNL     1      -4.468   5.437  35.795  1.00  0.00    -0.308 N 
HETATM   53  C18 UNL     1      -5.214   4.467  35.232  1.00  0.00     0.326 A 
ATOM     54  H7  UNL     1      -4.746   6.413  35.897  1.00  0.00     0.170 HD
HETATM   55  O5  UNL     1      -6.371   4.615  34.746  1.00  0.00    -0.247 OA
HETATM   56  N8  UNL     1      -4.538   3.313  35.268  1.00  0.00    -0.287 N 
HETATM   57  C19 UNL     1      -3.344   3.577  35.868  1.00  0.00     0.167 A 
ATOM     58  H8  UNL     1      -4.855   2.410  34.914  1.00  0.00     0.172 HD
BRANCH  57  59
HETATM   59  O6  UNL     1      -2.380   2.624  36.078  1.00  0.00    -0.345 OA
ATOM     60  H6  UNL     1      -1.572   2.705  36.571  1.00  0.00     0.219 HD
ENDBRANCH  57  59
ENDBRANCH  50  51
ENDBRANCH  46  50
ENDBRANCH  37  40
BRANCH  39  61
HETATM   61  O7  UNL     1       2.593   2.918  31.576  1.00  0.00    -0.343 OA
ATOM     62  H7  UNL     1       2.003   2.550  32.224  1.00  0.00     0.219 HD
ENDBRANCH  39  61
ENDBRANCH  32  33
ENDBRANCH   1  32
TORSDOF 16
ENDMDL
