MODEL 1
REMARK VINA RESULT: -8.173167833      0.000      0.000
REMARK  15 active torsions:
REMARK  status: ('A' for Active; 'I' for Inactive)
REMARK    1  A    between atoms: O1_2  and  C2_3 
REMARK       I    between atoms: C2_3  and  N1_5 
REMARK    2  A    between atoms: C3_6  and  C4_7 
REMARK    3  A    between atoms: C5_10  and  N2_11 
REMARK    4  A    between atoms: C9_20  and  N5_21 
REMARK    5  A    between atoms: C11_28  and  C12_29 
REMARK    6  A    between atoms: C12_29  and  S1_30 
REMARK    7  A    between atoms: S1_30  and  S2_31 
REMARK    8  A    between atoms: S2_31  and  C13_32 
REMARK    9  A    between atoms: C15_39  and  C16_40 
REMARK   10  A    between atoms: C16_40  and  O8_41 
REMARK   11  A    between atoms: C16_40  and  C17_43 
REMARK   12  A    between atoms: C17_43  and  O9_44 
REMARK   13  A    between atoms: O9_44  and  N9_45 
REMARK   14  A    between atoms: N9_45  and  N10_46 
REMARK   15  A    between atoms: N9_45  and  O11_51 
REMARK       I    between atoms: N10_46  and  C18_48 
ROOT
HETATM    1  C2  UNL     1       0.847   5.981  33.642  1.00  0.00     0.369 C 
HETATM    2  O2  UNL     1       0.224   6.975  34.182  1.00  0.00    -0.238 OA
HETATM    3  N1  UNL     1       1.642   6.245  32.520  1.00  0.00    -0.255 N 
HETATM    4  C3  UNL     1       2.374   5.249  31.748  1.00  0.00     0.170 C 
HETATM    5  C5  UNL     1       3.450   5.877  31.260  1.00  0.00     0.188 C 
HETATM    6  O6  UNL     1       3.415   7.203  31.689  1.00  0.00    -0.306 OA
HETATM    7  C11 UNL     1       2.008   7.457  31.827  1.00  0.00     0.252 C 
ENDROOT
BRANCH   7   8
HETATM    8  C12 UNL     1       1.696   8.734  32.442  1.00  0.00     0.141 C 
BRANCH   8   9
HETATM    9  S1  UNL     1       1.663  10.193  31.400  1.00  0.00    -0.086 SA
BRANCH   9  10
HETATM   10  S2  UNL     1       3.614  10.594  30.608  1.00  0.00    -0.036 SA
BRANCH  10  11
HETATM   11  C13 UNL     1       3.969   9.489  29.250  1.00  0.00     0.133 C 
HETATM   12  N7  UNL     1       3.036   9.297  28.364  1.00  0.00    -0.299 N 
HETATM   13  C14 UNL     1       3.258   8.429  27.262  1.00  0.00     0.321 C 
ATOM     14  H7  UNL     1       2.139   9.773  28.461  1.00  0.00     0.171 HD
HETATM   15  O7  UNL     1       2.360   8.226  26.382  1.00  0.00    -0.247 OA
HETATM   16  N8  UNL     1       4.485   7.763  27.109  1.00  0.00    -0.328 N 
HETATM   17  C15 UNL     1       5.513   7.819  28.116  1.00  0.00     0.194 C 
ATOM     18  H8  UNL     1       4.652   7.223  26.260  1.00  0.00     0.165 HD
HETATM   19  C21 UNL     1       5.241   8.814  29.133  1.00  0.00     0.208 C 
HETATM   20  O12 UNL     1       6.175   9.117  29.983  1.00  0.00    -0.288 OA
BRANCH  17  21
HETATM   21  C16 UNL     1       6.814   8.030  27.363  1.00  0.00     0.174 C 
BRANCH  21  22
HETATM   22  O8  UNL     1       7.198   6.907  26.680  1.00  0.00    -0.391 OA
ATOM     23  H8  UNL     1       7.272   6.152  27.252  1.00  0.00     0.210 HD
ENDBRANCH  21  22
BRANCH  21  24
HETATM   24  C17 UNL     1       6.882   9.310  26.596  1.00  0.00     0.232 C 
BRANCH  24  25
HETATM   25  O9  UNL     1       6.347   9.134  25.304  1.00  0.00    -0.258 OA
BRANCH  25  26
HETATM   26  N9  UNL     1       5.398   9.999  24.978  1.00  0.00     0.040 NA
BRANCH  26  27
HETATM   27  N10 UNL     1       5.502  11.266  25.529  1.00  0.00    -0.241 N 
HETATM   28  C18 UNL     1       4.394  12.016  26.006  1.00  0.00     0.231 C 
HETATM   29  C19 UNL     1       4.543  13.363  26.590  1.00  0.00     0.118 C 
HETATM   30  O10 UNL     1       3.245  11.466  25.907  1.00  0.00    -0.273 OA
ATOM     31  H10 UNL     1       6.430  11.686  25.596  1.00  0.00     0.188 HD
ENDBRANCH  26  27
BRANCH  26  32
HETATM   32  O11 UNL     1       5.283  10.100  23.645  1.00  0.00    -0.266 OA
HETATM   33  C20 UNL     1       4.173   9.429  23.151  1.00  0.00     0.234 C 
ENDBRANCH  26  32
ENDBRANCH  25  26
ENDBRANCH  24  25
ENDBRANCH  21  24
ENDBRANCH  17  21
ENDBRANCH  10  11
ENDBRANCH   9  10
ENDBRANCH   8   9
ENDBRANCH   7   8
BRANCH   1  34
HETATM   34  O1  UNL     1       0.645   4.772  34.255  1.00  0.00    -0.309 OA
HETATM   35  C1  UNL     1       1.452   4.205  35.260  1.00  0.00     0.215 C 
ENDBRANCH   1  34
BRANCH   4  36
HETATM   36  C4  UNL     1       2.019   3.875  31.507  1.00  0.00     0.231 C 
HETATM   37  O3  UNL     1       2.632   2.975  32.157  1.00  0.00    -0.643 OA
HETATM   38  O4  UNL     1       1.064   3.462  30.623  1.00  0.00    -0.643 OA
ENDBRANCH   4  36
BRANCH   5  39
HETATM   39  N2  UNL     1       4.433   5.247  30.445  1.00  0.00    -0.269 N 
HETATM   40  C6  UNL     1       4.278   4.356  29.452  1.00  0.00     0.193 A 
HETATM   41  N3  UNL     1       5.490   4.000  28.929  1.00  0.00    -0.344 N 
HETATM   42  C7  UNL     1       6.436   4.672  29.595  1.00  0.00     0.148 A 
ATOM     43  H3  UNL     1       5.645   3.340  28.167  1.00  0.00     0.167 HD
HETATM   44  C8  UNL     1       7.828   4.694  29.481  1.00  0.00     0.290 A 
HETATM   45  C10 UNL     1       5.786   5.441  30.530  1.00  0.00     0.163 A 
HETATM   46  O5  UNL     1       8.447   4.015  28.649  1.00  0.00    -0.265 OA
HETATM   47  N4  UNL     1       8.477   5.498  30.325  1.00  0.00    -0.154 N 
HETATM   48  C9  UNL     1       7.848   6.248  31.237  1.00  0.00     0.680 A 
ATOM     49  H4  UNL     1       9.495   5.543  30.273  1.00  0.00     0.187 HD
HETATM   50  N6  UNL     1       6.485   6.225  31.347  1.00  0.00    -0.174 N 
ATOM     51  H6  UNL     1       6.012   6.800  32.045  1.00  0.00     0.186 HD
BRANCH  48  52
HETATM   52  N5  UNL     1       8.504   7.010  32.036  1.00  0.00    -0.234 N 
ATOM     53  H52 UNL     1       9.523   6.978  31.999  1.00  0.00     0.174 HD
ATOM     54  H51 UNL     1       8.022   7.630  32.687  1.00  0.00     0.174 HD
ENDBRANCH  48  52
ENDBRANCH   5  39
TORSDOF 15
ENDMDL
MODEL 2
REMARK VINA RESULT: -8.023455629      2.720      5.699
REMARK  15 active torsions:
REMARK  status: ('A' for Active; 'I' for Inactive)
REMARK    1  A    between atoms: O1_2  and  C2_3 
REMARK       I    between atoms: C2_3  and  N1_5 
REMARK    2  A    between atoms: C3_6  and  C4_7 
REMARK    3  A    between atoms: C5_10  and  N2_11 
REMARK    4  A    between atoms: C9_20  and  N5_21 
REMARK    5  A    between atoms: C11_28  and  C12_29 
REMARK    6  A    between atoms: C12_29  and  S1_30 
REMARK    7  A    between atoms: S1_30  and  S2_31 
REMARK    8  A    between atoms: S2_31  and  C13_32 
REMARK    9  A    between atoms: C15_39  and  C16_40 
REMARK   10  A    between atoms: C16_40  and  O8_41 
REMARK   11  A    between atoms: C16_40  and  C17_43 
REMARK   12  A    between atoms: C17_43  and  O9_44 
REMARK   13  A    between atoms: O9_44  and  N9_45 
REMARK   14  A    between atoms: N9_45  and  N10_46 
REMARK   15  A    between atoms: N9_45  and  O11_51 
REMARK       I    between atoms: N10_46  and  C18_48 
ROOT
HETATM    1  C2  UNL     1       6.104   8.621  30.938  1.00  0.00     0.369 C 
HETATM    2  O2  UNL     1       7.176   8.532  30.224  1.00  0.00    -0.238 OA
HETATM    3  N1  UNL     1       5.638   7.458  31.561  1.00  0.00    -0.255 N 
HETATM    4  C3  UNL     1       4.423   7.353  32.358  1.00  0.00     0.170 C 
HETATM    5  C5  UNL     1       4.656   6.396  33.264  1.00  0.00     0.188 C 
HETATM    6  O6  UNL     1       5.946   5.908  33.063  1.00  0.00    -0.306 OA
HETATM    7  C11 UNL     1       6.149   6.111  31.655  1.00  0.00     0.252 C 
ENDROOT
BRANCH   7   8
HETATM    8  C12 UNL     1       7.504   5.846  31.210  1.00  0.00     0.141 C 
BRANCH   8   9
HETATM    9  S1  UNL     1       7.743   4.701  29.850  1.00  0.00    -0.086 SA
BRANCH   9  10
HETATM   10  S2  UNL     1       6.041   4.718  28.548  1.00  0.00    -0.036 SA
BRANCH  10  11
HETATM   11  C13 UNL     1       5.822   6.342  27.838  1.00  0.00     0.133 C 
HETATM   12  N7  UNL     1       6.889   7.012  27.515  1.00  0.00    -0.299 N 
HETATM   13  C14 UNL     1       6.779   8.309  26.947  1.00  0.00     0.321 C 
ATOM     14  H7  UNL     1       7.810   6.604  27.671  1.00  0.00     0.171 HD
HETATM   15  O7  UNL     1       7.810   8.985  26.624  1.00  0.00    -0.247 OA
HETATM   16  N8  UNL     1       5.521   8.891  26.724  1.00  0.00    -0.328 N 
HETATM   17  C15 UNL     1       4.303   8.270  27.177  1.00  0.00     0.194 C 
ATOM     18  H8  UNL     1       5.468   9.780  26.227  1.00  0.00     0.165 HD
HETATM   19  C21 UNL     1       4.509   6.910  27.633  1.00  0.00     0.208 C 
HETATM   20  O12 UNL     1       3.475   6.163  27.873  1.00  0.00    -0.288 OA
BRANCH  17  21
HETATM   21  C16 UNL     1       3.321   8.405  26.027  1.00  0.00     0.174 C 
BRANCH  21  22
HETATM   22  O8  UNL     1       2.023   8.405  26.460  1.00  0.00    -0.391 OA
ATOM     23  H8  UNL     1       1.861   7.718  27.096  1.00  0.00     0.210 HD
ENDBRANCH  21  22
BRANCH  21  24
HETATM   24  C17 UNL     1       3.675   9.466  25.036  1.00  0.00     0.232 C 
BRANCH  24  25
HETATM   25  O9  UNL     1       2.907  10.625  25.269  1.00  0.00    -0.258 OA
BRANCH  25  26
HETATM   26  N9  UNL     1       3.148  11.221  26.427  1.00  0.00     0.040 NA
BRANCH  26  27
HETATM   27  N10 UNL     1       3.679  12.499  26.366  1.00  0.00    -0.241 N 
HETATM   28  C18 UNL     1       5.064  12.788  26.500  1.00  0.00     0.231 C 
HETATM   29  C19 UNL     1       5.595  14.163  26.426  1.00  0.00     0.118 C 
HETATM   30  O10 UNL     1       5.841  11.792  26.690  1.00  0.00    -0.273 OA
ATOM     31  H10 UNL     1       3.039  13.279  26.216  1.00  0.00     0.188 HD
ENDBRANCH  26  27
BRANCH  26  32
HETATM   32  O11 UNL     1       2.046  11.232  27.195  1.00  0.00    -0.266 OA
HETATM   33  C20 UNL     1       2.339  11.241  28.551  1.00  0.00     0.234 C 
ENDBRANCH  26  32
ENDBRANCH  25  26
ENDBRANCH  24  25
ENDBRANCH  21  24
ENDBRANCH  17  21
ENDBRANCH  10  11
ENDBRANCH   9  10
ENDBRANCH   8   9
ENDBRANCH   7   8
BRANCH   1  34
HETATM   34  O1  UNL     1       5.554   9.876  30.995  1.00  0.00    -0.309 OA
HETATM   35  C1  UNL     1       5.827  10.859  31.966  1.00  0.00     0.215 C 
ENDBRANCH   1  34
BRANCH   4  36
HETATM   36  C4  UNL     1       3.192   8.084  32.204  1.00  0.00     0.231 C 
HETATM   37  O3  UNL     1       2.354   7.673  31.346  1.00  0.00    -0.643 OA
HETATM   38  O4  UNL     1       2.856   9.199  32.918  1.00  0.00    -0.643 OA
ENDBRANCH   4  36
BRANCH   5  39
HETATM   39  N2  UNL     1       3.709   5.986  34.245  1.00  0.00    -0.269 N 
HETATM   40  C6  UNL     1       3.738   6.139  35.579  1.00  0.00     0.193 A 
HETATM   41  N3  UNL     1       2.625   5.592  36.153  1.00  0.00    -0.344 N 
HETATM   42  C7  UNL     1       1.869   5.080  35.174  1.00  0.00     0.148 A 
ATOM     43  H3  UNL     1       2.408   5.576  37.149  1.00  0.00     0.167 HD
HETATM   44  C8  UNL     1       0.642   4.414  35.186  1.00  0.00     0.290 A 
HETATM   45  C10 UNL     1       2.537   5.322  33.997  1.00  0.00     0.163 A 
HETATM   46  O5  UNL     1       0.012   4.180  36.228  1.00  0.00    -0.265 OA
HETATM   47  N4  UNL     1       0.165   4.034  33.999  1.00  0.00    -0.154 N 
HETATM   48  C9  UNL     1       0.812   4.267  32.851  1.00  0.00     0.680 A 
ATOM     49  H4  UNL     1      -0.730   3.545  33.966  1.00  0.00     0.187 HD
HETATM   50  N6  UNL     1       2.013   4.919  32.842  1.00  0.00    -0.174 N 
ATOM     51  H6  UNL     1       2.501   5.093  31.962  1.00  0.00     0.186 HD
BRANCH  48  52
HETATM   52  N5  UNL     1       0.324   3.885  31.727  1.00  0.00    -0.234 N 
ATOM     53  H52 UNL     1      -0.098   2.957  31.678  1.00  0.00     0.174 HD
ATOM     54  H51 UNL     1       0.357   4.490  30.906  1.00  0.00     0.174 HD
ENDBRANCH  48  52
ENDBRANCH   5  39
TORSDOF 15
ENDMDL
MODEL 3
REMARK VINA RESULT: -7.976515543      4.838     10.722
REMARK  15 active torsions:
REMARK  status: ('A' for Active; 'I' for Inactive)
REMARK    1  A    between atoms: O1_2  and  C2_3 
REMARK       I    between atoms: C2_3  and  N1_5 
REMARK    2  A    between atoms: C3_6  and  C4_7 
REMARK    3  A    between atoms: C5_10  and  N2_11 
REMARK    4  A    between atoms: C9_20  and  N5_21 
REMARK    5  A    between atoms: C11_28  and  C12_29 
REMARK    6  A    between atoms: C12_29  and  S1_30 
REMARK    7  A    between atoms: S1_30  and  S2_31 
REMARK    8  A    between atoms: S2_31  and  C13_32 
REMARK    9  A    between atoms: C15_39  and  C16_40 
REMARK   10  A    between atoms: C16_40  and  O8_41 
REMARK   11  A    between atoms: C16_40  and  C17_43 
REMARK   12  A    between atoms: C17_43  and  O9_44 
REMARK   13  A    between atoms: O9_44  and  N9_45 
REMARK   14  A    between atoms: N9_45  and  N10_46 
REMARK   15  A    between atoms: N9_45  and  O11_51 
REMARK       I    between atoms: N10_46  and  C18_48 
ROOT
HETATM    1  C2  UNL     1       1.268   3.746  31.343  1.00  0.00     0.369 C 
HETATM    2  O2  UNL     1       0.351   3.852  32.245  1.00  0.00    -0.238 OA
HETATM    3  N1  UNL     1       2.061   4.871  31.086  1.00  0.00    -0.255 N 
HETATM    4  C3  UNL     1       3.105   4.957  30.073  1.00  0.00     0.170 C 
HETATM    5  C5  UNL     1       4.008   5.823  30.545  1.00  0.00     0.188 C 
HETATM    6  O6  UNL     1       3.574   6.273  31.791  1.00  0.00    -0.306 OA
HETATM    7  C11 UNL     1       2.144   6.183  31.682  1.00  0.00     0.252 C 
ENDROOT
BRANCH   7   8
HETATM    8  C12 UNL     1       1.440   6.429  32.927  1.00  0.00     0.141 C 
BRANCH   8   9
HETATM    9  S1  UNL     1       2.365   6.326  34.461  1.00  0.00    -0.086 SA
BRANCH   9  10
HETATM   10  S2  UNL     1       1.515   7.627  35.937  1.00  0.00    -0.036 SA
BRANCH  10  11
HETATM   11  C13 UNL     1       0.517   6.690  37.085  1.00  0.00     0.133 C 
HETATM   12  N7  UNL     1       1.126   6.072  38.054  1.00  0.00    -0.299 N 
HETATM   13  C14 UNL     1       0.386   5.310  38.997  1.00  0.00     0.321 C 
ATOM     14  H7  UNL     1       2.140   6.133  38.136  1.00  0.00     0.171 HD
HETATM   15  O7  UNL     1       0.960   4.695  39.955  1.00  0.00    -0.247 OA
HETATM   16  N8  UNL     1      -1.011   5.210  38.902  1.00  0.00    -0.328 N 
HETATM   17  C15 UNL     1      -1.739   5.754  37.784  1.00  0.00     0.194 C 
ATOM     18  H8  UNL     1      -1.526   4.739  39.646  1.00  0.00     0.165 HD
HETATM   19  C21 UNL     1      -0.919   6.604  36.947  1.00  0.00     0.208 C 
HETATM   20  O12 UNL     1      -1.489   7.322  36.028  1.00  0.00    -0.288 OA
BRANCH  17  21
HETATM   21  C16 UNL     1      -2.953   6.442  38.381  1.00  0.00     0.174 C 
BRANCH  21  22
HETATM   22  O8  UNL     1      -4.002   5.578  38.547  1.00  0.00    -0.391 OA
ATOM     23  H8  UNL     1      -4.605   5.608  37.815  1.00  0.00     0.210 HD
ENDBRANCH  21  22
BRANCH  21  24
HETATM   24  C17 UNL     1      -2.650   7.326  39.547  1.00  0.00     0.232 C 
BRANCH  24  25
HETATM   25  O9  UNL     1      -3.231   6.803  40.720  1.00  0.00    -0.258 OA
BRANCH  25  26
HETATM   26  N9  UNL     1      -2.522   5.851  41.308  1.00  0.00     0.040 NA
BRANCH  26  27
HETATM   27  N10 UNL     1      -2.165   6.073  42.628  1.00  0.00    -0.241 N 
HETATM   28  C18 UNL     1      -0.901   6.582  43.032  1.00  0.00     0.231 C 
HETATM   29  C19 UNL     1      -0.557   6.809  44.449  1.00  0.00     0.118 C 
HETATM   30  O10 UNL     1      -0.063   6.838  42.102  1.00  0.00    -0.273 OA
ATOM     31  H10 UNL     1      -2.850   5.859  43.353  1.00  0.00     0.188 HD
ENDBRANCH  26  27
BRANCH  26  32
HETATM   32  O11 UNL     1      -3.142   4.664  41.207  1.00  0.00    -0.266 OA
HETATM   33  C20 UNL     1      -4.339   4.624  41.906  1.00  0.00     0.234 C 
ENDBRANCH  26  32
ENDBRANCH  25  26
ENDBRANCH  24  25
ENDBRANCH  21  24
ENDBRANCH  17  21
ENDBRANCH  10  11
ENDBRANCH   9  10
ENDBRANCH   8   9
ENDBRANCH   7   8
BRANCH   1  34
HETATM   34  O1  UNL     1       1.349   2.515  30.745  1.00  0.00    -0.309 OA
HETATM   35  C1  UNL     1       0.531   2.044  29.699  1.00  0.00     0.215 C 
ENDBRANCH   1  34
BRANCH   4  36
HETATM   36  C4  UNL     1       3.163   4.293  28.797  1.00  0.00     0.231 C 
HETATM   37  O3  UNL     1       3.798   3.198  28.720  1.00  0.00    -0.643 OA
HETATM   38  O4  UNL     1       2.580   4.756  27.651  1.00  0.00    -0.643 OA
ENDBRANCH   4  36
BRANCH   5  39
HETATM   39  N2  UNL     1       5.197   6.187  29.850  1.00  0.00    -0.269 N 
HETATM   40  C6  UNL     1       6.476   5.889  30.128  1.00  0.00     0.193 A 
HETATM   41  N3  UNL     1       7.314   6.444  29.203  1.00  0.00    -0.344 N 
HETATM   42  C7  UNL     1       6.563   7.108  28.317  1.00  0.00     0.148 A 
ATOM     43  H3  UNL     1       8.331   6.366  29.189  1.00  0.00     0.167 HD
HETATM   44  C8  UNL     1       6.888   7.850  27.179  1.00  0.00     0.290 A 
HETATM   45  C10 UNL     1       5.257   6.951  28.715  1.00  0.00     0.163 A 
HETATM   46  O5  UNL     1       8.055   8.011  26.790  1.00  0.00    -0.265 OA
HETATM   47  N4  UNL     1       5.866   8.388  26.512  1.00  0.00    -0.154 N 
HETATM   48  C9  UNL     1       4.593   8.238  26.897  1.00  0.00     0.680 A 
ATOM     49  H4  UNL     1       6.062   8.936  25.675  1.00  0.00     0.187 HD
HETATM   50  N6  UNL     1       4.276   7.511  28.011  1.00  0.00    -0.174 N 
ATOM     51  H6  UNL     1       3.303   7.401  28.298  1.00  0.00     0.186 HD
BRANCH  48  52
HETATM   52  N5  UNL     1       3.633   8.772  26.232  1.00  0.00    -0.234 N 
ATOM     53  H52 UNL     1       2.736   8.895  26.702  1.00  0.00     0.174 HD
ATOM     54  H51 UNL     1       3.763   9.065  25.264  1.00  0.00     0.174 HD
ENDBRANCH  48  52
ENDBRANCH   5  39
TORSDOF 15
ENDMDL
MODEL 4
REMARK VINA RESULT: -7.959389525      2.553      4.414
REMARK  15 active torsions:
REMARK  status: ('A' for Active; 'I' for Inactive)
REMARK    1  A    between atoms: O1_2  and  C2_3 
REMARK       I    between atoms: C2_3  and  N1_5 
REMARK    2  A    between atoms: C3_6  and  C4_7 
REMARK    3  A    between atoms: C5_10  and  N2_11 
REMARK    4  A    between atoms: C9_20  and  N5_21 
REMARK    5  A    between atoms: C11_28  and  C12_29 
REMARK    6  A    between atoms: C12_29  and  S1_30 
REMARK    7  A    between atoms: S1_30  and  S2_31 
REMARK    8  A    between atoms: S2_31  and  C13_32 
REMARK    9  A    between atoms: C15_39  and  C16_40 
REMARK   10  A    between atoms: C16_40  and  O8_41 
REMARK   11  A    between atoms: C16_40  and  C17_43 
REMARK   12  A    between atoms: C17_43  and  O9_44 
REMARK   13  A    between atoms: O9_44  and  N9_45 
REMARK   14  A    between atoms: N9_45  and  N10_46 
REMARK   15  A    between atoms: N9_45  and  O11_51 
REMARK       I    between atoms: N10_46  and  C18_48 
ROOT
HETATM    1  C2  UNL     1       1.823   4.758  35.318  1.00  0.00     0.369 C 
HETATM    2  O2  UNL     1       1.346   3.558  35.327  1.00  0.00    -0.238 OA
HETATM    3  N1  UNL     1       2.508   5.177  34.171  1.00  0.00    -0.255 N 
HETATM    4  C3  UNL     1       3.158   6.469  33.998  1.00  0.00     0.170 C 
HETATM    5  C5  UNL     1       3.091   6.745  32.691  1.00  0.00     0.188 C 
HETATM    6  O6  UNL     1       2.437   5.692  32.054  1.00  0.00    -0.306 OA
HETATM    7  C11 UNL     1       2.758   4.566  32.887  1.00  0.00     0.252 C 
ENDROOT
BRANCH   7   8
HETATM    8  C12 UNL     1       2.043   3.352  32.540  1.00  0.00     0.141 C 
BRANCH   8   9
HETATM    9  S1  UNL     1       1.213   3.279  30.952  1.00  0.00    -0.086 SA
BRANCH   9  10
HETATM   10  S2  UNL     1       2.603   2.767  29.403  1.00  0.00    -0.036 SA
BRANCH  10  11
HETATM   11  C13 UNL     1       3.936   3.955  29.351  1.00  0.00     0.133 C 
HETATM   12  N7  UNL     1       5.029   3.669  29.994  1.00  0.00    -0.299 N 
HETATM   13  C14 UNL     1       6.123   4.574  29.991  1.00  0.00     0.321 C 
ATOM     14  H7  UNL     1       5.101   2.789  30.505  1.00  0.00     0.171 HD
HETATM   15  O7  UNL     1       7.204   4.316  30.614  1.00  0.00    -0.247 OA
HETATM   16  N8  UNL     1       6.046   5.791  29.295  1.00  0.00    -0.328 N 
HETATM   17  C15 UNL     1       4.825   6.237  28.673  1.00  0.00     0.194 C 
ATOM     18  H8  UNL     1       6.878   6.377  29.229  1.00  0.00     0.165 HD
HETATM   19  C21 UNL     1       3.813   5.202  28.631  1.00  0.00     0.208 C 
HETATM   20  O12 UNL     1       2.744   5.395  27.919  1.00  0.00    -0.288 OA
BRANCH  17  21
HETATM   21  C16 UNL     1       5.231   6.776  27.314  1.00  0.00     0.174 C 
BRANCH  21  22
HETATM   22  O8  UNL     1       4.299   7.641  26.807  1.00  0.00    -0.391 OA
ATOM     23  H8  UNL     1       4.442   8.531  27.105  1.00  0.00     0.210 HD
ENDBRANCH  21  22
BRANCH  21  24
HETATM   24  C17 UNL     1       6.652   7.230  27.229  1.00  0.00     0.232 C 
BRANCH  24  25
HETATM   25  O9  UNL     1       6.713   8.638  27.206  1.00  0.00    -0.258 OA
BRANCH  25  26
HETATM   26  N9  UNL     1       6.973   9.158  26.015  1.00  0.00     0.040 NA
BRANCH  26  27
HETATM   27  N10 UNL     1       5.968   9.919  25.441  1.00  0.00    -0.241 N 
HETATM   28  C18 UNL     1       5.356   9.614  24.195  1.00  0.00     0.231 C 
HETATM   29  C19 UNL     1       4.285  10.447  23.615  1.00  0.00     0.118 C 
HETATM   30  O10 UNL     1       5.779   8.571  23.590  1.00  0.00    -0.273 OA
ATOM     31  H10 UNL     1       5.648  10.748  25.942  1.00  0.00     0.188 HD
ENDBRANCH  26  27
BRANCH  26  32
HETATM   32  O11 UNL     1       8.111   9.869  26.045  1.00  0.00    -0.266 OA
HETATM   33  C20 UNL     1       7.965  11.085  26.697  1.00  0.00     0.234 C 
ENDBRANCH  26  32
ENDBRANCH  25  26
ENDBRANCH  24  25
ENDBRANCH  21  24
ENDBRANCH  17  21
ENDBRANCH  10  11
ENDBRANCH   9  10
ENDBRANCH   8   9
ENDBRANCH   7   8
BRANCH   1  34
HETATM   34  O1  UNL     1       1.587   5.480  36.459  1.00  0.00    -0.309 OA
HETATM   35  C1  UNL     1       0.337   5.964  36.892  1.00  0.00     0.215 C 
ENDBRANCH   1  34
BRANCH   4  36
HETATM   36  C4  UNL     1       3.790   7.287  35.000  1.00  0.00     0.231 C 
HETATM   37  O3  UNL     1       5.033   7.139  35.199  1.00  0.00    -0.643 OA
HETATM   38  O4  UNL     1       3.145   8.220  35.762  1.00  0.00    -0.643 OA
ENDBRANCH   4  36
BRANCH   5  39
HETATM   39  N2  UNL     1       3.615   7.932  32.104  1.00  0.00    -0.269 N 
HETATM   40  C6  UNL     1       2.974   9.032  31.680  1.00  0.00     0.193 A 
HETATM   41  N3  UNL     1       3.859   9.942  31.173  1.00  0.00    -0.344 N 
HETATM   42  C7  UNL     1       5.086   9.419  31.272  1.00  0.00     0.148 A 
ATOM     43  H3  UNL     1       3.625  10.858  30.787  1.00  0.00     0.167 HD
HETATM   44  C8  UNL     1       6.346   9.905  30.914  1.00  0.00     0.290 A 
HETATM   45  C10 UNL     1       4.938   8.179  31.846  1.00  0.00     0.163 A 
HETATM   46  O5  UNL     1       6.516  11.019  30.397  1.00  0.00    -0.265 OA
HETATM   47  N4  UNL     1       7.381   9.101  31.162  1.00  0.00    -0.154 N 
HETATM   48  C9  UNL     1       7.241   7.893  31.720  1.00  0.00     0.680 A 
ATOM     49  H4  UNL     1       8.318   9.420  30.916  1.00  0.00     0.187 HD
HETATM   50  N6  UNL     1       6.007   7.419  32.069  1.00  0.00    -0.174 N 
ATOM     51  H6  UNL     1       5.908   6.496  32.494  1.00  0.00     0.186 HD
BRANCH  48  52
HETATM   52  N5  UNL     1       8.260   7.144  31.942  1.00  0.00    -0.234 N 
ATOM     53  H52 UNL     1       8.890   6.949  31.164  1.00  0.00     0.174 HD
ATOM     54  H51 UNL     1       8.435   6.755  32.869  1.00  0.00     0.174 HD
ENDBRANCH  48  52
ENDBRANCH   5  39
TORSDOF 15
ENDMDL
MODEL 5
REMARK VINA RESULT: -7.942285851      3.390      7.012
REMARK  15 active torsions:
REMARK  status: ('A' for Active; 'I' for Inactive)
REMARK    1  A    between atoms: O1_2  and  C2_3 
REMARK       I    between atoms: C2_3  and  N1_5 
REMARK    2  A    between atoms: C3_6  and  C4_7 
REMARK    3  A    between atoms: C5_10  and  N2_11 
REMARK    4  A    between atoms: C9_20  and  N5_21 
REMARK    5  A    between atoms: C11_28  and  C12_29 
REMARK    6  A    between atoms: C12_29  and  S1_30 
REMARK    7  A    between atoms: S1_30  and  S2_31 
REMARK    8  A    between atoms: S2_31  and  C13_32 
REMARK    9  A    between atoms: C15_39  and  C16_40 
REMARK   10  A    between atoms: C16_40  and  O8_41 
REMARK   11  A    between atoms: C16_40  and  C17_43 
REMARK   12  A    between atoms: C17_43  and  O9_44 
REMARK   13  A    between atoms: O9_44  and  N9_45 
REMARK   14  A    between atoms: N9_45  and  N10_46 
REMARK   15  A    between atoms: N9_45  and  O11_51 
REMARK       I    between atoms: N10_46  and  C18_48 
ROOT
HETATM    1  C2  UNL     1       3.673   6.306  33.099  1.00  0.00     0.369 C 
HETATM    2  O2  UNL     1       4.285   5.741  32.112  1.00  0.00    -0.238 OA
HETATM    3  N1  UNL     1       2.519   5.685  33.590  1.00  0.00    -0.255 N 
HETATM    4  C3  UNL     1       1.670   6.200  34.657  1.00  0.00     0.170 C 
HETATM    5  C5  UNL     1       1.145   5.128  35.261  1.00  0.00     0.188 C 
HETATM    6  O6  UNL     1       1.624   3.986  34.621  1.00  0.00    -0.306 OA
HETATM    7  C11 UNL     1       1.852   4.444  33.278  1.00  0.00     0.252 C 
ENDROOT
BRANCH   7   8
HETATM    8  C12 UNL     1       2.531   3.480  32.433  1.00  0.00     0.141 C 
BRANCH   8   9
HETATM    9  S1  UNL     1       1.956   3.275  30.746  1.00  0.00    -0.086 SA
BRANCH   9  10
HETATM   10  S2  UNL     1       3.592   2.788  29.450  1.00  0.00    -0.036 SA
BRANCH  10  11
HETATM   11  C13 UNL     1       4.704   4.178  29.310  1.00  0.00     0.133 C 
HETATM   12  N7  UNL     1       5.876   4.076  29.865  1.00  0.00    -0.299 N 
HETATM   13  C14 UNL     1       6.803   5.149  29.788  1.00  0.00     0.321 C 
ATOM     14  H7  UNL     1       6.130   3.221  30.359  1.00  0.00     0.171 HD
HETATM   15  O7  UNL     1       7.957   5.072  30.324  1.00  0.00    -0.247 OA
HETATM   16  N8  UNL     1       6.475   6.336  29.114  1.00  0.00    -0.328 N 
HETATM   17  C15 UNL     1       5.154   6.574  28.592  1.00  0.00     0.194 C 
ATOM     18  H8  UNL     1       7.193   7.050  28.991  1.00  0.00     0.165 HD
HETATM   19  C21 UNL     1       4.324   5.387  28.616  1.00  0.00     0.208 C 
HETATM   20  O12 UNL     1       3.186   5.402  27.990  1.00  0.00    -0.288 OA
BRANCH  17  21
HETATM   21  C16 UNL     1       5.359   7.171  27.212  1.00  0.00     0.174 C 
BRANCH  21  22
HETATM   22  O8  UNL     1       4.382   8.076  26.895  1.00  0.00    -0.391 OA
ATOM     23  H8  UNL     1       4.612   8.594  26.133  1.00  0.00     0.210 HD
ENDBRANCH  21  22
BRANCH  21  24
HETATM   24  C17 UNL     1       6.761   7.603  26.930  1.00  0.00     0.232 C 
BRANCH  24  25
HETATM   25  O9  UNL     1       6.860   9.008  26.996  1.00  0.00    -0.258 OA
BRANCH  25  26
HETATM   26  N9  UNL     1       7.062   9.601  25.829  1.00  0.00     0.040 NA
BRANCH  26  27
HETATM   27  N10 UNL     1       5.972  10.248  25.268  1.00  0.00    -0.241 N 
HETATM   28  C18 UNL     1       5.281   9.784  24.117  1.00  0.00     0.231 C 
HETATM   29  C19 UNL     1       4.122  10.498  23.549  1.00  0.00     0.118 C 
HETATM   30  O10 UNL     1       5.714   8.705  23.585  1.00  0.00    -0.273 OA
ATOM     31  H10 UNL     1       5.647  11.109  25.709  1.00  0.00     0.188 HD
ENDBRANCH  26  27
BRANCH  26  32
HETATM   32  O11 UNL     1       8.098  10.451  25.899  1.00  0.00    -0.266 OA
HETATM   33  C20 UNL     1       7.924  11.428  26.869  1.00  0.00     0.234 C 
ENDBRANCH  26  32
ENDBRANCH  25  26
ENDBRANCH  24  25
ENDBRANCH  21  24
ENDBRANCH  17  21
ENDBRANCH  10  11
ENDBRANCH   9  10
ENDBRANCH   8   9
ENDBRANCH   7   8
BRANCH   1  34
HETATM   34  O1  UNL     1       4.252   7.466  33.546  1.00  0.00    -0.309 OA
HETATM   35  C1  UNL     1       5.276   7.566  34.508  1.00  0.00     0.215 C 
ENDBRANCH   1  34
BRANCH   4  36
HETATM   36  C4  UNL     1       1.398   7.573  34.993  1.00  0.00     0.231 C 
HETATM   37  O3  UNL     1       2.132   8.134  35.861  1.00  0.00    -0.643 OA
HETATM   38  O4  UNL     1       0.400   8.325  34.442  1.00  0.00    -0.643 OA
ENDBRANCH   4  36
BRANCH   5  39
HETATM   39  N2  UNL     1       0.252   5.200  36.368  1.00  0.00    -0.269 N 
HETATM   40  C6  UNL     1       0.390   5.843  37.538  1.00  0.00     0.193 A 
HETATM   41  N3  UNL     1      -0.708   5.648  38.329  1.00  0.00    -0.344 N 
HETATM   42  C7  UNL     1      -1.564   4.870  37.657  1.00  0.00     0.148 A 
ATOM     43  H3  UNL     1      -0.850   6.029  39.265  1.00  0.00     0.167 HD
HETATM   44  C8  UNL     1      -2.825   4.363  37.980  1.00  0.00     0.290 A 
HETATM   45  C10 UNL     1      -0.973   4.592  36.447  1.00  0.00     0.163 A 
HETATM   46  O5  UNL     1      -3.387   4.594  39.061  1.00  0.00    -0.265 OA
HETATM   47  N4  UNL     1      -3.411   3.604  37.053  1.00  0.00    -0.154 N 
HETATM   48  C9  UNL     1      -2.839   3.331  35.875  1.00  0.00     0.680 A 
ATOM     49  H4  UNL     1      -4.333   3.215  37.252  1.00  0.00     0.187 HD
HETATM   50  N6  UNL     1      -1.605   3.827  35.560  1.00  0.00    -0.174 N 
ATOM     51  H6  UNL     1      -1.176   3.615  34.659  1.00  0.00     0.186 HD
BRANCH  48  52
HETATM   52  N5  UNL     1      -3.432   2.594  35.006  1.00  0.00    -0.234 N 
ATOM     53  H52 UNL     1      -2.858   1.986  34.421  1.00  0.00     0.174 HD
ATOM     54  H51 UNL     1      -4.447   2.613  34.904  1.00  0.00     0.174 HD
ENDBRANCH  48  52
ENDBRANCH   5  39
TORSDOF 15
ENDMDL
