MODEL 1
REMARK VINA RESULT: -4.109952185      0.000      0.000
REMARK  1 active torsions:
REMARK  status: ('A' for Active; 'I' for Inactive)
REMARK    1  A    between atoms: C2_2  and  N1_3 
ROOT
HETATM    1  N1  UNL     1       8.033  50.159  56.135  1.00  0.00     0.117 N 
HETATM    2  C3  UNL     1       8.067  49.361  54.899  1.00  0.00     0.304 C 
HETATM    3  C4  UNL     1       7.744  47.955  55.348  1.00  0.00     0.304 C 
HETATM    4  N2  UNL     1       7.595  48.060  56.793  1.00  0.00     0.114 N 
HETATM    5  C5  UNL     1       8.851  47.943  57.486  1.00  0.00     0.312 C 
HETATM    6  C6  UNL     1       7.055  49.423  56.903  1.00  0.00     0.542 C 
ENDROOT
BRANCH   1   7
HETATM    7  C2  UNL     1       7.645  51.509  55.854  1.00  0.00     0.270 C 
HETATM    8  C1  UNL     1       7.988  51.860  54.406  1.00  0.00     0.037 C 
ENDBRANCH   1   7
TORSDOF 1
ENDMDL
MODEL 2
REMARK VINA RESULT: -3.734754086      1.307      3.516
REMARK  1 active torsions:
REMARK  status: ('A' for Active; 'I' for Inactive)
REMARK    1  A    between atoms: C2_2  and  N1_3 
ROOT
HETATM    1  N1  UNL     1       8.696  48.266  56.737  1.00  0.00     0.117 N 
HETATM    2  C3  UNL     1       8.189  49.493  57.371  1.00  0.00     0.304 C 
HETATM    3  C4  UNL     1       7.293  50.115  56.325  1.00  0.00     0.304 C 
HETATM    4  N2  UNL     1       7.396  49.224  55.179  1.00  0.00     0.114 N 
HETATM    5  C5  UNL     1       8.520  49.536  54.336  1.00  0.00     0.312 C 
HETATM    6  C6  UNL     1       7.592  47.937  55.865  1.00  0.00     0.542 C 
ENDROOT
BRANCH   1   7
HETATM    7  C2  UNL     1       8.968  47.263  57.722  1.00  0.00     0.270 C 
HETATM    8  C1  UNL     1       9.844  47.846  58.832  1.00  0.00     0.037 C 
ENDBRANCH   1   7
TORSDOF 1
ENDMDL
MODEL 3
REMARK VINA RESULT: -3.327609441      1.132      1.848
REMARK  1 active torsions:
REMARK  status: ('A' for Active; 'I' for Inactive)
REMARK    1  A    between atoms: C2_2  and  N1_3 
ROOT
HETATM    1  N1  UNL     1       7.617  49.349  55.794  1.00  0.00     0.117 N 
HETATM    2  C3  UNL     1       7.984  49.925  57.097  1.00  0.00     0.304 C 
HETATM    3  C4  UNL     1       8.750  48.824  57.793  1.00  0.00     0.304 C 
HETATM    4  N2  UNL     1       8.719  47.710  56.857  1.00  0.00     0.114 N 
HETATM    5  C5  UNL     1       7.532  46.907  56.993  1.00  0.00     0.312 C 
HETATM    6  C6  UNL     1       8.720  48.440  55.580  1.00  0.00     0.542 C 
ENDROOT
BRANCH   1   7
HETATM    7  C2  UNL     1       7.517  50.374  54.798  1.00  0.00     0.270 C 
HETATM    8  C1  UNL     1       7.756  51.744  55.434  1.00  0.00     0.037 C 
ENDBRANCH   1   7
TORSDOF 1
ENDMDL
MODEL 4
REMARK VINA RESULT: -3.304311028      1.235      3.502
REMARK  1 active torsions:
REMARK  status: ('A' for Active; 'I' for Inactive)
REMARK    1  A    between atoms: C2_2  and  N1_3 
ROOT
HETATM    1  N1  UNL     1       7.651  47.854  56.852  1.00  0.00     0.117 N 
HETATM    2  C3  UNL     1       7.879  47.836  55.398  1.00  0.00     0.304 C 
HETATM    3  C4  UNL     1       8.217  49.267  55.052  1.00  0.00     0.304 C 
HETATM    4  N2  UNL     1       8.112  49.982  56.316  1.00  0.00     0.114 N 
HETATM    5  C5  UNL     1       6.769  50.416  56.596  1.00  0.00     0.312 C 
HETATM    6  C6  UNL     1       8.533  48.927  57.250  1.00  0.00     0.542 C 
ENDROOT
BRANCH   1   7
HETATM    7  C2  UNL     1       7.988  46.588  57.432  1.00  0.00     0.270 C 
HETATM    8  C1  UNL     1       9.317  46.696  58.182  1.00  0.00     0.037 C 
ENDBRANCH   1   7
TORSDOF 1
ENDMDL
MODEL 5
REMARK VINA RESULT: -2.678954043      2.737      4.373
REMARK  1 active torsions:
REMARK  status: ('A' for Active; 'I' for Inactive)
REMARK    1  A    between atoms: C2_2  and  N1_3 
ROOT
HETATM    1  N1  UNL     1       9.011  47.250  58.357  1.00  0.00     0.117 N 
HETATM    2  C3  UNL     1       9.820  48.312  58.976  1.00  0.00     0.304 C 
HETATM    3  C4  UNL     1      10.763  47.576  59.900  1.00  0.00     0.304 C 
HETATM    4  N2  UNL     1      10.388  46.176  59.764  1.00  0.00     0.114 N 
HETATM    5  C5  UNL     1       9.310  45.805  60.643  1.00  0.00     0.312 C 
HETATM    6  C6  UNL     1       9.955  46.156  58.359  1.00  0.00     0.542 C 
ENDROOT
BRANCH   1   7
HETATM    7  C2  UNL     1       8.586  47.639  57.045  1.00  0.00     0.270 C 
HETATM    8  C1  UNL     1       8.214  49.123  57.036  1.00  0.00     0.037 C 
ENDBRANCH   1   7
TORSDOF 1
ENDMDL
