MODEL 1
REMARK VINA RESULT: -3.041738694      0.000      0.000
REMARK  1 active torsions:
REMARK  status: ('A' for Active; 'I' for Inactive)
REMARK    1  A    between atoms: N1_2  and  C4_5 
ROOT
HETATM    1  C4  UNL     1       7.097  49.269  56.852  1.00  0.00     0.240 C 
HETATM    2  C5  UNL     1       7.090  50.400  55.905  1.00  0.00     0.267 C 
HETATM    3  N2  UNL     1       7.890  51.195  56.843  1.00  0.00    -0.071 N 
ATOM      4  H21 UNL     1       7.809  52.210  56.878  1.00  0.00     0.277 HD
ATOM      5  H22 UNL     1       8.897  51.305  56.718  1.00  0.00     0.277 HD
HETATM    6  C6  UNL     1       7.358  50.370  57.889  1.00  0.00     0.267 C 
ENDROOT
BRANCH   1   7
HETATM    7  N1  UNL     1       8.078  48.263  56.779  1.00  0.00    -0.071 N 
HETATM    8  C1  UNL     1       9.175  48.373  57.688  1.00  0.00     0.272 C 
HETATM    9  C2  UNL     1       8.659  48.234  55.421  1.00  0.00     0.272 C 
HETATM   10  C3  UNL     1       7.538  46.900  56.929  1.00  0.00     0.272 C 
ENDBRANCH   1   7
TORSDOF 1
ENDMDL
MODEL 2
REMARK VINA RESULT: -3.036154171      0.080      1.423
REMARK  1 active torsions:
REMARK  status: ('A' for Active; 'I' for Inactive)
REMARK    1  A    between atoms: N1_2  and  C4_5 
ROOT
HETATM    1  C4  UNL     1       7.099  49.286  56.827  1.00  0.00     0.240 C 
HETATM    2  C5  UNL     1       7.032  50.463  55.941  1.00  0.00     0.267 C 
HETATM    3  N2  UNL     1       7.884  51.215  56.869  1.00  0.00    -0.071 N 
ATOM      4  H21 UNL     1       7.801  52.227  56.959  1.00  0.00     0.277 HD
ATOM      5  H22 UNL     1       8.881  51.338  56.690  1.00  0.00     0.277 HD
HETATM    6  C6  UNL     1       7.418  50.336  57.902  1.00  0.00     0.267 C 
ENDROOT
BRANCH   1   7
HETATM    7  N1  UNL     1       8.077  48.291  56.645  1.00  0.00    -0.071 N 
HETATM    8  C1  UNL     1       8.688  48.225  55.354  1.00  0.00     0.272 C 
HETATM    9  C2  UNL     1       7.486  46.962  56.899  1.00  0.00     0.272 C 
HETATM   10  C3  UNL     1       9.172  48.353  57.629  1.00  0.00     0.272 C 
ENDBRANCH   1   7
TORSDOF 1
ENDMDL
MODEL 3
REMARK VINA RESULT: -2.937670904      1.483      2.571
REMARK  1 active torsions:
REMARK  status: ('A' for Active; 'I' for Inactive)
REMARK    1  A    between atoms: N1_2  and  C4_5 
ROOT
HETATM    1  C4  UNL     1       8.562  49.690  55.770  1.00  0.00     0.240 C 
HETATM    2  C5  UNL     1       7.820  50.681  54.968  1.00  0.00     0.267 C 
HETATM    3  N2  UNL     1       7.382  49.618  54.055  1.00  0.00    -0.071 N 
ATOM      4  H21 UNL     1       7.198  49.811  53.071  1.00  0.00     0.277 HD
ATOM      5  H22 UNL     1       6.448  49.213  54.125  1.00  0.00     0.277 HD
HETATM    6  C6  UNL     1       8.543  48.882  54.464  1.00  0.00     0.267 C 
ENDROOT
BRANCH   1   7
HETATM    7  N1  UNL     1       7.970  49.059  56.879  1.00  0.00    -0.071 N 
HETATM    8  C1  UNL     1       7.562  47.701  56.699  1.00  0.00     0.272 C 
HETATM    9  C2  UNL     1       6.766  49.808  57.291  1.00  0.00     0.272 C 
HETATM   10  C3  UNL     1       8.805  49.094  58.093  1.00  0.00     0.272 C 
ENDBRANCH   1   7
TORSDOF 1
ENDMDL
MODEL 4
REMARK VINA RESULT: -2.931340072      1.521      2.460
REMARK  1 active torsions:
REMARK  status: ('A' for Active; 'I' for Inactive)
REMARK    1  A    between atoms: N1_2  and  C4_5 
ROOT
HETATM    1  C4  UNL     1       8.535  49.727  55.775  1.00  0.00     0.240 C 
HETATM    2  C5  UNL     1       7.870  50.732  54.924  1.00  0.00     0.267 C 
HETATM    3  N2  UNL     1       7.403  49.669  54.028  1.00  0.00    -0.071 N 
ATOM      4  H21 UNL     1       7.258  49.843  53.034  1.00  0.00     0.277 HD
ATOM      5  H22 UNL     1       6.447  49.315  54.080  1.00  0.00     0.277 HD
HETATM    6  C6  UNL     1       8.511  48.885  54.491  1.00  0.00     0.267 C 
ENDROOT
BRANCH   1   7
HETATM    7  N1  UNL     1       7.879  49.160  56.882  1.00  0.00    -0.071 N 
HETATM    8  C1  UNL     1       6.683  49.811  57.318  1.00  0.00     0.272 C 
HETATM    9  C2  UNL     1       8.792  49.139  58.043  1.00  0.00     0.272 C 
HETATM   10  C3  UNL     1       7.546  47.735  56.705  1.00  0.00     0.272 C 
ENDBRANCH   1   7
TORSDOF 1
ENDMDL
MODEL 5
REMARK VINA RESULT: -2.598342179      7.309      8.871
REMARK  1 active torsions:
REMARK  status: ('A' for Active; 'I' for Inactive)
REMARK    1  A    between atoms: N1_2  and  C4_5 
ROOT
HETATM    1  C4  UNL     1       2.549  52.888  61.228  1.00  0.00     0.240 C 
HETATM    2  C5  UNL     1       1.408  52.134  60.676  1.00  0.00     0.267 C 
HETATM    3  N2  UNL     1       1.941  50.896  61.256  1.00  0.00    -0.071 N 
ATOM      4  H21 UNL     1       1.774  49.992  60.816  1.00  0.00     0.277 HD
ATOM      5  H22 UNL     1       1.566  50.515  62.125  1.00  0.00     0.277 HD
HETATM    6  C6  UNL     1       3.235  51.514  61.215  1.00  0.00     0.267 C 
ENDROOT
BRANCH   1   7
HETATM    7  N1  UNL     1       2.470  53.511  62.487  1.00  0.00    -0.071 N 
HETATM    8  C1  UNL     1       1.184  53.530  63.111  1.00  0.00     0.272 C 
HETATM    9  C2  UNL     1       2.902  54.919  62.371  1.00  0.00     0.272 C 
HETATM   10  C3  UNL     1       3.414  52.964  63.477  1.00  0.00     0.272 C 
ENDBRANCH   1   7
TORSDOF 1
ENDMDL
