MODEL 1
REMARK VINA RESULT: -3.483825958      0.000      0.000
REMARK  1 active torsions:
REMARK  status: ('A' for Active; 'I' for Inactive)
REMARK    1  A    between atoms: C2_2  and  C3_3 
ROOT
HETATM    1  C3  UNL     1       8.340  46.715  57.576  1.00  0.00     0.238 C 
HETATM    2  C4  UNL     1       8.608  45.404  58.164  1.00  0.00     0.111 C 
HETATM    3  C5  UNL     1       8.014  44.187  57.948  1.00  0.00     0.040 C 
HETATM    4  C6  UNL     1      10.035  45.771  58.084  1.00  0.00     0.291 C 
HETATM    5  N1  UNL     1       9.408  46.975  58.479  1.00  0.00     0.016 N 
HETATM    6  C7  UNL     1       9.942  48.130  58.817  1.00  0.00     0.298 C 
HETATM    7  N2  UNL     1       8.680  46.143  59.394  1.00  0.00    -0.032 NA
ENDROOT
BRANCH   1   8
HETATM    8  C2  UNL     1       8.552  46.879  56.115  1.00  0.00     0.033 C 
HETATM    9  C1  UNL     1       7.788  48.088  55.567  1.00  0.00     0.007 C 
ENDBRANCH   1   8
TORSDOF 1
ENDMDL
MODEL 2
REMARK VINA RESULT: -3.427871296      1.338      2.624
REMARK  1 active torsions:
REMARK  status: ('A' for Active; 'I' for Inactive)
REMARK    1  A    between atoms: C2_2  and  C3_3 
ROOT
HETATM    1  C3  UNL     1       9.347  45.882  57.585  1.00  0.00     0.238 C 
HETATM    2  C4  UNL     1      10.166  45.834  58.796  1.00  0.00     0.111 C 
HETATM    3  C5  UNL     1      11.231  46.603  59.188  1.00  0.00     0.040 C 
HETATM    4  C6  UNL     1       8.909  45.549  59.515  1.00  0.00     0.291 C 
HETATM    5  N1  UNL     1       8.781  44.803  58.321  1.00  0.00     0.016 N 
HETATM    6  C7  UNL     1       7.841  43.958  57.953  1.00  0.00     0.298 C 
HETATM    7  N2  UNL     1      10.139  44.415  58.570  1.00  0.00    -0.032 NA
ENDROOT
BRANCH   1   8
HETATM    8  C2  UNL     1       8.545  47.107  57.337  1.00  0.00     0.033 C 
HETATM    9  C1  UNL     1       7.928  47.101  55.934  1.00  0.00     0.007 C 
ENDBRANCH   1   8
TORSDOF 1
ENDMDL
MODEL 3
REMARK VINA RESULT: -3.403585524      2.990      4.862
REMARK  1 active torsions:
REMARK  status: ('A' for Active; 'I' for Inactive)
REMARK    1  A    between atoms: C2_2  and  C3_3 
ROOT
HETATM    1  C3  UNL     1       8.222  49.238  54.821  1.00  0.00     0.238 C 
HETATM    2  C4  UNL     1       7.601  50.371  55.505  1.00  0.00     0.111 C 
HETATM    3  C5  UNL     1       7.590  51.708  55.197  1.00  0.00     0.040 C 
HETATM    4  C6  UNL     1       6.463  49.466  55.758  1.00  0.00     0.291 C 
HETATM    5  N1  UNL     1       7.592  48.635  55.945  1.00  0.00     0.016 N 
HETATM    6  C7  UNL     1       7.659  47.387  56.358  1.00  0.00     0.298 C 
HETATM    7  N2  UNL     1       8.122  49.743  56.687  1.00  0.00    -0.032 NA
ENDROOT
BRANCH   1   8
HETATM    8  C2  UNL     1       7.754  48.912  53.450  1.00  0.00     0.033 C 
HETATM    9  C1  UNL     1       8.591  49.628  52.384  1.00  0.00     0.007 C 
ENDBRANCH   1   8
TORSDOF 1
ENDMDL
MODEL 4
REMARK VINA RESULT: -3.362293957      2.642      3.569
REMARK  1 active torsions:
REMARK  status: ('A' for Active; 'I' for Inactive)
REMARK    1  A    between atoms: C2_2  and  C3_3 
ROOT
HETATM    1  C3  UNL     1       7.463  48.379  54.988  1.00  0.00     0.238 C 
HETATM    2  C4  UNL     1       7.563  47.737  56.297  1.00  0.00     0.111 C 
HETATM    3  C5  UNL     1       7.609  46.411  56.644  1.00  0.00     0.040 C 
HETATM    4  C6  UNL     1       8.499  48.824  56.648  1.00  0.00     0.291 C 
HETATM    5  N1  UNL     1       7.502  49.480  55.889  1.00  0.00     0.016 N 
HETATM    6  C7  UNL     1       7.347  50.762  55.633  1.00  0.00     0.298 C 
HETATM    7  N2  UNL     1       6.581  48.714  56.678  1.00  0.00    -0.032 NA
ENDROOT
BRANCH   1   8
HETATM    8  C2  UNL     1       8.576  48.173  54.026  1.00  0.00     0.033 C 
HETATM    9  C1  UNL     1       8.532  49.197  52.887  1.00  0.00     0.007 C 
ENDBRANCH   1   8
TORSDOF 1
ENDMDL
MODEL 5
REMARK VINA RESULT: -3.313642257      1.709      3.111
REMARK  1 active torsions:
REMARK  status: ('A' for Active; 'I' for Inactive)
REMARK    1  A    between atoms: C2_2  and  C3_3 
ROOT
HETATM    1  C3  UNL     1      10.411  46.074  58.356  1.00  0.00     0.238 C 
HETATM    2  C4  UNL     1       9.731  44.845  58.761  1.00  0.00     0.111 C 
HETATM    3  C5  UNL     1      10.145  43.814  59.565  1.00  0.00     0.040 C 
HETATM    4  C6  UNL     1       8.512  45.672  58.863  1.00  0.00     0.291 C 
HETATM    5  N1  UNL     1       9.151  46.168  57.703  1.00  0.00     0.016 N 
HETATM    6  C7  UNL     1       8.737  47.066  56.834  1.00  0.00     0.298 C 
HETATM    7  N2  UNL     1       9.349  44.786  57.377  1.00  0.00    -0.032 NA
ENDROOT
BRANCH   1   8
HETATM    8  C2  UNL     1      10.768  47.052  59.416  1.00  0.00     0.033 C 
HETATM    9  C1  UNL     1      12.223  46.886  59.868  1.00  0.00     0.007 C 
ENDBRANCH   1   8
TORSDOF 1
ENDMDL
