MODEL 1
REMARK VINA RESULT: -4.021056296      0.000      0.000
REMARK  2 active torsions:
REMARK  status: ('A' for Active; 'I' for Inactive)
REMARK    1  A    between atoms: C5_6  and  C6_7 
REMARK    2  A    between atoms: N2_8  and  N3_10 
ROOT
HETATM    1  C1  UNL     1       7.821  45.627  57.656  1.00  0.00     0.296 C 
HETATM    2  N1  UNL     1       8.769  46.555  57.040  1.00  0.00     0.003 N 
HETATM    3  C2  UNL     1      10.109  46.326  57.508  1.00  0.00     0.296 C 
HETATM    4  C3  UNL     1       8.381  47.918  57.404  1.00  0.00     0.261 C 
HETATM    5  C4  UNL     1       7.301  48.235  56.396  1.00  0.00     0.058 C 
HETATM    6  C5  UNL     1       7.757  47.482  55.189  1.00  0.00     0.148 C 
HETATM    7  N4  UNL     1       8.613  46.459  55.688  1.00  0.00    -0.037 NA
ENDROOT
BRANCH   6   8
HETATM    8  C6  UNL     1       8.452  48.345  54.199  1.00  0.00     0.102 C 
HETATM    9  N2  UNL     1       7.882  49.345  53.688  1.00  0.00    -0.321 N 
ATOM     10  H2  UNL     1       6.923  49.570  53.957  1.00  0.00     0.185 HD
BRANCH   9  11
HETATM   11  N3  UNL     1       8.544  50.152  52.757  1.00  0.00    -0.346 N 
ATOM     12  H32 UNL     1       8.522  49.881  51.774  1.00  0.00     0.176 HD
ATOM     13  H31 UNL     1       9.038  50.994  53.052  1.00  0.00     0.176 HD
ENDBRANCH   9  11
ENDBRANCH   6   8
TORSDOF 2
ENDMDL
MODEL 2
REMARK VINA RESULT: -3.910133575      2.259      3.772
REMARK  2 active torsions:
REMARK  status: ('A' for Active; 'I' for Inactive)
REMARK    1  A    between atoms: C5_6  and  C6_7 
REMARK    2  A    between atoms: N2_8  and  N3_10 
ROOT
HETATM    1  C1  UNL     1      10.489  46.144  60.828  1.00  0.00     0.296 C 
HETATM    2  N1  UNL     1       9.312  45.746  60.057  1.00  0.00     0.003 N 
HETATM    3  C2  UNL     1       8.285  45.206  60.908  1.00  0.00     0.296 C 
HETATM    4  C3  UNL     1       9.713  44.711  59.104  1.00  0.00     0.261 C 
HETATM    5  C4  UNL     1      10.281  45.517  57.960  1.00  0.00     0.058 C 
HETATM    6  C5  UNL     1       9.441  46.753  57.989  1.00  0.00     0.148 C 
HETATM    7  N4  UNL     1       8.928  46.824  59.315  1.00  0.00    -0.037 NA
ENDROOT
BRANCH   6   8
HETATM    8  C6  UNL     1       8.351  46.732  56.979  1.00  0.00     0.102 C 
HETATM    9  N2  UNL     1       8.601  46.611  55.750  1.00  0.00    -0.321 N 
ATOM     10  H2  UNL     1       9.569  46.525  55.438  1.00  0.00     0.185 HD
BRANCH   9  11
HETATM   11  N3  UNL     1       7.569  46.593  54.806  1.00  0.00    -0.346 N 
ATOM     12  H32 UNL     1       6.669  46.195  55.074  1.00  0.00     0.176 HD
ATOM     13  H31 UNL     1       7.710  46.969  53.868  1.00  0.00     0.176 HD
ENDBRANCH   9  11
ENDBRANCH   6   8
TORSDOF 2
ENDMDL
MODEL 3
REMARK VINA RESULT: -3.845646708      2.246      3.666
REMARK  2 active torsions:
REMARK  status: ('A' for Active; 'I' for Inactive)
REMARK    1  A    between atoms: C5_6  and  C6_7 
REMARK    2  A    between atoms: N2_8  and  N3_10 
ROOT
HETATM    1  C1  UNL     1       9.460  44.939  60.798  1.00  0.00     0.296 C 
HETATM    2  N1  UNL     1       9.151  44.840  59.372  1.00  0.00     0.003 N 
HETATM    3  C2  UNL     1       8.481  43.605  59.064  1.00  0.00     0.296 C 
HETATM    4  C3  UNL     1      10.408  44.882  58.625  1.00  0.00     0.261 C 
HETATM    5  C4  UNL     1      10.693  46.362  58.538  1.00  0.00     0.058 C 
HETATM    6  C5  UNL     1       9.320  46.949  58.460  1.00  0.00     0.148 C 
HETATM    7  N4  UNL     1       8.461  45.965  59.026  1.00  0.00    -0.037 NA
ENDROOT
BRANCH   6   8
HETATM    8  C6  UNL     1       8.919  47.294  57.072  1.00  0.00     0.102 C 
HETATM    9  N2  UNL     1       8.927  46.431  56.154  1.00  0.00    -0.321 N 
ATOM     10  H2  UNL     1       9.215  45.475  56.366  1.00  0.00     0.185 HD
BRANCH   9  11
HETATM   11  N3  UNL     1       8.548  46.764  54.850  1.00  0.00    -0.346 N 
ATOM     12  H32 UNL     1       7.985  46.098  54.321  1.00  0.00     0.176 HD
ATOM     13  H31 UNL     1       8.827  47.652  54.434  1.00  0.00     0.176 HD
ENDBRANCH   9  11
ENDBRANCH   6   8
TORSDOF 2
ENDMDL
MODEL 4
REMARK VINA RESULT: -3.637562165      2.202      3.590
REMARK  2 active torsions:
REMARK  status: ('A' for Active; 'I' for Inactive)
REMARK    1  A    between atoms: C5_6  and  C6_7 
REMARK    2  A    between atoms: N2_8  and  N3_10 
ROOT
HETATM    1  C1  UNL     1      11.265  45.980  60.230  1.00  0.00     0.296 C 
HETATM    2  N1  UNL     1      10.007  46.594  59.808  1.00  0.00     0.003 N 
HETATM    3  C2  UNL     1       9.611  47.649  60.701  1.00  0.00     0.296 C 
HETATM    4  C3  UNL     1       8.967  45.566  59.819  1.00  0.00     0.261 C 
HETATM    5  C4  UNL     1       9.165  44.880  58.488  1.00  0.00     0.058 C 
HETATM    6  C5  UNL     1       9.627  46.001  57.614  1.00  0.00     0.148 C 
HETATM    7  N4  UNL     1      10.157  46.976  58.507  1.00  0.00    -0.037 NA
ENDROOT
BRANCH   6   8
HETATM    8  C6  UNL     1       8.538  46.562  56.772  1.00  0.00     0.102 C 
HETATM    9  N2  UNL     1       8.605  46.537  55.514  1.00  0.00    -0.321 N 
ATOM     10  H2  UNL     1       9.421  46.124  55.062  1.00  0.00     0.185 HD
BRANCH   9  11
HETATM   11  N3  UNL     1       7.576  47.068  54.730  1.00  0.00    -0.346 N 
ATOM     12  H32 UNL     1       6.624  47.049  55.096  1.00  0.00     0.176 HD
ATOM     13  H31 UNL     1       7.770  47.465  53.811  1.00  0.00     0.176 HD
ENDBRANCH   9  11
ENDBRANCH   6   8
TORSDOF 2
ENDMDL
MODEL 5
REMARK VINA RESULT: -3.597306508      2.505      3.936
REMARK  2 active torsions:
REMARK  status: ('A' for Active; 'I' for Inactive)
REMARK    1  A    between atoms: C5_6  and  C6_7 
REMARK    2  A    between atoms: N2_8  and  N3_10 
ROOT
HETATM    1  C1  UNL     1      11.678  45.973  60.506  1.00  0.00     0.296 C 
HETATM    2  N1  UNL     1      10.768  46.847  59.766  1.00  0.00     0.003 N 
HETATM    3  C2  UNL     1      11.193  48.219  59.825  1.00  0.00     0.296 C 
HETATM    4  C3  UNL     1       9.440  46.750  60.373  1.00  0.00     0.261 C 
HETATM    5  C4  UNL     1       8.876  45.501  59.738  1.00  0.00     0.058 C 
HETATM    6  C5  UNL     1       9.488  45.529  58.375  1.00  0.00     0.148 C 
HETATM    7  N4  UNL     1      10.651  46.340  58.505  1.00  0.00    -0.037 NA
ENDROOT
BRANCH   6   8
HETATM    8  C6  UNL     1       8.564  46.057  57.339  1.00  0.00     0.102 C 
HETATM    9  N2  UNL     1       8.974  46.349  56.184  1.00  0.00    -0.321 N 
ATOM     10  H2  UNL     1       9.959  46.220  55.952  1.00  0.00     0.185 HD
BRANCH   9  11
HETATM   11  N3  UNL     1       8.097  46.846  55.214  1.00  0.00    -0.346 N 
ATOM     12  H32 UNL     1       8.260  47.782  54.843  1.00  0.00     0.176 HD
ATOM     13  H31 UNL     1       7.309  46.288  54.884  1.00  0.00     0.176 HD
ENDBRANCH   9  11
ENDBRANCH   6   8
TORSDOF 2
ENDMDL
