MODEL 1
REMARK VINA RESULT: -3.594671819      0.000      0.000
REMARK  0 active torsions:
REMARK  status: ('A' for Active; 'I' for Inactive)
ROOT
HETATM    1  C1  UNL     1       7.728  49.730  55.390  1.00  0.00     0.011 C 
HETATM    2  C2  UNL     1       7.620  48.864  54.168  1.00  0.00     0.011 C 
HETATM    3  C3  UNL     1       8.394  47.564  54.494  1.00  0.00     0.079 C 
HETATM    4  S1  UNL     1       7.659  47.069  56.063  1.00  0.00    -0.144 SA
HETATM    5  C4  UNL     1       6.989  49.101  56.516  1.00  0.00     0.079 C 
HETATM    6  C5  UNL     1       9.245  46.937  57.063  1.00  0.00     0.138 A 
HETATM    7  N1  UNL     1       8.154  46.402  57.581  1.00  0.00    -0.347 N 
ATOM      8  H1  UNL     1       7.807  45.895  58.395  1.00  0.00     0.172 HD
ENDROOT
TORSDOF 0
ENDMDL
MODEL 2
REMARK VINA RESULT: -3.472277774      1.028      2.009
REMARK  0 active torsions:
REMARK  status: ('A' for Active; 'I' for Inactive)
ROOT
HETATM    1  C1  UNL     1       7.388  48.964  54.153  1.00  0.00     0.011 C 
HETATM    2  C2  UNL     1       7.475  49.931  55.299  1.00  0.00     0.011 C 
HETATM    3  C3  UNL     1       7.353  49.082  56.587  1.00  0.00     0.079 C 
HETATM    4  S1  UNL     1       8.610  47.819  56.329  1.00  0.00    -0.144 SA
HETATM    5  C4  UNL     1       8.580  48.075  54.158  1.00  0.00     0.079 C 
HETATM    6  C5  UNL     1       7.516  46.310  56.570  1.00  0.00     0.138 A 
HETATM    7  N1  UNL     1       8.823  46.121  56.586  1.00  0.00    -0.347 N 
ATOM      8  H1  UNL     1       9.537  45.400  56.688  1.00  0.00     0.172 HD
ENDROOT
TORSDOF 0
ENDMDL
MODEL 3
REMARK VINA RESULT: -3.441078069      1.764      3.433
REMARK  0 active torsions:
REMARK  status: ('A' for Active; 'I' for Inactive)
ROOT
HETATM    1  C1  UNL     1       9.954  46.678  57.953  1.00  0.00     0.011 C 
HETATM    2  C2  UNL     1       9.182  47.847  58.493  1.00  0.00     0.011 C 
HETATM    3  C3  UNL     1       8.515  48.523  57.271  1.00  0.00     0.079 C 
HETATM    4  S1  UNL     1       7.684  47.136  56.479  1.00  0.00    -0.144 SA
HETATM    5  C4  UNL     1       9.011  45.666  57.406  1.00  0.00     0.079 C 
HETATM    6  C5  UNL     1       8.432  47.328  54.765  1.00  0.00     0.138 A 
HETATM    7  N1  UNL     1       7.381  46.536  54.884  1.00  0.00    -0.347 N 
ATOM      8  H1  UNL     1       6.759  45.929  54.350  1.00  0.00     0.172 HD
ENDROOT
TORSDOF 0
ENDMDL
MODEL 4
REMARK VINA RESULT: -3.386497800      2.734      3.681
REMARK  0 active torsions:
REMARK  status: ('A' for Active; 'I' for Inactive)
ROOT
HETATM    1  C1  UNL     1       8.499  47.934  54.599  1.00  0.00     0.011 C 
HETATM    2  C2  UNL     1       8.067  47.696  56.017  1.00  0.00     0.011 C 
HETATM    3  C3  UNL     1       7.967  49.093  56.676  1.00  0.00     0.079 C 
HETATM    4  S1  UNL     1       6.919  49.984  55.514  1.00  0.00    -0.144 SA
HETATM    5  C4  UNL     1       7.421  48.643  53.861  1.00  0.00     0.079 C 
HETATM    6  C5  UNL     1       8.058  51.447  55.205  1.00  0.00     0.138 A 
HETATM    7  N1  UNL     1       6.804  51.559  54.806  1.00  0.00    -0.347 N 
ATOM      8  H1  UNL     1       6.152  52.197  54.349  1.00  0.00     0.172 HD
ENDROOT
TORSDOF 0
ENDMDL
MODEL 5
REMARK VINA RESULT: -3.362920249      1.991      2.296
REMARK  0 active torsions:
REMARK  status: ('A' for Active; 'I' for Inactive)
ROOT
HETATM    1  C1  UNL     1       8.399  48.566  54.088  1.00  0.00     0.011 C 
HETATM    2  C2  UNL     1       7.522  47.395  54.423  1.00  0.00     0.011 C 
HETATM    3  C3  UNL     1       7.560  47.257  55.965  1.00  0.00     0.079 C 
HETATM    4  S1  UNL     1       7.144  48.924  56.503  1.00  0.00    -0.144 SA
HETATM    5  C4  UNL     1       7.787  49.815  54.613  1.00  0.00     0.079 C 
HETATM    6  C5  UNL     1       8.632  49.219  57.613  1.00  0.00     0.138 A 
HETATM    7  N1  UNL     1       7.616  50.055  57.725  1.00  0.00    -0.347 N 
ATOM      8  H1  UNL     1       7.298  50.881  58.233  1.00  0.00     0.172 HD
ENDROOT
TORSDOF 0
ENDMDL
