MODEL 1
REMARK VINA RESULT: -4.968191970      0.000      0.000
REMARK  3 active torsions:
REMARK  status: ('A' for Active; 'I' for Inactive)
REMARK    1  A    between atoms: C2_2  and  C4_4 
REMARK    2  A    between atoms: C5_5  and  C6_6 
REMARK    3  A    between atoms: N1_7  and  C7_9 
ROOT
HETATM    1  C4  UNL     1       7.916  48.791  54.376  1.00  0.00    -0.097 C 
HETATM    2  C5  UNL     1       7.968  47.966  55.250  1.00  0.00    -0.061 C 
ENDROOT
BRANCH   2   3
HETATM    3  C6  UNL     1       8.009  46.974  56.318  1.00  0.00     0.155 C 
HETATM    4  N1  UNL     1       9.097  46.355  56.540  1.00  0.00    -0.337 N 
ATOM      5  H1  UNL     1       9.922  46.554  55.974  1.00  0.00     0.168 HD
BRANCH   4   6
HETATM    6  C7  UNL     1       9.161  45.389  57.571  1.00  0.00     0.353 C 
HETATM    7  O1  UNL     1       8.661  44.255  57.443  1.00  0.00    -0.283 OA
ENDBRANCH   4   6
ENDBRANCH   2   3
BRANCH   1   8
HETATM    8  C2  UNL     1       7.836  49.816  53.320  1.00  0.00     0.057 C 
HETATM    9  C1  UNL     1       8.978  49.569  52.379  1.00  0.00     0.023 C 
HETATM   10  C3  UNL     1       7.962  51.215  53.934  1.00  0.00     0.023 C 
ENDBRANCH   1   8
TORSDOF 3
ENDMDL
MODEL 2
REMARK VINA RESULT: -4.299319836      3.241      5.486
REMARK  3 active torsions:
REMARK  status: ('A' for Active; 'I' for Inactive)
REMARK    1  A    between atoms: C2_2  and  C4_4 
REMARK    2  A    between atoms: C5_5  and  C6_6 
REMARK    3  A    between atoms: N1_7  and  C7_9 
ROOT
HETATM    1  C4  UNL     1       8.407  47.344  56.659  1.00  0.00    -0.097 C 
HETATM    2  C5  UNL     1       8.099  47.862  55.617  1.00  0.00    -0.061 C 
ENDROOT
BRANCH   2   3
HETATM    3  C6  UNL     1       7.732  48.512  54.364  1.00  0.00     0.155 C 
HETATM    4  N1  UNL     1       8.388  49.533  53.986  1.00  0.00    -0.337 N 
ATOM      5  H1  UNL     1       9.157  49.885  54.556  1.00  0.00     0.168 HD
BRANCH   4   6
HETATM    6  C7  UNL     1       8.051  50.179  52.775  1.00  0.00     0.353 C 
HETATM    7  O1  UNL     1       8.827  50.198  51.801  1.00  0.00    -0.283 OA
ENDBRANCH   4   6
ENDBRANCH   2   3
BRANCH   1   8
HETATM    8  C2  UNL     1       8.780  46.732  57.945  1.00  0.00     0.057 C 
HETATM    9  C1  UNL     1       9.659  47.713  58.662  1.00  0.00     0.023 C 
HETATM   10  C3  UNL     1       9.547  45.427  57.704  1.00  0.00     0.023 C 
ENDBRANCH   1   8
TORSDOF 3
ENDMDL
MODEL 3
REMARK VINA RESULT: -4.209949090      3.212      5.492
REMARK  3 active torsions:
REMARK  status: ('A' for Active; 'I' for Inactive)
REMARK    1  A    between atoms: C2_2  and  C4_4 
REMARK    2  A    between atoms: C5_5  and  C6_6 
REMARK    3  A    between atoms: N1_7  and  C7_9 
ROOT
HETATM    1  C4  UNL     1       8.597  47.013  56.380  1.00  0.00    -0.097 C 
HETATM    2  C5  UNL     1       8.174  47.715  55.500  1.00  0.00    -0.061 C 
ENDROOT
BRANCH   2   3
HETATM    3  C6  UNL     1       7.684  48.570  54.425  1.00  0.00     0.155 C 
HETATM    4  N1  UNL     1       8.463  49.445  53.932  1.00  0.00    -0.337 N 
ATOM      5  H1  UNL     1       9.414  49.540  54.288  1.00  0.00     0.168 HD
BRANCH   4   6
HETATM    6  C7  UNL     1       8.010  50.285  52.889  1.00  0.00     0.353 C 
HETATM    7  O1  UNL     1       8.610  50.365  51.800  1.00  0.00    -0.283 OA
ENDBRANCH   4   6
ENDBRANCH   2   3
BRANCH   1   8
HETATM    8  C2  UNL     1       9.138  46.164  57.456  1.00  0.00     0.057 C 
HETATM    9  C1  UNL     1       8.069  45.178  57.820  1.00  0.00     0.023 C 
HETATM   10  C3  UNL     1       9.492  47.022  58.676  1.00  0.00     0.023 C 
ENDBRANCH   1   8
TORSDOF 3
ENDMDL
MODEL 4
REMARK VINA RESULT: -4.124085996      3.014      5.629
REMARK  3 active torsions:
REMARK  status: ('A' for Active; 'I' for Inactive)
REMARK    1  A    between atoms: C2_2  and  C4_4 
REMARK    2  A    between atoms: C5_5  and  C6_6 
REMARK    3  A    between atoms: N1_7  and  C7_9 
ROOT
HETATM    1  C4  UNL     1       8.487  46.539  56.922  1.00  0.00    -0.097 C 
HETATM    2  C5  UNL     1       8.219  47.126  55.906  1.00  0.00    -0.061 C 
ENDROOT
BRANCH   2   3
HETATM    3  C6  UNL     1       7.897  47.858  54.687  1.00  0.00     0.155 C 
HETATM    4  N1  UNL     1       8.233  49.081  54.598  1.00  0.00    -0.337 N 
ATOM      5  H1  UNL     1       8.721  49.533  55.371  1.00  0.00     0.168 HD
BRANCH   4   6
HETATM    6  C7  UNL     1       7.931  49.811  53.426  1.00  0.00     0.353 C 
HETATM    7  O1  UNL     1       7.934  51.057  53.408  1.00  0.00    -0.283 OA
ENDBRANCH   4   6
ENDBRANCH   2   3
BRANCH   1   8
HETATM    8  C2  UNL     1       8.809  45.840  58.178  1.00  0.00     0.057 C 
HETATM    9  C1  UNL     1      10.303  45.785  58.283  1.00  0.00     0.023 C 
HETATM   10  C3  UNL     1       8.237  44.419  58.152  1.00  0.00     0.023 C 
ENDBRANCH   1   8
TORSDOF 3
ENDMDL
MODEL 5
REMARK VINA RESULT: -3.969108115      2.079      3.094
REMARK  3 active torsions:
REMARK  status: ('A' for Active; 'I' for Inactive)
REMARK    1  A    between atoms: C2_2  and  C4_4 
REMARK    2  A    between atoms: C5_5  and  C6_6 
REMARK    3  A    between atoms: N1_7  and  C7_9 
ROOT
HETATM    1  C4  UNL     1       8.131  47.216  56.543  1.00  0.00    -0.097 C 
HETATM    2  C5  UNL     1       8.167  46.160  57.119  1.00  0.00    -0.061 C 
ENDROOT
BRANCH   2   3
HETATM    3  C6  UNL     1       8.186  44.878  57.813  1.00  0.00     0.155 C 
HETATM    4  N1  UNL     1       7.422  43.948  57.405  1.00  0.00    -0.337 N 
ATOM      5  H1  UNL     1       6.809  44.104  56.606  1.00  0.00     0.168 HD
BRANCH   4   6
HETATM    6  C7  UNL     1       7.423  42.696  58.062  1.00  0.00     0.353 C 
HETATM    7  O1  UNL     1       7.768  41.648  57.482  1.00  0.00    -0.283 OA
ENDBRANCH   4   6
ENDBRANCH   2   3
BRANCH   1   8
HETATM    8  C2  UNL     1       8.063  48.509  55.840  1.00  0.00     0.057 C 
HETATM    9  C1  UNL     1       7.011  49.329  56.525  1.00  0.00     0.023 C 
HETATM   10  C3  UNL     1       7.678  48.290  54.373  1.00  0.00     0.023 C 
ENDBRANCH   1   8
TORSDOF 3
ENDMDL
