MODEL 1
REMARK VINA RESULT: -3.596913054      0.000      0.000
REMARK  0 active torsions:
REMARK  status: ('A' for Active; 'I' for Inactive)
ROOT
HETATM    1  C1  UNL     1       7.433  48.823  54.827  1.00  0.00     0.048 C 
HETATM    2  C2  UNL     1       8.616  48.015  54.330  1.00  0.00     0.144 C 
HETATM    3  N1  UNL     1       8.363  46.743  55.020  1.00  0.00    -0.045 NA
HETATM    4  N2  UNL     1       8.077  47.141  56.311  1.00  0.00     0.036 N 
HETATM    5  C3  UNL     1       7.322  48.343  56.259  1.00  0.00     0.264 C 
HETATM    6  C4  UNL     1       7.376  46.072  57.015  1.00  0.00     0.290 C 
HETATM    7  C5  UNL     1       8.496  45.171  57.454  1.00  0.00     0.264 C 
HETATM    8  N3  UNL     1       9.739  45.820  57.007  1.00  0.00    -0.048 N 
ATOM      9  H31 UNL     1      10.119  45.499  56.117  1.00  0.00     0.279 HD
ATOM     10  H32 UNL     1      10.580  45.591  57.536  1.00  0.00     0.279 HD
HETATM   11  C6  UNL     1       9.303  47.226  57.057  1.00  0.00     0.490 C 
ENDROOT
TORSDOF 0
ENDMDL
MODEL 2
REMARK VINA RESULT: -3.317002171      2.880      4.557
REMARK  0 active torsions:
REMARK  status: ('A' for Active; 'I' for Inactive)
ROOT
HETATM    1  C1  UNL     1       6.861  42.882  59.443  1.00  0.00     0.048 C 
HETATM    2  C2  UNL     1       6.961  43.009  57.935  1.00  0.00     0.144 C 
HETATM    3  N1  UNL     1       8.386  43.341  57.803  1.00  0.00    -0.045 NA
HETATM    4  N2  UNL     1       8.569  44.318  58.761  1.00  0.00     0.036 N 
HETATM    5  C3  UNL     1       7.788  43.989  59.901  1.00  0.00     0.264 C 
HETATM    6  C4  UNL     1       9.989  44.443  59.076  1.00  0.00     0.290 C 
HETATM    7  C5  UNL     1      10.501  45.320  57.967  1.00  0.00     0.264 C 
HETATM    8  N3  UNL     1       9.329  45.658  57.143  1.00  0.00    -0.048 N 
ATOM      9  H31 UNL     1       9.176  45.076  56.320  1.00  0.00     0.279 HD
ATOM     10  H32 UNL     1       9.389  46.526  56.612  1.00  0.00     0.279 HD
HETATM   11  C6  UNL     1       8.285  45.602  58.180  1.00  0.00     0.490 C 
ENDROOT
TORSDOF 0
ENDMDL
MODEL 3
REMARK VINA RESULT: -3.281527034      2.158      2.888
REMARK  0 active torsions:
REMARK  status: ('A' for Active; 'I' for Inactive)
ROOT
HETATM    1  C1  UNL     1       8.404  48.147  57.188  1.00  0.00     0.048 C 
HETATM    2  C2  UNL     1       8.240  46.699  56.767  1.00  0.00     0.144 C 
HETATM    3  N1  UNL     1       8.309  46.045  58.081  1.00  0.00    -0.045 NA
HETATM    4  N2  UNL     1       9.401  46.648  58.673  1.00  0.00     0.036 N 
HETATM    5  C3  UNL     1       9.412  48.022  58.311  1.00  0.00     0.264 C 
HETATM    6  C4  UNL     1       9.351  46.453  60.119  1.00  0.00     0.290 C 
HETATM    7  C5  UNL     1       9.919  45.072  60.288  1.00  0.00     0.264 C 
HETATM    8  N3  UNL     1      10.287  44.615  58.939  1.00  0.00    -0.048 N 
ATOM      9  H31 UNL     1       9.598  44.037  58.456  1.00  0.00     0.279 HD
ATOM     10  H32 UNL     1      11.025  43.912  58.887  1.00  0.00     0.279 HD
HETATM   11  C6  UNL     1      10.587  45.918  58.320  1.00  0.00     0.490 C 
ENDROOT
TORSDOF 0
ENDMDL
MODEL 4
REMARK VINA RESULT: -3.266880363      2.451      4.360
REMARK  0 active torsions:
REMARK  status: ('A' for Active; 'I' for Inactive)
ROOT
HETATM    1  C1  UNL     1       9.831  44.354  59.383  1.00  0.00     0.048 C 
HETATM    2  C2  UNL     1       9.290  45.340  60.401  1.00  0.00     0.144 C 
HETATM    3  N1  UNL     1       8.592  46.272  59.504  1.00  0.00    -0.045 NA
HETATM    4  N2  UNL     1       9.516  46.492  58.502  1.00  0.00     0.036 N 
HETATM    5  C3  UNL     1      10.198  45.274  58.238  1.00  0.00     0.264 C 
HETATM    6  C4  UNL     1       8.846  47.024  57.320  1.00  0.00     0.290 C 
HETATM    7  C5  UNL     1       8.721  48.488  57.637  1.00  0.00     0.264 C 
HETATM    8  N3  UNL     1       9.367  48.676  58.946  1.00  0.00    -0.048 N 
ATOM      9  H31 UNL     1       8.749  48.669  59.758  1.00  0.00     0.279 HD
ATOM     10  H32 UNL     1       9.732  49.609  59.137  1.00  0.00     0.279 HD
HETATM   11  C6  UNL     1      10.361  47.592  58.879  1.00  0.00     0.490 C 
ENDROOT
TORSDOF 0
ENDMDL
MODEL 5
REMARK VINA RESULT: -3.219170932      3.088      4.051
REMARK  0 active torsions:
REMARK  status: ('A' for Active; 'I' for Inactive)
ROOT
HETATM    1  C1  UNL     1      10.720  47.610  60.641  1.00  0.00     0.048 C 
HETATM    2  C2  UNL     1      10.371  48.198  59.287  1.00  0.00     0.144 C 
HETATM    3  N1  UNL     1       9.231  47.343  58.927  1.00  0.00    -0.045 NA
HETATM    4  N2  UNL     1       9.689  46.074  59.219  1.00  0.00     0.036 N 
HETATM    5  C3  UNL     1      10.474  46.135  60.401  1.00  0.00     0.264 C 
HETATM    6  C4  UNL     1       8.560  45.158  59.347  1.00  0.00     0.290 C 
HETATM    7  C5  UNL     1       8.252  44.806  57.918  1.00  0.00     0.264 C 
HETATM    8  N3  UNL     1       9.254  45.510  57.101  1.00  0.00    -0.048 N 
ATOM      9  H31 UNL     1       8.968  46.409  56.715  1.00  0.00     0.279 HD
ATOM     10  H32 UNL     1       9.462  45.099  56.191  1.00  0.00     0.279 HD
HETATM   11  C6  UNL     1      10.366  45.544  58.067  1.00  0.00     0.490 C 
ENDROOT
TORSDOF 0
ENDMDL
