MODEL 1
REMARK VINA RESULT: -7.588309998      0.000      0.000
REMARK  6 active torsions:
REMARK  status: ('A' for Active; 'I' for Inactive)
REMARK    1  A    between atoms: C2_2  and  C4_4 
REMARK       I    between atoms: N2_10  and  C8_11 
REMARK    2  A    between atoms: C8_11  and  O3_13 
REMARK    3  A    between atoms: O3_13  and  C9_14 
REMARK    4  A    between atoms: C9_14  and  C10_15 
REMARK    5  A    between atoms: C20_27  and  C21_28 
REMARK    6  A    between atoms: C21_28  and  O5_29 
ROOT
HETATM    1  C4  UNL     1       9.476  47.171  61.778  1.00  0.00     0.036 C 
HETATM    2  C5  UNL     1       9.903  46.679  60.466  1.00  0.00     0.359 C 
HETATM    3  O1  UNL     1      11.166  46.613  60.401  1.00  0.00    -0.259 OA
HETATM    4  N1  UNL     1       9.350  46.259  59.250  1.00  0.00     0.079 N 
HETATM    5  C6  UNL     1      10.436  46.009  58.297  1.00  0.00     0.296 C 
HETATM    6  C7  UNL     1       8.561  47.408  58.761  1.00  0.00     0.387 C 
HETATM    7  N2  UNL     1       7.413  47.662  59.590  1.00  0.00    -0.293 N 
HETATM    8  C8  UNL     1       6.441  48.455  58.930  1.00  0.00     0.365 C 
HETATM    9  O2  UNL     1       5.392  48.744  59.552  1.00  0.00    -0.238 OA
HETATM   10  C16 UNL     1       7.081  47.265  60.925  1.00  0.00     0.130 C 
HETATM   11  C17 UNL     1       6.770  45.788  60.915  1.00  0.00     0.024 C 
HETATM   12  C18 UNL     1       7.403  44.878  60.196  1.00  0.00     0.085 C 
HETATM   13 BR1  UNL     1       6.771  43.108  60.406  1.00  0.00    -0.045 Br
HETATM   14  C19 UNL     1       8.508  45.123  59.290  1.00  0.00     0.368 C 
HETATM   15  O4  UNL     1       8.705  44.177  58.454  1.00  0.00    -0.258 OA
HETATM   16  C20 UNL     1       8.093  47.626  61.978  1.00  0.00     0.108 C 
ENDROOT
BRANCH   8  17
HETATM   17  O3  UNL     1       6.590  48.921  57.643  1.00  0.00    -0.299 OA
BRANCH  17  18
HETATM   18  C9  UNL     1       7.069  50.197  57.311  1.00  0.00     0.219 C 
BRANCH  18  19
HETATM   19  C10 UNL     1       7.600  50.265  55.923  1.00  0.00    -0.034 A 
HETATM   20  C11 UNL     1       8.117  49.133  55.319  1.00  0.00     0.009 A 
HETATM   21  C12 UNL     1       8.636  49.108  54.047  1.00  0.00     0.001 A 
HETATM   22  C13 UNL     1       8.645  50.279  53.324  1.00  0.00     0.000 A 
HETATM   23  C14 UNL     1       8.131  51.439  53.905  1.00  0.00     0.001 A 
HETATM   24  C15 UNL     1       7.618  51.429  55.183  1.00  0.00     0.009 A 
ENDBRANCH  18  19
ENDBRANCH  17  18
ENDBRANCH   8  17
BRANCH  16  25
HETATM   25  C21 UNL     1       8.003  49.132  62.061  1.00  0.00     0.056 C 
HETATM   26  C22 UNL     1       7.179  49.813  62.802  1.00  0.00    -0.058 C 
HETATM   27  C23 UNL     1       6.194  49.138  63.679  1.00  0.00     0.045 C 
HETATM   28  C24 UNL     1       7.247  51.311  62.748  1.00  0.00     0.045 C 
BRANCH  25  29
HETATM   29  O5  UNL     1       8.898  49.854  61.259  1.00  0.00    -0.364 OA
ATOM     30  H5  UNL     1       8.754  50.791  61.205  1.00  0.00     0.217 HD
ENDBRANCH  25  29
ENDBRANCH  16  25
BRANCH   1  31
HETATM   31  C2  UNL     1      10.085  46.337  62.832  1.00  0.00    -0.059 C 
HETATM   32  C1  UNL     1      10.810  46.900  63.762  1.00  0.00     0.019 C 
HETATM   33  C3  UNL     1       9.916  44.858  62.928  1.00  0.00     0.048 C 
ENDBRANCH   1  31
TORSDOF 6
ENDMDL
MODEL 2
REMARK VINA RESULT: -7.558263084      3.128      6.140
REMARK  6 active torsions:
REMARK  status: ('A' for Active; 'I' for Inactive)
REMARK    1  A    between atoms: C2_2  and  C4_4 
REMARK       I    between atoms: N2_10  and  C8_11 
REMARK    2  A    between atoms: C8_11  and  O3_13 
REMARK    3  A    between atoms: O3_13  and  C9_14 
REMARK    4  A    between atoms: C9_14  and  C10_15 
REMARK    5  A    between atoms: C20_27  and  C21_28 
REMARK    6  A    between atoms: C21_28  and  O5_29 
ROOT
HETATM    1  C4  UNL     1       6.078  49.067  60.991  1.00  0.00     0.036 C 
HETATM    2  C5  UNL     1       6.854  49.198  62.226  1.00  0.00     0.359 C 
HETATM    3  O1  UNL     1       6.339  50.066  62.991  1.00  0.00    -0.259 OA
HETATM    4  N1  UNL     1       7.998  48.662  62.831  1.00  0.00     0.079 N 
HETATM    5  C6  UNL     1       8.257  49.387  64.079  1.00  0.00     0.296 C 
HETATM    6  C7  UNL     1       9.106  48.944  61.894  1.00  0.00     0.387 C 
HETATM    7  N2  UNL     1       8.979  48.193  60.674  1.00  0.00    -0.293 N 
HETATM    8  C8  UNL     1      10.202  48.120  59.962  1.00  0.00     0.365 C 
HETATM    9  O2  UNL     1      10.220  47.490  58.879  1.00  0.00    -0.238 OA
HETATM   10  C16 UNL     1       7.872  47.518  60.067  1.00  0.00     0.130 C 
HETATM   11  C17 UNL     1       7.567  46.283  60.880  1.00  0.00     0.024 C 
HETATM   12  C18 UNL     1       7.625  46.202  62.198  1.00  0.00     0.085 C 
HETATM   13 BR1  UNL     1       7.185  44.509  62.916  1.00  0.00    -0.045 Br
HETATM   14  C19 UNL     1       7.986  47.274  63.104  1.00  0.00     0.368 C 
HETATM   15  O4  UNL     1       8.322  46.870  64.269  1.00  0.00    -0.258 OA
HETATM   16  C20 UNL     1       6.649  48.362  59.834  1.00  0.00     0.108 C 
ENDROOT
BRANCH   8  17
HETATM   17  O3  UNL     1      11.370  48.705  60.399  1.00  0.00    -0.299 OA
BRANCH  17  18
HETATM   18  C9  UNL     1      12.527  47.997  60.757  1.00  0.00     0.219 C 
BRANCH  18  19
HETATM   19  C10 UNL     1      13.657  48.895  61.116  1.00  0.00    -0.034 A 
HETATM   20  C11 UNL     1      14.746  49.017  60.273  1.00  0.00     0.009 A 
HETATM   21  C12 UNL     1      15.836  49.814  60.530  1.00  0.00     0.001 A 
HETATM   22  C13 UNL     1      15.850  50.539  61.701  1.00  0.00     0.000 A 
HETATM   23  C14 UNL     1      14.766  50.438  62.574  1.00  0.00     0.001 A 
HETATM   24  C15 UNL     1      13.689  49.629  62.284  1.00  0.00     0.009 A 
ENDBRANCH  18  19
ENDBRANCH  17  18
ENDBRANCH   8  17
BRANCH  16  25
HETATM   25  C21 UNL     1       7.075  49.320  58.747  1.00  0.00     0.056 C 
HETATM   26  C22 UNL     1       7.353  49.009  57.515  1.00  0.00    -0.058 C 
HETATM   27  C23 UNL     1       7.278  47.608  57.038  1.00  0.00     0.045 C 
HETATM   28  C24 UNL     1       7.756  50.110  56.578  1.00  0.00     0.045 C 
BRANCH  25  29
HETATM   29  O5  UNL     1       7.175  50.670  59.111  1.00  0.00    -0.364 OA
ATOM     30  H5  UNL     1       7.723  50.865  59.861  1.00  0.00     0.217 HD
ENDBRANCH  25  29
ENDBRANCH  16  25
BRANCH   1  31
HETATM   31  C2  UNL     1       4.667  48.803  61.330  1.00  0.00    -0.059 C 
HETATM   32  C1  UNL     1       3.739  49.628  60.921  1.00  0.00     0.019 C 
HETATM   33  C3  UNL     1       4.203  47.620  62.112  1.00  0.00     0.048 C 
ENDBRANCH   1  31
TORSDOF 6
ENDMDL
MODEL 3
REMARK VINA RESULT: -7.520742327      3.695      6.791
REMARK  6 active torsions:
REMARK  status: ('A' for Active; 'I' for Inactive)
REMARK    1  A    between atoms: C2_2  and  C4_4 
REMARK       I    between atoms: N2_10  and  C8_11 
REMARK    2  A    between atoms: C8_11  and  O3_13 
REMARK    3  A    between atoms: O3_13  and  C9_14 
REMARK    4  A    between atoms: C9_14  and  C10_15 
REMARK    5  A    between atoms: C20_27  and  C21_28 
REMARK    6  A    between atoms: C21_28  and  O5_29 
ROOT
HETATM    1  C4  UNL     1       7.443  49.493  61.156  1.00  0.00     0.036 C 
HETATM    2  C5  UNL     1       8.271  50.319  62.038  1.00  0.00     0.359 C 
HETATM    3  O1  UNL     1       7.830  51.505  62.087  1.00  0.00    -0.259 OA
HETATM    4  N1  UNL     1       9.408  50.210  62.848  1.00  0.00     0.079 N 
HETATM    5  C6  UNL     1       9.750  51.538  63.365  1.00  0.00     0.296 C 
HETATM    6  C7  UNL     1      10.492  49.771  61.944  1.00  0.00     0.387 C 
HETATM    7  N2  UNL     1      10.282  48.432  61.466  1.00  0.00    -0.293 N 
HETATM    8  C8  UNL     1      11.472  47.851  60.960  1.00  0.00     0.365 C 
HETATM    9  O2  UNL     1      11.416  46.682  60.513  1.00  0.00    -0.238 OA
HETATM   10  C16 UNL     1       9.119  47.597  61.414  1.00  0.00     0.130 C 
HETATM   11  C17 UNL     1       8.783  47.167  62.821  1.00  0.00     0.024 C 
HETATM   12  C18 UNL     1       8.886  47.926  63.898  1.00  0.00     0.085 C 
HETATM   13 BR1  UNL     1       8.388  47.088  65.519  1.00  0.00    -0.045 Br
HETATM   14  C19 UNL     1       9.335  49.303  63.931  1.00  0.00     0.368 C 
HETATM   15  O4  UNL     1       9.694  49.698  65.093  1.00  0.00    -0.258 OA
HETATM   16  C20 UNL     1       7.933  48.185  60.700  1.00  0.00     0.108 C 
ENDROOT
BRANCH   8  17
HETATM   17  O3  UNL     1      12.683  48.505  60.936  1.00  0.00    -0.299 OA
BRANCH  17  18
HETATM   18  C9  UNL     1      13.648  48.427  61.952  1.00  0.00     0.219 C 
BRANCH  18  19
HETATM   19  C10 UNL     1      14.915  49.117  61.590  1.00  0.00    -0.034 A 
HETATM   20  C11 UNL     1      15.334  49.159  60.272  1.00  0.00     0.009 A 
HETATM   21  C12 UNL     1      16.494  49.765  59.851  1.00  0.00     0.001 A 
HETATM   22  C13 UNL     1      17.292  50.370  60.795  1.00  0.00     0.000 A 
HETATM   23  C14 UNL     1      16.898  50.344  62.134  1.00  0.00     0.001 A 
HETATM   24  C15 UNL     1      15.729  49.728  62.521  1.00  0.00     0.009 A 
ENDBRANCH  18  19
ENDBRANCH  17  18
ENDBRANCH   8  17
BRANCH  16  25
HETATM   25  C21 UNL     1       8.365  48.220  59.253  1.00  0.00     0.056 C 
HETATM   26  C22 UNL     1       8.150  47.296  58.364  1.00  0.00    -0.058 C 
HETATM   27  C23 UNL     1       7.422  46.052  58.707  1.00  0.00     0.045 C 
HETATM   28  C24 UNL     1       8.659  47.519  56.970  1.00  0.00     0.045 C 
BRANCH  25  29
HETATM   29  O5  UNL     1       9.065  49.363  58.840  1.00  0.00    -0.364 OA
ATOM     30  H5  UNL     1       8.579  50.178  58.843  1.00  0.00     0.217 HD
ENDBRANCH  25  29
ENDBRANCH  16  25
BRANCH   1  31
HETATM   31  C2  UNL     1       6.034  49.589  61.582  1.00  0.00    -0.059 C 
HETATM   32  C1  UNL     1       5.119  49.936  60.715  1.00  0.00     0.019 C 
HETATM   33  C3  UNL     1       5.557  49.295  62.965  1.00  0.00     0.048 C 
ENDBRANCH   1  31
TORSDOF 6
ENDMDL
MODEL 4
REMARK VINA RESULT: -7.463862839      1.367      1.457
REMARK  6 active torsions:
REMARK  status: ('A' for Active; 'I' for Inactive)
REMARK    1  A    between atoms: C2_2  and  C4_4 
REMARK       I    between atoms: N2_10  and  C8_11 
REMARK    2  A    between atoms: C8_11  and  O3_13 
REMARK    3  A    between atoms: O3_13  and  C9_14 
REMARK    4  A    between atoms: C9_14  and  C10_15 
REMARK    5  A    between atoms: C20_27  and  C21_28 
REMARK    6  A    between atoms: C21_28  and  O5_29 
ROOT
HETATM    1  C4  UNL     1       8.396  47.440  62.183  1.00  0.00     0.036 C 
HETATM    2  C5  UNL     1       9.547  47.319  61.285  1.00  0.00     0.359 C 
HETATM    3  O1  UNL     1      10.632  47.425  61.929  1.00  0.00    -0.259 OA
HETATM    4  N1  UNL     1       9.826  47.125  59.927  1.00  0.00     0.079 N 
HETATM    5  C6  UNL     1      11.274  47.237  59.721  1.00  0.00     0.296 C 
HETATM    6  C7  UNL     1       9.172  48.251  59.227  1.00  0.00     0.387 C 
HETATM    7  N2  UNL     1       7.738  48.164  59.298  1.00  0.00    -0.293 N 
HETATM    8  C8  UNL     1       7.104  48.962  58.313  1.00  0.00     0.365 C 
HETATM    9  O2  UNL     1       5.852  48.969  58.272  1.00  0.00    -0.238 OA
HETATM   10  C16 UNL     1       6.857  47.433  60.158  1.00  0.00     0.130 C 
HETATM   11  C17 UNL     1       6.945  45.971  59.793  1.00  0.00     0.024 C 
HETATM   12  C18 UNL     1       8.050  45.336  59.443  1.00  0.00     0.085 C 
HETATM   13 BR1  UNL     1       7.827  43.501  59.042  1.00  0.00    -0.045 Br
HETATM   14  C19 UNL     1       9.375  45.916  59.348  1.00  0.00     0.368 C 
HETATM   15  O4  UNL     1      10.191  45.220  58.654  1.00  0.00    -0.258 OA
HETATM   16  C20 UNL     1       7.052  47.663  61.632  1.00  0.00     0.108 C 
ENDROOT
BRANCH   8  17
HETATM   17  O3  UNL     1       7.794  49.726  57.398  1.00  0.00    -0.299 OA
BRANCH  17  18
HETATM   18  C9  UNL     1       7.191  50.544  56.431  1.00  0.00     0.219 C 
BRANCH  18  19
HETATM   19  C10 UNL     1       7.830  50.412  55.094  1.00  0.00    -0.034 A 
HETATM   20  C11 UNL     1       8.403  49.214  54.710  1.00  0.00     0.009 A 
HETATM   21  C12 UNL     1       9.022  49.008  53.500  1.00  0.00     0.001 A 
HETATM   22  C13 UNL     1       9.078  50.057  52.611  1.00  0.00     0.000 A 
HETATM   23  C14 UNL     1       8.509  51.281  52.968  1.00  0.00     0.001 A 
HETATM   24  C15 UNL     1       7.896  51.452  54.190  1.00  0.00     0.009 A 
ENDBRANCH  18  19
ENDBRANCH  17  18
ENDBRANCH   8  17
BRANCH  16  25
HETATM   25  C21 UNL     1       6.590  49.087  61.836  1.00  0.00     0.056 C 
HETATM   26  C22 UNL     1       5.356  49.494  61.888  1.00  0.00    -0.058 C 
HETATM   27  C23 UNL     1       4.226  48.548  61.738  1.00  0.00     0.045 C 
HETATM   28  C24 UNL     1       5.098  50.957  62.104  1.00  0.00     0.045 C 
BRANCH  25  29
HETATM   29  O5  UNL     1       7.595  50.053  61.985  1.00  0.00    -0.364 OA
ATOM     30  H5  UNL     1       7.372  50.937  61.722  1.00  0.00     0.217 HD
ENDBRANCH  25  29
ENDBRANCH  16  25
BRANCH   1  31
HETATM   31  C2  UNL     1       8.534  46.467  63.284  1.00  0.00    -0.059 C 
HETATM   32  C1  UNL     1       8.497  46.884  64.522  1.00  0.00     0.019 C 
HETATM   33  C3  UNL     1       8.702  44.998  63.084  1.00  0.00     0.048 C 
ENDBRANCH   1  31
TORSDOF 6
ENDMDL
MODEL 5
REMARK VINA RESULT: -7.372700297      3.597      5.942
REMARK  6 active torsions:
REMARK  status: ('A' for Active; 'I' for Inactive)
REMARK    1  A    between atoms: C2_2  and  C4_4 
REMARK       I    between atoms: N2_10  and  C8_11 
REMARK    2  A    between atoms: C8_11  and  O3_13 
REMARK    3  A    between atoms: O3_13  and  C9_14 
REMARK    4  A    between atoms: C9_14  and  C10_15 
REMARK    5  A    between atoms: C20_27  and  C21_28 
REMARK    6  A    between atoms: C21_28  and  O5_29 
ROOT
HETATM    1  C4  UNL     1       7.760  47.319  61.690  1.00  0.00     0.036 C 
HETATM    2  C5  UNL     1       8.462  46.185  61.086  1.00  0.00     0.359 C 
HETATM    3  O1  UNL     1       8.002  45.089  61.523  1.00  0.00    -0.259 OA
HETATM    4  N1  UNL     1       9.492  45.929  60.173  1.00  0.00     0.079 N 
HETATM    5  C6  UNL     1       9.751  44.486  60.143  1.00  0.00     0.296 C 
HETATM    6  C7  UNL     1      10.685  46.601  60.729  1.00  0.00     0.387 C 
HETATM    7  N2  UNL     1      10.553  48.033  60.705  1.00  0.00    -0.293 N 
HETATM    8  C8  UNL     1      11.804  48.687  60.830  1.00  0.00     0.365 C 
HETATM    9  O2  UNL     1      11.820  49.941  60.822  1.00  0.00    -0.238 OA
HETATM   10  C16 UNL     1       9.417  48.895  60.575  1.00  0.00     0.130 C 
HETATM   11  C17 UNL     1       8.916  48.807  59.154  1.00  0.00     0.024 C 
HETATM   12  C18 UNL     1       8.877  47.705  58.425  1.00  0.00     0.085 C 
HETATM   13 BR1  UNL     1       8.194  47.927  56.675  1.00  0.00    -0.045 Br
HETATM   14  C19 UNL     1       9.299  46.385  58.848  1.00  0.00     0.368 C 
HETATM   15  O4  UNL     1       9.508  45.578  57.880  1.00  0.00    -0.258 OA
HETATM   16  C20 UNL     1       8.319  48.674  61.580  1.00  0.00     0.108 C 
ENDROOT
BRANCH   8  17
HETATM   17  O3  UNL     1      13.000  48.018  60.959  1.00  0.00    -0.299 OA
BRANCH  17  18
HETATM   18  C9  UNL     1      13.896  48.189  62.025  1.00  0.00     0.219 C 
BRANCH  18  19
HETATM   19  C10 UNL     1      15.098  48.975  61.640  1.00  0.00    -0.034 A 
HETATM   20  C11 UNL     1      15.919  49.515  62.613  1.00  0.00     0.009 A 
HETATM   21  C12 UNL     1      17.042  50.262  62.347  1.00  0.00     0.001 A 
HETATM   22  C13 UNL     1      17.376  50.489  61.031  1.00  0.00     0.000 A 
HETATM   23  C14 UNL     1      16.567  49.959  60.024  1.00  0.00     0.001 A 
HETATM   24  C15 UNL     1      15.448  49.214  60.327  1.00  0.00     0.009 A 
ENDBRANCH  18  19
ENDBRANCH  17  18
ENDBRANCH   8  17
BRANCH  16  25
HETATM   25  C21 UNL     1       8.926  49.139  62.883  1.00  0.00     0.056 C 
HETATM   26  C22 UNL     1       8.902  50.351  63.352  1.00  0.00    -0.058 C 
HETATM   27  C23 UNL     1       8.244  51.452  62.610  1.00  0.00     0.045 C 
HETATM   28  C24 UNL     1       9.562  50.615  64.674  1.00  0.00     0.045 C 
BRANCH  25  29
HETATM   29  O5  UNL     1       9.574  48.161  63.652  1.00  0.00    -0.364 OA
ATOM     30  H5  UNL     1      10.446  47.914  63.371  1.00  0.00     0.217 HD
ENDBRANCH  25  29
ENDBRANCH  16  25
BRANCH   1  31
HETATM   31  C2  UNL     1       6.308  47.157  61.485  1.00  0.00    -0.059 C 
HETATM   32  C1  UNL     1       5.744  47.667  60.422  1.00  0.00     0.019 C 
HETATM   33  C3  UNL     1       5.410  46.417  62.420  1.00  0.00     0.048 C 
ENDBRANCH   1  31
TORSDOF 6
ENDMDL
