MODEL 1
REMARK VINA RESULT: -6.545168666      0.000      0.000
REMARK  6 active torsions:
REMARK  status: ('A' for Active; 'I' for Inactive)
REMARK    1  A    between atoms: C2_2  and  N1_4 
REMARK       I    between atoms: N1_4  and  C4_5 
REMARK    2  A    between atoms: N1_4  and  C25_34 
REMARK    3  A    between atoms: C4_5  and  C5_7 
REMARK       I    between atoms: N2_9  and  C7_10 
REMARK    4  A    between atoms: C7_10  and  C8_12 
REMARK       I    between atoms: N3_16  and  C12_17 
REMARK    5  A    between atoms: C12_17  and  O4_19 
REMARK    6  A    between atoms: O4_19  and  C13_20 
ROOT
HETATM    1  C8  UNL     1       8.195  49.113  58.414  1.00  0.00     0.181 C 
HETATM    2  C9  UNL     1       7.487  50.268  57.689  1.00  0.00     0.037 C 
HETATM    3  C10 UNL     1       7.614  49.892  56.229  1.00  0.00     0.022 C 
HETATM    4  C11 UNL     1       8.273  48.531  56.219  1.00  0.00     0.129 C 
HETATM    5  N3  UNL     1       7.846  48.025  57.561  1.00  0.00    -0.314 N 
HETATM    6  C12 UNL     1       7.293  46.752  57.681  1.00  0.00     0.365 C 
HETATM    7  O3  UNL     1       7.113  46.048  56.631  1.00  0.00    -0.238 OA
ENDROOT
BRANCH   1   8
HETATM    8  C7  UNL     1       7.812  49.069  59.814  1.00  0.00     0.242 C 
HETATM    9  N2  UNL     1       8.850  48.658  60.741  1.00  0.00    -0.349 N 
HETATM   10  C6  UNL     1      10.212  48.265  60.489  1.00  0.00     0.140 C 
HETATM   11  C21 UNL     1       8.730  48.557  62.196  1.00  0.00     0.135 C 
HETATM   12  C5  UNL     1      11.006  49.027  61.578  1.00  0.00     0.105 C 
HETATM   13  C22 UNL     1       9.988  49.328  62.625  1.00  0.00    -0.018 C 
HETATM   14  C23 UNL     1      10.363  49.013  64.029  1.00  0.00     0.017 C 
HETATM   15  C24 UNL     1       9.544  50.801  62.571  1.00  0.00     0.017 C 
HETATM   16  O2  UNL     1       6.681  49.355  60.231  1.00  0.00    -0.271 OA
BRANCH  12  17
HETATM   17  C4  UNL     1      12.148  48.219  62.021  1.00  0.00     0.227 C 
HETATM   18  N1  UNL     1      13.392  48.699  62.477  1.00  0.00    -0.344 N 
HETATM   19  O1  UNL     1      11.965  46.947  61.976  1.00  0.00    -0.273 OA
BRANCH  18  20
HETATM   20  C2  UNL     1      14.373  47.677  62.890  1.00  0.00     0.079 C 
HETATM   21  C1  UNL     1      14.133  47.289  64.340  1.00  0.00     0.032 C 
HETATM   22  C3  UNL     1      15.773  48.180  62.770  1.00  0.00     0.032 C 
ENDBRANCH  18  20
BRANCH  18  23
HETATM   23  C25 UNL     1      13.803  50.072  62.564  1.00  0.00     0.079 C 
HETATM   24  C26 UNL     1      13.229  50.843  63.718  1.00  0.00     0.032 C 
HETATM   25  C27 UNL     1      13.580  50.843  61.300  1.00  0.00     0.032 C 
ENDBRANCH  18  23
ENDBRANCH  12  17
ENDBRANCH   1   8
BRANCH   6  26
HETATM   26  O4  UNL     1       6.877  46.061  58.774  1.00  0.00    -0.272 OA
BRANCH  26  27
HETATM   27  C13 UNL     1       7.626  45.496  59.783  1.00  0.00     0.278 C 
HETATM   28  O5  UNL     1       8.945  45.186  59.375  1.00  0.00    -0.355 OA
HETATM   29  C14 UNL     1       9.568  44.444  60.361  1.00  0.00     0.128 C 
HETATM   30  C15 UNL     1       9.172  42.993  60.145  1.00  0.00     0.033 C 
HETATM   31  C20 UNL     1       9.115  44.808  61.753  1.00  0.00     0.075 C 
HETATM   32  C16 UNL     1       7.659  42.991  59.932  1.00  0.00     0.015 C 
HETATM   33  C17 UNL     1       7.104  44.311  60.485  1.00  0.00     0.081 C 
HETATM   34  C18 UNL     1       7.680  44.338  61.916  1.00  0.00     0.110 C 
HETATM   35  C19 UNL     1       6.970  45.390  62.743  1.00  0.00     0.052 C 
HETATM   36  F1  UNL     1       7.606  43.095  62.493  1.00  0.00    -0.243 F 
ENDBRANCH  26  27
ENDBRANCH   6  26
TORSDOF 6
ENDMDL
MODEL 2
REMARK VINA RESULT: -6.466684607      0.884      1.455
REMARK  6 active torsions:
REMARK  status: ('A' for Active; 'I' for Inactive)
REMARK    1  A    between atoms: C2_2  and  N1_4 
REMARK       I    between atoms: N1_4  and  C4_5 
REMARK    2  A    between atoms: N1_4  and  C25_34 
REMARK    3  A    between atoms: C4_5  and  C5_7 
REMARK       I    between atoms: N2_9  and  C7_10 
REMARK    4  A    between atoms: C7_10  and  C8_12 
REMARK       I    between atoms: N3_16  and  C12_17 
REMARK    5  A    between atoms: C12_17  and  O4_19 
REMARK    6  A    between atoms: O4_19  and  C13_20 
ROOT
HETATM    1  C8  UNL     1       8.009  49.436  58.136  1.00  0.00     0.181 C 
HETATM    2  C9  UNL     1       7.322  50.586  57.382  1.00  0.00     0.037 C 
HETATM    3  C10 UNL     1       7.608  50.270  55.931  1.00  0.00     0.022 C 
HETATM    4  C11 UNL     1       8.327  48.939  55.941  1.00  0.00     0.129 C 
HETATM    5  N3  UNL     1       7.795  48.366  57.218  1.00  0.00    -0.314 N 
HETATM    6  C12 UNL     1       7.291  47.067  57.240  1.00  0.00     0.365 C 
HETATM    7  O3  UNL     1       7.247  46.396  56.155  1.00  0.00    -0.238 OA
ENDROOT
BRANCH   1   8
HETATM    8  C7  UNL     1       7.493  49.324  59.489  1.00  0.00     0.242 C 
HETATM    9  N2  UNL     1       8.443  48.882  60.493  1.00  0.00    -0.349 N 
HETATM   10  C6  UNL     1       9.828  48.515  60.357  1.00  0.00     0.140 C 
HETATM   11  C21 UNL     1       8.185  48.713  61.924  1.00  0.00     0.135 C 
HETATM   12  C5  UNL     1      10.502  49.235  61.551  1.00  0.00     0.105 C 
HETATM   13  C22 UNL     1       9.384  49.477  62.506  1.00  0.00    -0.018 C 
HETATM   14  C23 UNL     1       9.627  49.102  63.925  1.00  0.00     0.017 C 
HETATM   15  C24 UNL     1       8.926  50.946  62.475  1.00  0.00     0.017 C 
HETATM   16  O2  UNL     1       6.323  49.579  59.807  1.00  0.00    -0.271 OA
BRANCH  12  17
HETATM   17  C4  UNL     1      11.608  48.418  62.066  1.00  0.00     0.227 C 
HETATM   18  N1  UNL     1      12.838  48.889  62.569  1.00  0.00    -0.344 N 
HETATM   19  O1  UNL     1      11.405  47.149  62.042  1.00  0.00    -0.273 OA
BRANCH  18  20
HETATM   20  C2  UNL     1      13.780  47.862  63.052  1.00  0.00     0.079 C 
HETATM   21  C1  UNL     1      13.651  47.711  64.559  1.00  0.00     0.032 C 
HETATM   22  C3  UNL     1      15.194  48.225  62.741  1.00  0.00     0.032 C 
ENDBRANCH  18  20
BRANCH  18  23
HETATM   23  C25 UNL     1      13.268  50.257  62.643  1.00  0.00     0.079 C 
HETATM   24  C26 UNL     1      12.607  51.082  63.709  1.00  0.00     0.032 C 
HETATM   25  C27 UNL     1      13.179  50.982  61.336  1.00  0.00     0.032 C 
ENDBRANCH  18  23
ENDBRANCH  12  17
ENDBRANCH   1   8
BRANCH   6  26
HETATM   26  O4  UNL     1       6.802  46.320  58.264  1.00  0.00    -0.272 OA
BRANCH  26  27
HETATM   27  C13 UNL     1       7.367  45.233  58.894  1.00  0.00     0.278 C 
HETATM   28  O5  UNL     1       6.531  44.090  58.864  1.00  0.00    -0.355 OA
HETATM   29  C14 UNL     1       7.063  43.111  59.681  1.00  0.00     0.128 C 
HETATM   30  C15 UNL     1       6.592  43.405  61.095  1.00  0.00     0.033 C 
HETATM   31  C20 UNL     1       8.571  43.126  59.721  1.00  0.00     0.075 C 
HETATM   32  C16 UNL     1       6.828  44.897  61.322  1.00  0.00     0.015 C 
HETATM   33  C17 UNL     1       7.847  45.376  60.279  1.00  0.00     0.081 C 
HETATM   34  C18 UNL     1       9.006  44.375  60.466  1.00  0.00     0.110 C 
HETATM   35  C19 UNL     1      10.251  44.885  59.768  1.00  0.00     0.052 C 
HETATM   36  F1  UNL     1       9.228  44.132  61.798  1.00  0.00    -0.243 F 
ENDBRANCH  26  27
ENDBRANCH   6  26
TORSDOF 6
ENDMDL
MODEL 3
REMARK VINA RESULT: -6.420293892      1.118      1.764
REMARK  6 active torsions:
REMARK  status: ('A' for Active; 'I' for Inactive)
REMARK    1  A    between atoms: C2_2  and  N1_4 
REMARK       I    between atoms: N1_4  and  C4_5 
REMARK    2  A    between atoms: N1_4  and  C25_34 
REMARK    3  A    between atoms: C4_5  and  C5_7 
REMARK       I    between atoms: N2_9  and  C7_10 
REMARK    4  A    between atoms: C7_10  and  C8_12 
REMARK       I    between atoms: N3_16  and  C12_17 
REMARK    5  A    between atoms: C12_17  and  O4_19 
REMARK    6  A    between atoms: O4_19  and  C13_20 
ROOT
HETATM    1  C8  UNL     1       8.243  49.000  58.666  1.00  0.00     0.181 C 
HETATM    2  C9  UNL     1       7.517  50.092  57.865  1.00  0.00     0.037 C 
HETATM    3  C10 UNL     1       7.622  49.605  56.437  1.00  0.00     0.022 C 
HETATM    4  C11 UNL     1       8.288  48.249  56.521  1.00  0.00     0.129 C 
HETATM    5  N3  UNL     1       7.886  47.848  57.906  1.00  0.00    -0.314 N 
HETATM    6  C12 UNL     1       7.341  46.585  58.133  1.00  0.00     0.365 C 
HETATM    7  O3  UNL     1       7.148  45.802  57.144  1.00  0.00    -0.238 OA
ENDROOT
BRANCH   1   8
HETATM    8  C7  UNL     1       7.883  49.063  60.071  1.00  0.00     0.242 C 
HETATM    9  N2  UNL     1       8.912  48.648  61.007  1.00  0.00    -0.349 N 
HETATM   10  C6  UNL     1      10.243  48.160  60.760  1.00  0.00     0.140 C 
HETATM   11  C21 UNL     1       8.812  48.642  62.467  1.00  0.00     0.135 C 
HETATM   12  C5  UNL     1      11.099  48.937  61.789  1.00  0.00     0.105 C 
HETATM   13  C22 UNL     1      10.120  49.361  62.830  1.00  0.00    -0.018 C 
HETATM   14  C23 UNL     1      10.501  49.109  64.245  1.00  0.00     0.017 C 
HETATM   15  C24 UNL     1       9.763  50.851  62.693  1.00  0.00     0.017 C 
HETATM   16  O2  UNL     1       6.779  49.441  60.486  1.00  0.00    -0.271 OA
BRANCH  12  17
HETATM   17  C4  UNL     1      12.200  48.090  62.264  1.00  0.00     0.227 C 
HETATM   18  N1  UNL     1      13.474  48.523  62.686  1.00  0.00    -0.344 N 
HETATM   19  O1  UNL     1      11.947  46.830  62.287  1.00  0.00    -0.273 OA
BRANCH  18  20
HETATM   20  C2  UNL     1      14.400  47.471  63.144  1.00  0.00     0.079 C 
HETATM   21  C1  UNL     1      14.154  47.170  64.614  1.00  0.00     0.032 C 
HETATM   22  C3  UNL     1      15.825  47.888  62.988  1.00  0.00     0.032 C 
ENDBRANCH  18  20
BRANCH  18  23
HETATM   23  C25 UNL     1      13.960  49.874  62.699  1.00  0.00     0.079 C 
HETATM   24  C26 UNL     1      13.459  50.727  63.828  1.00  0.00     0.032 C 
HETATM   25  C27 UNL     1      13.748  50.596  61.405  1.00  0.00     0.032 C 
ENDBRANCH  18  23
ENDBRANCH  12  17
ENDBRANCH   1   8
BRANCH   6  26
HETATM   26  O4  UNL     1       6.947  45.981  59.284  1.00  0.00    -0.272 OA
BRANCH  26  27
HETATM   27  C13 UNL     1       6.877  44.637  59.581  1.00  0.00     0.278 C 
HETATM   28  O5  UNL     1       6.732  44.392  60.968  1.00  0.00    -0.355 OA
HETATM   29  C14 UNL     1       6.874  43.038  61.211  1.00  0.00     0.128 C 
HETATM   30  C15 UNL     1       8.362  42.760  61.328  1.00  0.00     0.033 C 
HETATM   31  C20 UNL     1       6.364  42.176  60.084  1.00  0.00     0.075 C 
HETATM   32  C16 UNL     1       9.024  43.466  60.146  1.00  0.00     0.015 C 
HETATM   33  C17 UNL     1       7.938  43.740  59.095  1.00  0.00     0.081 C 
HETATM   34  C18 UNL     1       7.306  42.345  58.904  1.00  0.00     0.110 C 
HETATM   35  C19 UNL     1       6.445  42.332  57.657  1.00  0.00     0.052 C 
HETATM   36  F1  UNL     1       8.273  41.373  58.871  1.00  0.00    -0.243 F 
ENDBRANCH  26  27
ENDBRANCH   6  26
TORSDOF 6
ENDMDL
MODEL 4
REMARK VINA RESULT: -6.370670194      3.728      6.977
REMARK  6 active torsions:
REMARK  status: ('A' for Active; 'I' for Inactive)
REMARK    1  A    between atoms: C2_2  and  N1_4 
REMARK       I    between atoms: N1_4  and  C4_5 
REMARK    2  A    between atoms: N1_4  and  C25_34 
REMARK    3  A    between atoms: C4_5  and  C5_7 
REMARK       I    between atoms: N2_9  and  C7_10 
REMARK    4  A    between atoms: C7_10  and  C8_12 
REMARK       I    between atoms: N3_16  and  C12_17 
REMARK    5  A    between atoms: C12_17  and  O4_19 
REMARK    6  A    between atoms: O4_19  and  C13_20 
ROOT
HETATM    1  C8  UNL     1       8.936  48.395  61.184  1.00  0.00     0.181 C 
HETATM    2  C9  UNL     1       7.687  47.532  60.945  1.00  0.00     0.037 C 
HETATM    3  C10 UNL     1       7.741  47.245  59.461  1.00  0.00     0.022 C 
HETATM    4  C11 UNL     1       9.039  47.854  58.979  1.00  0.00     0.129 C 
HETATM    5  N3  UNL     1       9.835  47.807  60.246  1.00  0.00    -0.314 N 
HETATM    6  C12 UNL     1      11.128  47.288  60.236  1.00  0.00     0.365 C 
HETATM    7  O3  UNL     1      11.602  46.814  59.149  1.00  0.00    -0.238 OA
ENDROOT
BRANCH   1   8
HETATM    8  C7  UNL     1       9.292  48.412  62.592  1.00  0.00     0.242 C 
HETATM    9  N2  UNL     1       9.196  49.702  63.252  1.00  0.00    -0.349 N 
HETATM   10  C6  UNL     1       8.818  50.985  62.722  1.00  0.00     0.140 C 
HETATM   11  C21 UNL     1       9.471  49.982  64.662  1.00  0.00     0.135 C 
HETATM   12  C5  UNL     1       7.857  51.542  63.801  1.00  0.00     0.105 C 
HETATM   13  C22 UNL     1       8.208  50.776  65.030  1.00  0.00    -0.018 C 
HETATM   14  C23 UNL     1       8.410  51.567  66.273  1.00  0.00     0.017 C 
HETATM   15  C24 UNL     1       7.168  49.682  65.327  1.00  0.00     0.017 C 
HETATM   16  O2  UNL     1       9.658  47.413  63.226  1.00  0.00    -0.271 OA
BRANCH  12  17
HETATM   17  C4  UNL     1       8.008  52.999  63.899  1.00  0.00     0.227 C 
HETATM   18  N1  UNL     1       6.987  53.934  64.169  1.00  0.00    -0.344 N 
HETATM   19  O1  UNL     1       9.202  53.437  63.716  1.00  0.00    -0.273 OA
BRANCH  18  20
HETATM   20  C2  UNL     1       7.403  55.348  64.241  1.00  0.00     0.079 C 
HETATM   21  C1  UNL     1       7.657  55.738  65.688  1.00  0.00     0.032 C 
HETATM   22  C3  UNL     1       6.352  56.256  63.693  1.00  0.00     0.032 C 
ENDBRANCH  18  20
BRANCH  18  23
HETATM   23  C25 UNL     1       5.594  53.651  64.364  1.00  0.00     0.079 C 
HETATM   24  C26 UNL     1       5.226  53.137  65.726  1.00  0.00     0.032 C 
HETATM   25  C27 UNL     1       5.019  52.741  63.324  1.00  0.00     0.032 C 
ENDBRANCH  18  23
ENDBRANCH  12  17
ENDBRANCH   1   8
BRANCH   6  26
HETATM   26  O4  UNL     1      12.051  47.179  61.227  1.00  0.00    -0.272 OA
BRANCH  26  27
HETATM   27  C13 UNL     1      12.951  48.116  61.684  1.00  0.00     0.278 C 
HETATM   28  O5  UNL     1      12.780  48.413  63.057  1.00  0.00    -0.355 OA
HETATM   29  C14 UNL     1      13.571  49.496  63.395  1.00  0.00     0.128 C 
HETATM   30  C15 UNL     1      12.788  50.748  63.037  1.00  0.00     0.033 C 
HETATM   31  C20 UNL     1      14.858  49.558  62.611  1.00  0.00     0.075 C 
HETATM   32  C16 UNL     1      12.242  50.523  61.628  1.00  0.00     0.015 C 
HETATM   33  C17 UNL     1      13.067  49.403  60.978  1.00  0.00     0.081 C 
HETATM   34  C18 UNL     1      14.513  49.903  61.173  1.00  0.00     0.110 C 
HETATM   35  C19 UNL     1      15.460  49.108  60.297  1.00  0.00     0.052 C 
HETATM   36  F1  UNL     1      14.598  51.251  60.930  1.00  0.00    -0.243 F 
ENDBRANCH  26  27
ENDBRANCH   6  26
TORSDOF 6
ENDMDL
MODEL 5
REMARK VINA RESULT: -6.238440232      2.958      7.895
REMARK  6 active torsions:
REMARK  status: ('A' for Active; 'I' for Inactive)
REMARK    1  A    between atoms: C2_2  and  N1_4 
REMARK       I    between atoms: N1_4  and  C4_5 
REMARK    2  A    between atoms: N1_4  and  C25_34 
REMARK    3  A    between atoms: C4_5  and  C5_7 
REMARK       I    between atoms: N2_9  and  C7_10 
REMARK    4  A    between atoms: C7_10  and  C8_12 
REMARK       I    between atoms: N3_16  and  C12_17 
REMARK    5  A    between atoms: C12_17  and  O4_19 
REMARK    6  A    between atoms: O4_19  and  C13_20 
ROOT
HETATM    1  C8  UNL     1      11.293  45.672  63.996  1.00  0.00     0.181 C 
HETATM    2  C9  UNL     1      10.832  44.791  65.169  1.00  0.00     0.037 C 
HETATM    3  C10 UNL     1      11.652  43.531  65.000  1.00  0.00     0.022 C 
HETATM    4  C11 UNL     1      12.581  43.806  63.839  1.00  0.00     0.129 C 
HETATM    5  N3  UNL     1      12.667  45.298  63.922  1.00  0.00    -0.314 N 
HETATM    6  C12 UNL     1      13.911  45.926  63.888  1.00  0.00     0.365 C 
HETATM    7  O3  UNL     1      14.968  45.213  63.834  1.00  0.00    -0.238 OA
ENDROOT
BRANCH   1   8
HETATM    8  C7  UNL     1      10.948  47.063  64.228  1.00  0.00     0.242 C 
HETATM    9  N2  UNL     1      10.500  47.805  63.063  1.00  0.00    -0.349 N 
HETATM   10  C6  UNL     1      10.359  47.381  61.695  1.00  0.00     0.140 C 
HETATM   11  C21 UNL     1      10.071  49.204  63.033  1.00  0.00     0.135 C 
HETATM   12  C5  UNL     1       8.982  47.960  61.287  1.00  0.00     0.105 C 
HETATM   13  C22 UNL     1       8.750  49.064  62.261  1.00  0.00    -0.018 C 
HETATM   14  C23 UNL     1       8.313  50.369  61.697  1.00  0.00     0.017 C 
HETATM   15  C24 UNL     1       7.739  48.655  63.347  1.00  0.00     0.017 C 
HETATM   16  O2  UNL     1      11.017  47.619  65.332  1.00  0.00    -0.271 OA
BRANCH  12  17
HETATM   17  C4  UNL     1       9.006  48.357  59.874  1.00  0.00     0.227 C 
HETATM   18  N1  UNL     1       7.954  48.227  58.946  1.00  0.00    -0.344 N 
HETATM   19  O1  UNL     1      10.113  48.872  59.472  1.00  0.00    -0.273 OA
BRANCH  18  20
HETATM   20  C2  UNL     1       8.222  48.728  57.584  1.00  0.00     0.079 C 
HETATM   21  C1  UNL     1       7.533  50.068  57.382  1.00  0.00     0.032 C 
HETATM   22  C3  UNL     1       7.716  47.784  56.544  1.00  0.00     0.032 C 
ENDBRANCH  18  20
BRANCH  18  23
HETATM   23  C25 UNL     1       6.663  47.647  59.187  1.00  0.00     0.079 C 
HETATM   24  C26 UNL     1       5.713  48.499  59.978  1.00  0.00     0.032 C 
HETATM   25  C27 UNL     1       6.727  46.283  59.800  1.00  0.00     0.032 C 
ENDBRANCH  18  23
ENDBRANCH  12  17
ENDBRANCH   1   8
BRANCH   6  26
HETATM   26  O4  UNL     1      14.243  47.243  63.903  1.00  0.00    -0.272 OA
BRANCH  26  27
HETATM   27  C13 UNL     1      14.665  48.045  62.866  1.00  0.00     0.278 C 
HETATM   28  O5  UNL     1      16.061  47.963  62.645  1.00  0.00    -0.355 OA
HETATM   29  C14 UNL     1      16.440  48.935  61.738  1.00  0.00     0.128 C 
HETATM   30  C15 UNL     1      16.651  50.219  62.523  1.00  0.00     0.033 C 
HETATM   31  C20 UNL     1      15.379  49.232  60.708  1.00  0.00     0.075 C 
HETATM   32  C16 UNL     1      15.437  50.364  63.439  1.00  0.00     0.015 C 
HETATM   33  C17 UNL     1      14.317  49.476  62.879  1.00  0.00     0.081 C 
HETATM   34  C18 UNL     1      14.232  49.939  61.409  1.00  0.00     0.110 C 
HETATM   35  C19 UNL     1      12.955  49.426  60.775  1.00  0.00     0.052 C 
HETATM   36  F1  UNL     1      14.337  51.304  61.323  1.00  0.00    -0.243 F 
ENDBRANCH  26  27
ENDBRANCH   6  26
TORSDOF 6
ENDMDL
