MODEL 1
REMARK VINA RESULT: -7.476001817      0.000      0.000
REMARK  17 active torsions:
REMARK  status: ('A' for Active; 'I' for Inactive)
REMARK    1  A    between atoms: C2_2  and  C3_3 
REMARK    2  A    between atoms: C3_3  and  C4_4 
REMARK    3  A    between atoms: C3_3  and  C6_11 
REMARK    4  A    between atoms: C3_3  and  N4_32 
REMARK    5  A    between atoms: N1_5  and  C5_7 
REMARK    6  A    between atoms: C6_11  and  S1_12 
REMARK    7  A    between atoms: S1_12  and  C7_13 
REMARK    8  A    between atoms: S1_12  and  C18_27 
REMARK    9  A    between atoms: C8_14  and  C9_15 
REMARK   10  A    between atoms: C9_15  and  C10_16 
REMARK   11  A    between atoms: C10_16  and  C11_17 
REMARK   12  A    between atoms: C11_17  and  C12_18 
REMARK       I    between atoms: C12_18  and  N3_20 
REMARK   13  A    between atoms: N3_20  and  C13_22 
REMARK   14  A    between atoms: C13_22  and  C14_23 
REMARK   15  A    between atoms: C15_24  and  C16_25 
REMARK   16  A    between atoms: C18_27  and  C19_28 
REMARK   17  A    between atoms: C20_29  and  O2_30 
ROOT
HETATM    1  S1  UNL     1      14.392  -6.029  18.088  1.00  0.00    -0.136 SA
ENDROOT
BRANCH   1   2
HETATM    2  C6  UNL     1      14.065  -6.900  19.556  1.00  0.00     0.119 C 
BRANCH   2   3
HETATM    3  C3  UNL     1      14.767  -6.392  20.764  1.00  0.00     0.102 C 
BRANCH   3   4
HETATM    4  C2  UNL     1      13.854  -5.581  21.645  1.00  0.00     0.001 C 
HETATM    5  C1  UNL     1      13.798  -4.274  21.639  1.00  0.00     0.010 C 
ENDBRANCH   3   4
BRANCH   3   6
HETATM    6  C4  UNL     1      15.137  -7.581  21.596  1.00  0.00     0.099 C 
HETATM    7  N1  UNL     1      14.293  -8.004  22.462  1.00  0.00    -0.363 N 
ATOM      8  H1  UNL     1      13.391  -7.542  22.582  1.00  0.00     0.165 HD
BRANCH   7   9
HETATM    9  C5  UNL     1      14.642  -9.129  23.249  1.00  0.00     0.172 C 
HETATM   10  N2  UNL     1      13.698  -9.882  23.700  1.00  0.00    -0.395 N 
ATOM     11  H22 UNL     1      12.726  -9.659  23.485  1.00  0.00     0.156 HD
ATOM     12  H21 UNL     1      13.950 -10.691  24.267  1.00  0.00     0.156 HD
ENDBRANCH   7   9
ENDBRANCH   3   6
BRANCH   3  13
HETATM   13  N4  UNL     1      15.920  -5.595  20.477  1.00  0.00    -0.323 N 
HETATM   14  N5  UNL     1      17.038  -6.014  20.819  1.00  0.00    -0.348 N 
ATOM     15  H52 UNL     1      17.116  -6.913  21.295  1.00  0.00     0.176 HD
ATOM     16  H51 UNL     1      17.860  -5.445  20.614  1.00  0.00     0.176 HD
ATOM     17  H4  UNL     1      15.825  -4.698  19.999  1.00  0.00     0.181 HD
ENDBRANCH   3  13
ENDBRANCH   2   3
ENDBRANCH   1   2
BRANCH   1  18
HETATM   18  C7  UNL     1      14.994  -7.099  16.887  1.00  0.00    -0.044 C 
HETATM   19  C8  UNL     1      15.447  -7.848  16.039  1.00  0.00    -0.095 C 
BRANCH  19  20
HETATM   20  C9  UNL     1      16.009  -8.742  14.989  1.00  0.00     0.095 C 
BRANCH  20  21
HETATM   21  C10 UNL     1      15.065  -8.802  13.820  1.00  0.00     0.021 C 
BRANCH  21  22
HETATM   22  C11 UNL     1      15.740  -8.597  12.521  1.00  0.00     0.103 C 
BRANCH  22  23
HETATM   23  C12 UNL     1      15.713  -7.185  12.112  1.00  0.00     0.218 C 
HETATM   24  O1  UNL     1      15.024  -6.310  12.680  1.00  0.00    -0.274 OA
HETATM   25  N3  UNL     1      16.501  -6.735  11.011  1.00  0.00    -0.351 N 
ATOM     26  H3  UNL     1      17.079  -7.416  10.519  1.00  0.00     0.163 HD
BRANCH  25  27
HETATM   27  C13 UNL     1      16.520  -5.361  10.558  1.00  0.00     0.217 C 
BRANCH  27  28
HETATM   28  C14 UNL     1      15.815  -5.198   9.275  1.00  0.00    -0.087 C 
HETATM   29  C15 UNL     1      15.247  -5.054   8.217  1.00  0.00    -0.105 C 
BRANCH  29  30
HETATM   30  C16 UNL     1      14.536  -4.876   6.948  1.00  0.00     0.089 C 
HETATM   31  C17 UNL     1      13.422  -3.869   7.102  1.00  0.00     0.018 C 
ENDBRANCH  29  30
ENDBRANCH  27  28
ENDBRANCH  25  27
ENDBRANCH  22  23
ENDBRANCH  21  22
ENDBRANCH  20  21
ENDBRANCH  19  20
ENDBRANCH   1  18
BRANCH   1  32
HETATM   32  C18 UNL     1      13.014  -5.080  17.514  1.00  0.00     0.105 C 
BRANCH  32  33
HETATM   33  C19 UNL     1      11.861  -5.133  18.438  1.00  0.00     0.007 C 
HETATM   34  C20 UNL     1      11.045  -4.115  18.508  1.00  0.00     0.128 C 
BRANCH  34  35
HETATM   35  O2  UNL     1      11.231  -2.983  17.738  1.00  0.00    -0.373 OA
ATOM     36  H2  UNL     1      12.099  -2.656  17.535  1.00  0.00     0.216 HD
ENDBRANCH  34  35
ENDBRANCH  32  33
ENDBRANCH   1  32
TORSDOF 17
ENDMDL
MODEL 2
REMARK VINA RESULT: -7.375519379      1.763      2.254
REMARK  17 active torsions:
REMARK  status: ('A' for Active; 'I' for Inactive)
REMARK    1  A    between atoms: C2_2  and  C3_3 
REMARK    2  A    between atoms: C3_3  and  C4_4 
REMARK    3  A    between atoms: C3_3  and  C6_11 
REMARK    4  A    between atoms: C3_3  and  N4_32 
REMARK    5  A    between atoms: N1_5  and  C5_7 
REMARK    6  A    between atoms: C6_11  and  S1_12 
REMARK    7  A    between atoms: S1_12  and  C7_13 
REMARK    8  A    between atoms: S1_12  and  C18_27 
REMARK    9  A    between atoms: C8_14  and  C9_15 
REMARK   10  A    between atoms: C9_15  and  C10_16 
REMARK   11  A    between atoms: C10_16  and  C11_17 
REMARK   12  A    between atoms: C11_17  and  C12_18 
REMARK       I    between atoms: C12_18  and  N3_20 
REMARK   13  A    between atoms: N3_20  and  C13_22 
REMARK   14  A    between atoms: C13_22  and  C14_23 
REMARK   15  A    between atoms: C15_24  and  C16_25 
REMARK   16  A    between atoms: C18_27  and  C19_28 
REMARK   17  A    between atoms: C20_29  and  O2_30 
ROOT
HETATM    1  S1  UNL     1      15.583  -6.197  17.465  1.00  0.00    -0.136 SA
ENDROOT
BRANCH   1   2
HETATM    2  C6  UNL     1      15.451  -6.915  19.041  1.00  0.00     0.119 C 
BRANCH   2   3
HETATM    3  C3  UNL     1      16.742  -7.279  19.683  1.00  0.00     0.102 C 
BRANCH   3   4
HETATM    4  C2  UNL     1      17.852  -6.345  19.279  1.00  0.00     0.001 C 
HETATM    5  C1  UNL     1      19.001  -6.737  18.790  1.00  0.00     0.010 C 
ENDBRANCH   3   4
BRANCH   3   6
HETATM    6  C4  UNL     1      16.583  -7.062  21.156  1.00  0.00     0.099 C 
HETATM    7  N1  UNL     1      15.475  -6.582  21.584  1.00  0.00    -0.363 N 
ATOM      8  H1  UNL     1      14.720  -6.352  20.937  1.00  0.00     0.165 HD
BRANCH   7   9
HETATM    9  C5  UNL     1      15.324  -6.377  22.977  1.00  0.00     0.172 C 
HETATM   10  N2  UNL     1      14.174  -6.003  23.423  1.00  0.00    -0.395 N 
ATOM     11  H22 UNL     1      13.400  -5.861  22.774  1.00  0.00     0.156 HD
ATOM     12  H21 UNL     1      14.065  -5.855  24.427  1.00  0.00     0.156 HD
ENDBRANCH   7   9
ENDBRANCH   3   6
BRANCH   3  13
HETATM   13  N4  UNL     1      17.174  -8.615  19.410  1.00  0.00    -0.323 N 
HETATM   14  N5  UNL     1      17.083  -9.469  20.308  1.00  0.00    -0.348 N 
ATOM     15  H52 UNL     1      16.707  -9.205  21.219  1.00  0.00     0.176 HD
ATOM     16  H51 UNL     1      17.391 -10.422  20.113  1.00  0.00     0.176 HD
ATOM     17  H4  UNL     1      17.548  -8.863  18.493  1.00  0.00     0.181 HD
ENDBRANCH   3  13
ENDBRANCH   2   3
ENDBRANCH   1   2
BRANCH   1  18
HETATM   18  C7  UNL     1      15.488  -7.411  16.252  1.00  0.00    -0.044 C 
HETATM   19  C8  UNL     1      15.393  -8.268  15.391  1.00  0.00    -0.095 C 
BRANCH  19  20
HETATM   20  C9  UNL     1      15.260  -9.329  14.355  1.00  0.00     0.095 C 
BRANCH  20  21
HETATM   21  C10 UNL     1      14.855  -8.708  13.047  1.00  0.00     0.021 C 
BRANCH  21  22
HETATM   22  C11 UNL     1      16.010  -8.295  12.221  1.00  0.00     0.103 C 
BRANCH  22  23
HETATM   23  C12 UNL     1      15.938  -6.872  11.861  1.00  0.00     0.218 C 
HETATM   24  O1  UNL     1      15.396  -6.001  12.575  1.00  0.00    -0.274 OA
HETATM   25  N3  UNL     1      16.504  -6.405  10.637  1.00  0.00    -0.351 N 
ATOM     26  H3  UNL     1      16.956  -7.083  10.024  1.00  0.00     0.163 HD
BRANCH  25  27
HETATM   27  C13 UNL     1      16.468  -5.020  10.223  1.00  0.00     0.217 C 
BRANCH  27  28
HETATM   28  C14 UNL     1      15.659  -4.833   9.006  1.00  0.00    -0.087 C 
HETATM   29  C15 UNL     1      15.007  -4.685   7.998  1.00  0.00    -0.105 C 
BRANCH  29  30
HETATM   30  C16 UNL     1      14.210  -4.481   6.786  1.00  0.00     0.089 C 
HETATM   31  C17 UNL     1      13.016  -3.604   7.078  1.00  0.00     0.018 C 
ENDBRANCH  29  30
ENDBRANCH  27  28
ENDBRANCH  25  27
ENDBRANCH  22  23
ENDBRANCH  21  22
ENDBRANCH  20  21
ENDBRANCH  19  20
ENDBRANCH   1  18
BRANCH   1  32
HETATM   32  C18 UNL     1      14.430  -4.883  17.194  1.00  0.00     0.105 C 
BRANCH  32  33
HETATM   33  C19 UNL     1      13.593  -4.606  18.381  1.00  0.00     0.007 C 
HETATM   34  C20 UNL     1      12.535  -3.848  18.259  1.00  0.00     0.128 C 
BRANCH  34  35
HETATM   35  O2  UNL     1      12.175  -3.296  17.044  1.00  0.00    -0.373 OA
ATOM     36  H2  UNL     1      11.622  -2.527  16.991  1.00  0.00     0.216 HD
ENDBRANCH  34  35
ENDBRANCH  32  33
ENDBRANCH   1  32
TORSDOF 17
ENDMDL
MODEL 3
REMARK VINA RESULT: -7.351452381      3.564      5.773
REMARK  17 active torsions:
REMARK  status: ('A' for Active; 'I' for Inactive)
REMARK    1  A    between atoms: C2_2  and  C3_3 
REMARK    2  A    between atoms: C3_3  and  C4_4 
REMARK    3  A    between atoms: C3_3  and  C6_11 
REMARK    4  A    between atoms: C3_3  and  N4_32 
REMARK    5  A    between atoms: N1_5  and  C5_7 
REMARK    6  A    between atoms: C6_11  and  S1_12 
REMARK    7  A    between atoms: S1_12  and  C7_13 
REMARK    8  A    between atoms: S1_12  and  C18_27 
REMARK    9  A    between atoms: C8_14  and  C9_15 
REMARK   10  A    between atoms: C9_15  and  C10_16 
REMARK   11  A    between atoms: C10_16  and  C11_17 
REMARK   12  A    between atoms: C11_17  and  C12_18 
REMARK       I    between atoms: C12_18  and  N3_20 
REMARK   13  A    between atoms: N3_20  and  C13_22 
REMARK   14  A    between atoms: C13_22  and  C14_23 
REMARK   15  A    between atoms: C15_24  and  C16_25 
REMARK   16  A    between atoms: C18_27  and  C19_28 
REMARK   17  A    between atoms: C20_29  and  O2_30 
ROOT
HETATM    1  S1  UNL     1      14.048  -6.734  18.978  1.00  0.00    -0.136 SA
ENDROOT
BRANCH   1   2
HETATM    2  C6  UNL     1      14.478  -8.041  20.039  1.00  0.00     0.119 C 
BRANCH   2   3
HETATM    3  C3  UNL     1      15.809  -7.917  20.690  1.00  0.00     0.102 C 
BRANCH   3   4
HETATM    4  C2  UNL     1      16.209  -6.478  20.881  1.00  0.00     0.001 C 
HETATM    5  C1  UNL     1      17.182  -5.893  20.229  1.00  0.00     0.010 C 
ENDBRANCH   3   4
BRANCH   3   6
HETATM    6  C4  UNL     1      15.677  -8.461  22.079  1.00  0.00     0.099 C 
HETATM    7  N1  UNL     1      14.564  -8.998  22.419  1.00  0.00    -0.363 N 
ATOM      8  H1  UNL     1      13.788  -9.053  21.759  1.00  0.00     0.165 HD
BRANCH   7   9
HETATM    9  C5  UNL     1      14.438  -9.513  23.732  1.00  0.00     0.172 C 
HETATM   10  N2  UNL     1      13.346 -10.115  24.055  1.00  0.00    -0.395 N 
ATOM     11  H22 UNL     1      12.598 -10.210  23.369  1.00  0.00     0.156 HD
ATOM     12  H21 UNL     1      13.256 -10.486  25.001  1.00  0.00     0.156 HD
ENDBRANCH   7   9
ENDBRANCH   3   6
BRANCH   3  13
HETATM   13  N4  UNL     1      16.866  -8.575  19.985  1.00  0.00    -0.323 N 
HETATM   14  N5  UNL     1      17.174  -9.734  20.313  1.00  0.00    -0.348 N 
ATOM     15  H52 UNL     1      16.672 -10.192  21.074  1.00  0.00     0.176 HD
ATOM     16  H51 UNL     1      17.927 -10.203  19.810  1.00  0.00     0.176 HD
ATOM     17  H4  UNL     1      17.358  -8.103  19.226  1.00  0.00     0.181 HD
ENDBRANCH   3  13
ENDBRANCH   2   3
ENDBRANCH   1   2
BRANCH   1  18
HETATM   18  C7  UNL     1      14.825  -6.926  17.458  1.00  0.00    -0.044 C 
HETATM   19  C8  UNL     1      15.394  -7.041  16.386  1.00  0.00    -0.095 C 
BRANCH  19  20
HETATM   20  C9  UNL     1      16.082  -7.156  15.071  1.00  0.00     0.095 C 
BRANCH  20  21
HETATM   21  C10 UNL     1      16.443  -5.786  14.569  1.00  0.00     0.021 C 
BRANCH  21  22
HETATM   22  C11 UNL     1      17.409  -5.086  15.443  1.00  0.00     0.103 C 
BRANCH  22  23
HETATM   23  C12 UNL     1      16.846  -3.841  15.986  1.00  0.00     0.218 C 
HETATM   24  O1  UNL     1      17.368  -2.716  15.829  1.00  0.00    -0.274 OA
HETATM   25  N3  UNL     1      15.637  -3.862  16.742  1.00  0.00    -0.351 N 
ATOM     26  H3  UNL     1      15.177  -4.760  16.895  1.00  0.00     0.163 HD
BRANCH  25  27
HETATM   27  C13 UNL     1      15.031  -2.676  17.304  1.00  0.00     0.217 C 
BRANCH  27  28
HETATM   28  C14 UNL     1      14.842  -2.794  18.760  1.00  0.00    -0.087 C 
HETATM   29  C15 UNL     1      14.694  -2.905  19.955  1.00  0.00    -0.105 C 
BRANCH  29  30
HETATM   30  C16 UNL     1      14.490  -3.034  21.400  1.00  0.00     0.089 C 
HETATM   31  C17 UNL     1      13.457  -4.094  21.697  1.00  0.00     0.018 C 
ENDBRANCH  29  30
ENDBRANCH  27  28
ENDBRANCH  25  27
ENDBRANCH  22  23
ENDBRANCH  21  22
ENDBRANCH  20  21
ENDBRANCH  19  20
ENDBRANCH   1  18
BRANCH   1  32
HETATM   32  C18 UNL     1      12.301  -6.507  18.816  1.00  0.00     0.105 C 
BRANCH  32  33
HETATM   33  C19 UNL     1      11.947  -5.177  18.274  1.00  0.00     0.007 C 
HETATM   34  C20 UNL     1      11.581  -5.069  17.024  1.00  0.00     0.128 C 
BRANCH  34  35
HETATM   35  O2  UNL     1      11.514  -6.169  16.191  1.00  0.00    -0.373 OA
ATOM     36  H2  UNL     1      12.289  -6.667  15.960  1.00  0.00     0.216 HD
ENDBRANCH  34  35
ENDBRANCH  32  33
ENDBRANCH   1  32
TORSDOF 17
ENDMDL
MODEL 4
REMARK VINA RESULT: -7.304081743      4.013      9.167
REMARK  17 active torsions:
REMARK  status: ('A' for Active; 'I' for Inactive)
REMARK    1  A    between atoms: C2_2  and  C3_3 
REMARK    2  A    between atoms: C3_3  and  C4_4 
REMARK    3  A    between atoms: C3_3  and  C6_11 
REMARK    4  A    between atoms: C3_3  and  N4_32 
REMARK    5  A    between atoms: N1_5  and  C5_7 
REMARK    6  A    between atoms: C6_11  and  S1_12 
REMARK    7  A    between atoms: S1_12  and  C7_13 
REMARK    8  A    between atoms: S1_12  and  C18_27 
REMARK    9  A    between atoms: C8_14  and  C9_15 
REMARK   10  A    between atoms: C9_15  and  C10_16 
REMARK   11  A    between atoms: C10_16  and  C11_17 
REMARK   12  A    between atoms: C11_17  and  C12_18 
REMARK       I    between atoms: C12_18  and  N3_20 
REMARK   13  A    between atoms: N3_20  and  C13_22 
REMARK   14  A    between atoms: C13_22  and  C14_23 
REMARK   15  A    between atoms: C15_24  and  C16_25 
REMARK   16  A    between atoms: C18_27  and  C19_28 
REMARK   17  A    between atoms: C20_29  and  O2_30 
ROOT
HETATM    1  S1  UNL     1      11.842  -4.880  18.600  1.00  0.00    -0.136 SA
ENDROOT
BRANCH   1   2
HETATM    2  C6  UNL     1      12.625  -4.880  17.049  1.00  0.00     0.119 C 
BRANCH   2   3
HETATM    3  C3  UNL     1      13.555  -6.015  16.809  1.00  0.00     0.102 C 
BRANCH   3   4
HETATM    4  C2  UNL     1      13.303  -6.678  15.481  1.00  0.00     0.001 C 
HETATM    5  C1  UNL     1      14.145  -6.662  14.480  1.00  0.00     0.010 C 
ENDBRANCH   3   4
BRANCH   3   6
HETATM    6  C4  UNL     1      14.933  -5.442  16.690  1.00  0.00     0.099 C 
HETATM    7  N1  UNL     1      15.078  -4.175  16.811  1.00  0.00    -0.363 N 
ATOM      8  H1  UNL     1      14.274  -3.571  16.984  1.00  0.00     0.165 HD
BRANCH   7   9
HETATM    9  C5  UNL     1      16.382  -3.632  16.698  1.00  0.00     0.172 C 
HETATM   10  N2  UNL     1      17.384  -4.441  16.661  1.00  0.00    -0.395 N 
ATOM     11  H22 UNL     1      17.225  -5.448  16.713  1.00  0.00     0.156 HD
ATOM     12  H21 UNL     1      18.323  -4.050  16.580  1.00  0.00     0.156 HD
ENDBRANCH   7   9
ENDBRANCH   3   6
BRANCH   3  13
HETATM   13  N4  UNL     1      13.512  -7.028  17.819  1.00  0.00    -0.323 N 
HETATM   14  N5  UNL     1      14.582  -7.462  18.278  1.00  0.00    -0.348 N 
ATOM     15  H52 UNL     1      15.467  -7.092  17.929  1.00  0.00     0.176 HD
ATOM     16  H51 UNL     1      14.551  -8.185  18.997  1.00  0.00     0.176 HD
ATOM     17  H4  UNL     1      12.618  -7.388  18.156  1.00  0.00     0.181 HD
ENDBRANCH   3  13
ENDBRANCH   2   3
ENDBRANCH   1   2
BRANCH   1  18
HETATM   18  C7  UNL     1      12.874  -4.182  19.783  1.00  0.00    -0.044 C 
HETATM   19  C8  UNL     1      13.615  -3.669  20.603  1.00  0.00    -0.095 C 
BRANCH  19  20
HETATM   20  C9  UNL     1      14.542  -3.048  21.589  1.00  0.00     0.095 C 
BRANCH  20  21
HETATM   21  C10 UNL     1      15.729  -3.947  21.798  1.00  0.00     0.021 C 
BRANCH  21  22
HETATM   22  C11 UNL     1      16.500  -4.184  20.559  1.00  0.00     0.103 C 
BRANCH  22  23
HETATM   23  C12 UNL     1      16.854  -5.603  20.403  1.00  0.00     0.218 C 
HETATM   24  O1  UNL     1      17.140  -6.132  19.307  1.00  0.00    -0.274 OA
HETATM   25  N3  UNL     1      16.889  -6.469  21.536  1.00  0.00    -0.351 N 
ATOM     26  H3  UNL     1      16.662  -6.079  22.451  1.00  0.00     0.163 HD
BRANCH  25  27
HETATM   27  C13 UNL     1      17.228  -7.872  21.453  1.00  0.00     0.217 C 
BRANCH  27  28
HETATM   28  C14 UNL     1      17.677  -8.405  22.751  1.00  0.00    -0.087 C 
HETATM   29  C15 UNL     1      18.058  -8.832  23.816  1.00  0.00    -0.105 C 
BRANCH  29  30
HETATM   30  C16 UNL     1      18.516  -9.374  25.098  1.00  0.00     0.089 C 
HETATM   31  C17 UNL     1      17.405 -10.138  25.778  1.00  0.00     0.018 C 
ENDBRANCH  29  30
ENDBRANCH  27  28
ENDBRANCH  25  27
ENDBRANCH  22  23
ENDBRANCH  21  22
ENDBRANCH  20  21
ENDBRANCH  19  20
ENDBRANCH   1  18
BRANCH   1  32
HETATM   32  C18 UNL     1      10.240  -4.129  18.576  1.00  0.00     0.105 C 
BRANCH  32  33
HETATM   33  C19 UNL     1       9.677  -4.031  17.212  1.00  0.00     0.007 C 
HETATM   34  C20 UNL     1       8.595  -4.702  16.913  1.00  0.00     0.128 C 
BRANCH  34  35
HETATM   35  O2  UNL     1       7.960  -5.503  17.842  1.00  0.00    -0.373 OA
ATOM     36  H2  UNL     1       8.315  -6.346  18.098  1.00  0.00     0.216 HD
ENDBRANCH  34  35
ENDBRANCH  32  33
ENDBRANCH   1  32
TORSDOF 17
ENDMDL
MODEL 5
REMARK VINA RESULT: -7.254748791      3.523     10.293
REMARK  17 active torsions:
REMARK  status: ('A' for Active; 'I' for Inactive)
REMARK    1  A    between atoms: C2_2  and  C3_3 
REMARK    2  A    between atoms: C3_3  and  C4_4 
REMARK    3  A    between atoms: C3_3  and  C6_11 
REMARK    4  A    between atoms: C3_3  and  N4_32 
REMARK    5  A    between atoms: N1_5  and  C5_7 
REMARK    6  A    between atoms: C6_11  and  S1_12 
REMARK    7  A    between atoms: S1_12  and  C7_13 
REMARK    8  A    between atoms: S1_12  and  C18_27 
REMARK    9  A    between atoms: C8_14  and  C9_15 
REMARK   10  A    between atoms: C9_15  and  C10_16 
REMARK   11  A    between atoms: C10_16  and  C11_17 
REMARK   12  A    between atoms: C11_17  and  C12_18 
REMARK       I    between atoms: C12_18  and  N3_20 
REMARK   13  A    between atoms: N3_20  and  C13_22 
REMARK   14  A    between atoms: C13_22  and  C14_23 
REMARK   15  A    between atoms: C15_24  and  C16_25 
REMARK   16  A    between atoms: C18_27  and  C19_28 
REMARK   17  A    between atoms: C20_29  and  O2_30 
ROOT
HETATM    1  S1  UNL     1      16.029  -7.298  15.313  1.00  0.00    -0.136 SA
ENDROOT
BRANCH   1   2
HETATM    2  C6  UNL     1      15.945  -6.085  14.072  1.00  0.00     0.119 C 
BRANCH   2   3
HETATM    3  C3  UNL     1      17.240  -5.439  13.728  1.00  0.00     0.102 C 
BRANCH   3   4
HETATM    4  C2  UNL     1      17.264  -3.985  14.121  1.00  0.00     0.001 C 
HETATM    5  C1  UNL     1      17.240  -3.557  15.357  1.00  0.00     0.010 C 
ENDBRANCH   3   4
BRANCH   3   6
HETATM    6  C4  UNL     1      18.294  -6.077  14.578  1.00  0.00     0.099 C 
HETATM    7  N1  UNL     1      19.503  -6.074  14.152  1.00  0.00    -0.363 N 
ATOM      8  H1  UNL     1      19.740  -5.648  13.256  1.00  0.00     0.165 HD
BRANCH   7   9
HETATM    9  C5  UNL     1      20.501  -6.678  14.956  1.00  0.00     0.172 C 
HETATM   10  N2  UNL     1      20.262  -7.835  15.470  1.00  0.00    -0.395 N 
ATOM     11  H22 UNL     1      19.367  -8.292  15.292  1.00  0.00     0.156 HD
ATOM     12  H21 UNL     1      20.981  -8.269  16.048  1.00  0.00     0.156 HD
ENDBRANCH   7   9
ENDBRANCH   3   6
BRANCH   3  13
HETATM   13  N4  UNL     1      17.585  -5.523  12.342  1.00  0.00    -0.323 N 
HETATM   14  N5  UNL     1      16.933  -6.287  11.609  1.00  0.00    -0.348 N 
ATOM     15  H52 UNL     1      16.170  -6.836  12.004  1.00  0.00     0.176 HD
ATOM     16  H51 UNL     1      17.179  -6.347  10.621  1.00  0.00     0.176 HD
ATOM     17  H4  UNL     1      18.351  -4.967  11.962  1.00  0.00     0.181 HD
ENDBRANCH   3  13
ENDBRANCH   2   3
ENDBRANCH   1   2
BRANCH   1  18
HETATM   18  C7  UNL     1      14.819  -7.014  16.499  1.00  0.00    -0.044 C 
HETATM   19  C8  UNL     1      13.981  -6.813  17.360  1.00  0.00    -0.095 C 
BRANCH  19  20
HETATM   20  C9  UNL     1      12.964  -6.590  18.425  1.00  0.00     0.095 C 
BRANCH  20  21
HETATM   21  C10 UNL     1      13.191  -7.562  19.550  1.00  0.00     0.021 C 
BRANCH  21  22
HETATM   22  C11 UNL     1      14.405  -7.261  20.338  1.00  0.00     0.103 C 
BRANCH  22  23
HETATM   23  C12 UNL     1      14.749  -8.364  21.247  1.00  0.00     0.218 C 
HETATM   24  O1  UNL     1      15.456  -9.341  20.917  1.00  0.00    -0.274 OA
HETATM   25  N3  UNL     1      14.276  -8.368  22.592  1.00  0.00    -0.351 N 
ATOM     26  H3  UNL     1      13.695  -7.590  22.903  1.00  0.00     0.163 HD
BRANCH  25  27
HETATM   27  C13 UNL     1      14.577  -9.421  23.537  1.00  0.00     0.217 C 
BRANCH  27  28
HETATM   28  C14 UNL     1      15.945  -9.303  24.070  1.00  0.00    -0.087 C 
HETATM   29  C15 UNL     1      17.066  -9.191  24.510  1.00  0.00    -0.105 C 
BRANCH  29  30
HETATM   30  C16 UNL     1      18.433  -9.067  25.023  1.00  0.00     0.089 C 
HETATM   31  C17 UNL     1      18.674 -10.063  26.132  1.00  0.00     0.018 C 
ENDBRANCH  29  30
ENDBRANCH  27  28
ENDBRANCH  25  27
ENDBRANCH  22  23
ENDBRANCH  21  22
ENDBRANCH  20  21
ENDBRANCH  19  20
ENDBRANCH   1  18
BRANCH   1  32
HETATM   32  C18 UNL     1      15.980  -8.950  14.683  1.00  0.00     0.105 C 
BRANCH  32  33
HETATM   33  C19 UNL     1      14.962  -9.126  13.624  1.00  0.00     0.007 C 
HETATM   34  C20 UNL     1      15.346  -9.306  12.388  1.00  0.00     0.128 C 
BRANCH  34  35
HETATM   35  O2  UNL     1      16.683  -9.338  12.041  1.00  0.00    -0.373 OA
ATOM     36  H2  UNL     1      17.115 -10.147  11.795  1.00  0.00     0.216 HD
ENDBRANCH  34  35
ENDBRANCH  32  33
ENDBRANCH   1  32
TORSDOF 17
ENDMDL
