MODEL 1
REMARK VINA RESULT: -6.856561933      0.000      0.000
REMARK  13 active torsions:
REMARK  status: ('A' for Active; 'I' for Inactive)
REMARK    1  A    between atoms: C2_2  and  C3_3 
REMARK    2  A    between atoms: C3_3  and  C4_4 
REMARK    3  A    between atoms: C4_4  and  C5_5 
REMARK    4  A    between atoms: C5_5  and  C6_6 
REMARK    5  A    between atoms: C6_6  and  C7_7 
REMARK    6  A    between atoms: C7_7  and  C8_8 
REMARK    7  A    between atoms: C8_8  and  C9_9 
REMARK    8  A    between atoms: C9_9  and  C10_10 
REMARK    9  A    between atoms: C10_10  and  C11_11 
REMARK   10  A    between atoms: C12_14  and  O1_15 
REMARK   11  A    between atoms: N2_18  and  N3_20 
REMARK   12  A    between atoms: C16_23  and  C17_24 
REMARK   13  A    between atoms: C17_24  and  N4_25 
ROOT
HETATM    1  C11 UNL     1      15.791  -7.098  21.360  1.00  0.00     0.171 C 
HETATM    2  N1  UNL     1      16.822  -6.057  21.259  1.00  0.00    -0.379 N 
ATOM      3  H1  UNL     1      17.503  -5.889  21.999  1.00  0.00     0.157 HD
HETATM    4  C12 UNL     1      16.805  -5.302  20.060  1.00  0.00     0.264 C 
HETATM    5  C13 UNL     1      17.475  -6.126  19.003  1.00  0.00     0.070 C 
HETATM    6  N2  UNL     1      18.717  -5.973  18.918  1.00  0.00    -0.322 N 
ATOM      7  H2  UNL     1      19.110  -5.305  19.581  1.00  0.00     0.180 HD
HETATM    8  C16 UNL     1      16.703  -7.052  18.121  1.00  0.00     0.162 C 
HETATM    9  N5  UNL     1      15.893  -7.964  18.900  1.00  0.00    -0.348 N 
ATOM     10  H5  UNL     1      15.282  -8.596  18.381  1.00  0.00     0.163 HD
HETATM   11  C21 UNL     1      15.864  -8.063  20.324  1.00  0.00     0.240 C 
HETATM   12  O2  UNL     1      15.925  -9.293  20.721  1.00  0.00    -0.271 OA
ENDROOT
BRANCH   1  13
HETATM   13  C10 UNL     1      14.532  -6.410  21.666  1.00  0.00     0.034 C 
BRANCH  13  14
HETATM   14  C9  UNL     1      14.467  -5.260  22.584  1.00  0.00     0.002 C 
BRANCH  14  15
HETATM   15  C8  UNL     1      13.626  -4.130  22.176  1.00  0.00     0.000 C 
BRANCH  15  16
HETATM   16  C7  UNL     1      14.550  -2.959  21.780  1.00  0.00     0.000 C 
BRANCH  16  17
HETATM   17  C6  UNL     1      14.354  -2.500  20.380  1.00  0.00     0.000 C 
BRANCH  17  18
HETATM   18  C5  UNL     1      13.216  -3.354  19.795  1.00  0.00     0.000 C 
BRANCH  18  19
HETATM   19  C4  UNL     1      13.282  -3.315  18.296  1.00  0.00     0.000 C 
BRANCH  19  20
HETATM   20  C3  UNL     1      12.585  -4.526  17.731  1.00  0.00    -0.000 C 
BRANCH  20  21
HETATM   21  C2  UNL     1      12.200  -5.458  18.850  1.00  0.00    -0.005 C 
HETATM   22  C1  UNL     1      12.426  -6.911  18.460  1.00  0.00     0.005 C 
ENDBRANCH  20  21
ENDBRANCH  19  20
ENDBRANCH  18  19
ENDBRANCH  17  18
ENDBRANCH  16  17
ENDBRANCH  15  16
ENDBRANCH  14  15
ENDBRANCH  13  14
ENDBRANCH   1  13
BRANCH   4  23
HETATM   23  O1  UNL     1      17.588  -4.134  20.262  1.00  0.00    -0.372 OA
ATOM     24  H1  UNL     1      17.063  -3.381  20.017  1.00  0.00     0.212 HD
ENDBRANCH   4  23
BRANCH   8  25
HETATM   25  C17 UNL     1      15.826  -6.273  17.192  1.00  0.00     0.267 C 
BRANCH  25  26
HETATM   26  N4  UNL     1      15.917  -6.509  15.797  1.00  0.00    -0.076 N 
HETATM   27  C18 UNL     1      16.719  -7.612  15.365  1.00  0.00     0.271 C 
HETATM   28  C19 UNL     1      16.388  -5.263  15.115  1.00  0.00     0.271 C 
HETATM   29  C20 UNL     1      14.569  -6.726  15.293  1.00  0.00     0.271 C 
ENDBRANCH  25  26
ENDBRANCH   8  25
BRANCH   6  30
HETATM   30  N3  UNL     1      19.625  -6.550  18.088  1.00  0.00    -0.240 NA
HETATM   31  C14 UNL     1      20.963  -6.390  18.689  1.00  0.00     0.135 C 
HETATM   32  C15 UNL     1      19.728  -5.830  16.806  1.00  0.00     0.135 C 
ENDBRANCH   6  30
TORSDOF 13
ENDMDL
MODEL 2
REMARK VINA RESULT: -6.803585377      0.711      1.150
REMARK  13 active torsions:
REMARK  status: ('A' for Active; 'I' for Inactive)
REMARK    1  A    between atoms: C2_2  and  C3_3 
REMARK    2  A    between atoms: C3_3  and  C4_4 
REMARK    3  A    between atoms: C4_4  and  C5_5 
REMARK    4  A    between atoms: C5_5  and  C6_6 
REMARK    5  A    between atoms: C6_6  and  C7_7 
REMARK    6  A    between atoms: C7_7  and  C8_8 
REMARK    7  A    between atoms: C8_8  and  C9_9 
REMARK    8  A    between atoms: C9_9  and  C10_10 
REMARK    9  A    between atoms: C10_10  and  C11_11 
REMARK   10  A    between atoms: C12_14  and  O1_15 
REMARK   11  A    between atoms: N2_18  and  N3_20 
REMARK   12  A    between atoms: C16_23  and  C17_24 
REMARK   13  A    between atoms: C17_24  and  N4_25 
ROOT
HETATM    1  C11 UNL     1      15.775  -7.189  21.532  1.00  0.00     0.171 C 
HETATM    2  N1  UNL     1      16.783  -6.132  21.384  1.00  0.00    -0.379 N 
ATOM      3  H1  UNL     1      17.534  -5.995  22.060  1.00  0.00     0.157 HD
HETATM    4  C12 UNL     1      16.640  -5.315  20.235  1.00  0.00     0.264 C 
HETATM    5  C13 UNL     1      17.207  -6.074  19.074  1.00  0.00     0.070 C 
HETATM    6  N2  UNL     1      18.433  -5.901  18.873  1.00  0.00    -0.322 N 
ATOM      7  H2  UNL     1      18.886  -5.264  19.529  1.00  0.00     0.180 HD
HETATM    8  C16 UNL     1      16.357  -6.963  18.225  1.00  0.00     0.162 C 
HETATM    9  N5  UNL     1      15.636  -7.924  19.031  1.00  0.00    -0.348 N 
ATOM     10  H5  UNL     1      14.981  -8.536  18.543  1.00  0.00     0.163 HD
HETATM   11  C21 UNL     1      15.751  -8.098  20.443  1.00  0.00     0.240 C 
HETATM   12  O2  UNL     1      15.860  -9.346  20.766  1.00  0.00    -0.271 OA
ENDROOT
BRANCH   1  13
HETATM   13  C10 UNL     1      14.548  -6.535  21.998  1.00  0.00     0.034 C 
BRANCH  13  14
HETATM   14  C9  UNL     1      14.563  -5.225  22.671  1.00  0.00     0.002 C 
BRANCH  14  15
HETATM   15  C8  UNL     1      13.640  -4.205  22.162  1.00  0.00     0.000 C 
BRANCH  15  16
HETATM   16  C7  UNL     1      14.445  -2.915  21.897  1.00  0.00     0.000 C 
BRANCH  16  17
HETATM   17  C6  UNL     1      14.345  -2.436  20.493  1.00  0.00     0.000 C 
BRANCH  17  18
HETATM   18  C5  UNL     1      13.419  -3.421  19.759  1.00  0.00     0.000 C 
BRANCH  18  19
HETATM   19  C4  UNL     1      13.311  -3.025  18.315  1.00  0.00     0.000 C 
BRANCH  19  20
HETATM   20  C3  UNL     1      12.302  -3.907  17.627  1.00  0.00    -0.000 C 
BRANCH  20  21
HETATM   21  C2  UNL     1      11.225  -4.304  18.602  1.00  0.00    -0.005 C 
HETATM   22  C1  UNL     1       9.841  -4.150  17.988  1.00  0.00     0.005 C 
ENDBRANCH  20  21
ENDBRANCH  19  20
ENDBRANCH  18  19
ENDBRANCH  17  18
ENDBRANCH  16  17
ENDBRANCH  15  16
ENDBRANCH  14  15
ENDBRANCH  13  14
ENDBRANCH   1  13
BRANCH   4  23
HETATM   23  O1  UNL     1      17.431  -4.150  20.420  1.00  0.00    -0.372 OA
ATOM     24  H1  UNL     1      18.345  -4.398  20.345  1.00  0.00     0.212 HD
ENDBRANCH   4  23
BRANCH   8  25
HETATM   25  C17 UNL     1      15.386  -6.147  17.431  1.00  0.00     0.267 C 
BRANCH  25  26
HETATM   26  N4  UNL     1      15.444  -6.190  16.015  1.00  0.00    -0.076 N 
HETATM   27  C18 UNL     1      14.210  -6.346  15.309  1.00  0.00     0.271 C 
HETATM   28  C19 UNL     1      16.391  -7.269  15.592  1.00  0.00     0.271 C 
HETATM   29  C20 UNL     1      16.056  -4.952  15.556  1.00  0.00     0.271 C 
ENDBRANCH  25  26
ENDBRANCH   8  25
BRANCH   6  30
HETATM   30  N3  UNL     1      19.258  -6.422  17.927  1.00  0.00    -0.240 NA
HETATM   31  C14 UNL     1      20.601  -6.568  18.519  1.00  0.00     0.135 C 
HETATM   32  C15 UNL     1      19.467  -5.485  16.809  1.00  0.00     0.135 C 
ENDBRANCH   6  30
TORSDOF 13
ENDMDL
MODEL 3
REMARK VINA RESULT: -6.768953932      2.185      4.081
REMARK  13 active torsions:
REMARK  status: ('A' for Active; 'I' for Inactive)
REMARK    1  A    between atoms: C2_2  and  C3_3 
REMARK    2  A    between atoms: C3_3  and  C4_4 
REMARK    3  A    between atoms: C4_4  and  C5_5 
REMARK    4  A    between atoms: C5_5  and  C6_6 
REMARK    5  A    between atoms: C6_6  and  C7_7 
REMARK    6  A    between atoms: C7_7  and  C8_8 
REMARK    7  A    between atoms: C8_8  and  C9_9 
REMARK    8  A    between atoms: C9_9  and  C10_10 
REMARK    9  A    between atoms: C10_10  and  C11_11 
REMARK   10  A    between atoms: C12_14  and  O1_15 
REMARK   11  A    between atoms: N2_18  and  N3_20 
REMARK   12  A    between atoms: C16_23  and  C17_24 
REMARK   13  A    between atoms: C17_24  and  N4_25 
ROOT
HETATM    1  C11 UNL     1      12.924  -6.521  18.417  1.00  0.00     0.171 C 
HETATM    2  N1  UNL     1      13.983  -7.517  18.627  1.00  0.00    -0.379 N 
ATOM      3  H1  UNL     1      13.781  -8.483  18.882  1.00  0.00     0.157 HD
HETATM    4  C12 UNL     1      15.306  -7.040  18.452  1.00  0.00     0.264 C 
HETATM    5  C13 UNL     1      15.576  -7.004  16.978  1.00  0.00     0.070 C 
HETATM    6  N2  UNL     1      16.043  -8.065  16.498  1.00  0.00    -0.322 N 
ATOM      7  H2  UNL     1      16.178  -8.815  17.175  1.00  0.00     0.180 HD
HETATM    8  C16 UNL     1      15.309  -5.783  16.159  1.00  0.00     0.162 C 
HETATM    9  N5  UNL     1      13.950  -5.320  16.339  1.00  0.00    -0.348 N 
ATOM     10  H5  UNL     1      13.692  -4.454  15.865  1.00  0.00     0.163 HD
HETATM   11  C21 UNL     1      12.935  -5.956  17.116  1.00  0.00     0.240 C 
HETATM   12  O2  UNL     1      11.812  -6.023  16.478  1.00  0.00    -0.271 OA
ENDROOT
BRANCH   1  13
HETATM   13  C10 UNL     1      12.908  -5.669  19.611  1.00  0.00     0.034 C 
BRANCH  13  14
HETATM   14  C9  UNL     1      12.776  -4.204  19.529  1.00  0.00     0.002 C 
BRANCH  14  15
HETATM   15  C8  UNL     1      14.012  -3.436  19.344  1.00  0.00     0.000 C 
BRANCH  15  16
HETATM   16  C7  UNL     1      14.193  -2.510  20.565  1.00  0.00     0.000 C 
BRANCH  16  17
HETATM   17  C6  UNL     1      14.555  -3.238  21.809  1.00  0.00     0.000 C 
BRANCH  17  18
HETATM   18  C5  UNL     1      15.950  -3.843  21.572  1.00  0.00     0.000 C 
BRANCH  18  19
HETATM   19  C4  UNL     1      15.902  -5.323  21.817  1.00  0.00     0.000 C 
BRANCH  19  20
HETATM   20  C3  UNL     1      14.739  -5.645  22.718  1.00  0.00    -0.000 C 
BRANCH  20  21
HETATM   21  C2  UNL     1      14.867  -7.056  23.230  1.00  0.00    -0.005 C 
HETATM   22  C1  UNL     1      14.416  -8.065  22.183  1.00  0.00     0.005 C 
ENDBRANCH  20  21
ENDBRANCH  19  20
ENDBRANCH  18  19
ENDBRANCH  17  18
ENDBRANCH  16  17
ENDBRANCH  15  16
ENDBRANCH  14  15
ENDBRANCH  13  14
ENDBRANCH   1  13
BRANCH   4  23
HETATM   23  O1  UNL     1      16.196  -7.982  19.034  1.00  0.00    -0.372 OA
ATOM     24  H1  UNL     1      16.410  -8.632  18.375  1.00  0.00     0.212 HD
ENDBRANCH   4  23
BRANCH   8  25
HETATM   25  C17 UNL     1      16.262  -4.691  16.530  1.00  0.00     0.267 C 
BRANCH  25  26
HETATM   26  N4  UNL     1      17.319  -4.368  15.641  1.00  0.00    -0.076 N 
HETATM   27  C18 UNL     1      17.383  -5.082  14.404  1.00  0.00     0.271 C 
HETATM   28  C19 UNL     1      18.626  -4.508  16.356  1.00  0.00     0.271 C 
HETATM   29  C20 UNL     1      17.216  -2.952  15.323  1.00  0.00     0.271 C 
ENDBRANCH  25  26
ENDBRANCH   8  25
BRANCH   6  30
HETATM   30  N3  UNL     1      16.398  -8.378  15.224  1.00  0.00    -0.240 NA
HETATM   31  C14 UNL     1      15.479  -9.424  14.736  1.00  0.00     0.135 C 
HETATM   32  C15 UNL     1      17.723  -9.022  15.170  1.00  0.00     0.135 C 
ENDBRANCH   6  30
TORSDOF 13
ENDMDL
MODEL 4
REMARK VINA RESULT: -6.669427348      1.910      3.330
REMARK  13 active torsions:
REMARK  status: ('A' for Active; 'I' for Inactive)
REMARK    1  A    between atoms: C2_2  and  C3_3 
REMARK    2  A    between atoms: C3_3  and  C4_4 
REMARK    3  A    between atoms: C4_4  and  C5_5 
REMARK    4  A    between atoms: C5_5  and  C6_6 
REMARK    5  A    between atoms: C6_6  and  C7_7 
REMARK    6  A    between atoms: C7_7  and  C8_8 
REMARK    7  A    between atoms: C8_8  and  C9_9 
REMARK    8  A    between atoms: C9_9  and  C10_10 
REMARK    9  A    between atoms: C10_10  and  C11_11 
REMARK   10  A    between atoms: C12_14  and  O1_15 
REMARK   11  A    between atoms: N2_18  and  N3_20 
REMARK   12  A    between atoms: C16_23  and  C17_24 
REMARK   13  A    between atoms: C17_24  and  N4_25 
ROOT
HETATM    1  C11 UNL     1      14.798  -5.598  18.630  1.00  0.00     0.171 C 
HETATM    2  N1  UNL     1      15.851  -4.668  18.199  1.00  0.00    -0.379 N 
ATOM      3  H1  UNL     1      16.428  -4.152  18.863  1.00  0.00     0.157 HD
HETATM    4  C12 UNL     1      16.008  -4.538  16.797  1.00  0.00     0.264 C 
HETATM    5  C13 UNL     1      16.802  -5.719  16.325  1.00  0.00     0.070 C 
HETATM    6  N2  UNL     1      18.046  -5.562  16.339  1.00  0.00    -0.322 N 
ATOM      7  H2  UNL     1      18.357  -4.649  16.671  1.00  0.00     0.180 HD
HETATM    8  C16 UNL     1      16.141  -6.979  15.869  1.00  0.00     0.162 C 
HETATM    9  N5  UNL     1      15.218  -7.476  16.866  1.00  0.00    -0.348 N 
ATOM     10  H5  UNL     1      14.673  -8.302  16.618  1.00  0.00     0.163 HD
HETATM   11  C21 UNL     1      14.996  -6.922  18.164  1.00  0.00     0.240 C 
HETATM   12  O2  UNL     1      14.981  -7.835  19.080  1.00  0.00    -0.271 OA
ENDROOT
BRANCH   1  13
HETATM   13  C10 UNL     1      13.521  -4.906  18.425  1.00  0.00     0.034 C 
BRANCH  13  14
HETATM   14  C9  UNL     1      13.000  -3.919  19.386  1.00  0.00     0.002 C 
BRANCH  14  15
HETATM   15  C8  UNL     1      13.414  -2.524  19.196  1.00  0.00     0.000 C 
BRANCH  15  16
HETATM   16  C7  UNL     1      14.407  -2.158  20.319  1.00  0.00     0.000 C 
BRANCH  16  17
HETATM   17  C6  UNL     1      14.358  -3.089  21.476  1.00  0.00     0.000 C 
BRANCH  17  18
HETATM   18  C5  UNL     1      15.799  -3.575  21.708  1.00  0.00     0.000 C 
BRANCH  18  19
HETATM   19  C4  UNL     1      15.801  -5.064  21.895  1.00  0.00     0.000 C 
BRANCH  19  20
HETATM   20  C3  UNL     1      14.451  -5.508  22.397  1.00  0.00    -0.000 C 
BRANCH  20  21
HETATM   21  C2  UNL     1      14.466  -6.993  22.649  1.00  0.00    -0.005 C 
HETATM   22  C1  UNL     1      15.408  -7.350  23.789  1.00  0.00     0.005 C 
ENDBRANCH  20  21
ENDBRANCH  19  20
ENDBRANCH  18  19
ENDBRANCH  17  18
ENDBRANCH  16  17
ENDBRANCH  15  16
ENDBRANCH  14  15
ENDBRANCH  13  14
ENDBRANCH   1  13
BRANCH   4  23
HETATM   23  O1  UNL     1      16.776  -3.369  16.545  1.00  0.00    -0.372 OA
ATOM     24  H1  UNL     1      17.312  -3.529  15.777  1.00  0.00     0.212 HD
ENDBRANCH   4  23
BRANCH   8  25
HETATM   25  C17 UNL     1      15.410  -6.745  14.585  1.00  0.00     0.267 C 
BRANCH  25  26
HETATM   26  N4  UNL     1      16.004  -7.167  13.368  1.00  0.00    -0.076 N 
HETATM   27  C18 UNL     1      16.770  -6.204  12.639  1.00  0.00     0.271 C 
HETATM   28  C19 UNL     1      14.946  -7.731  12.472  1.00  0.00     0.271 C 
HETATM   29  C20 UNL     1      16.882  -8.289  13.665  1.00  0.00     0.271 C 
ENDBRANCH  25  26
ENDBRANCH   8  25
BRANCH   6  30
HETATM   30  N3  UNL     1      19.049  -6.408  15.986  1.00  0.00    -0.240 NA
HETATM   31  C14 UNL     1      20.067  -6.385  17.053  1.00  0.00     0.135 C 
HETATM   32  C15 UNL     1      19.775  -5.928  14.797  1.00  0.00     0.135 C 
ENDBRANCH   6  30
TORSDOF 13
ENDMDL
MODEL 5
REMARK VINA RESULT: -6.640495551      2.159      7.227
REMARK  13 active torsions:
REMARK  status: ('A' for Active; 'I' for Inactive)
REMARK    1  A    between atoms: C2_2  and  C3_3 
REMARK    2  A    between atoms: C3_3  and  C4_4 
REMARK    3  A    between atoms: C4_4  and  C5_5 
REMARK    4  A    between atoms: C5_5  and  C6_6 
REMARK    5  A    between atoms: C6_6  and  C7_7 
REMARK    6  A    between atoms: C7_7  and  C8_8 
REMARK    7  A    between atoms: C8_8  and  C9_9 
REMARK    8  A    between atoms: C9_9  and  C10_10 
REMARK    9  A    between atoms: C10_10  and  C11_11 
REMARK   10  A    between atoms: C12_14  and  O1_15 
REMARK   11  A    between atoms: N2_18  and  N3_20 
REMARK   12  A    between atoms: C16_23  and  C17_24 
REMARK   13  A    between atoms: C17_24  and  N4_25 
ROOT
HETATM    1  C11 UNL     1      18.664  -6.484  18.439  1.00  0.00     0.171 C 
HETATM    2  N1  UNL     1      18.433  -7.764  19.122  1.00  0.00    -0.379 N 
ATOM      3  H1  UNL     1      19.163  -8.469  19.220  1.00  0.00     0.157 HD
HETATM    4  C12 UNL     1      17.125  -7.950  19.634  1.00  0.00     0.264 C 
HETATM    5  C13 UNL     1      17.042  -7.199  20.928  1.00  0.00     0.070 C 
HETATM    6  N2  UNL     1      17.383  -7.851  21.944  1.00  0.00    -0.322 N 
ATOM      7  H2  UNL     1      17.673  -8.810  21.756  1.00  0.00     0.180 HD
HETATM    8  C16 UNL     1      16.577  -5.780  20.984  1.00  0.00     0.162 C 
HETATM    9  N5  UNL     1      17.331  -4.946  20.073  1.00  0.00    -0.348 N 
ATOM     10  H5  UNL     1      17.044  -3.970  19.998  1.00  0.00     0.163 HD
HETATM   11  C21 UNL     1      18.437  -5.357  19.269  1.00  0.00     0.240 C 
HETATM   12  O2  UNL     1      19.417  -4.516  19.334  1.00  0.00    -0.271 OA
ENDROOT
BRANCH   1  13
HETATM   13  C10 UNL     1      18.029  -6.593  17.121  1.00  0.00     0.034 C 
BRANCH  13  14
HETATM   14  C9  UNL     1      18.808  -6.591  15.871  1.00  0.00     0.002 C 
BRANCH  14  15
HETATM   15  C8  UNL     1      19.793  -5.517  15.703  1.00  0.00     0.000 C 
BRANCH  15  16
HETATM   16  C7  UNL     1      20.548  -5.756  14.379  1.00  0.00     0.000 C 
BRANCH  16  17
HETATM   17  C6  UNL     1      22.027  -5.719  14.529  1.00  0.00     0.000 C 
BRANCH  17  18
HETATM   18  C5  UNL     1      22.464  -7.145  14.906  1.00  0.00     0.000 C 
BRANCH  18  19
HETATM   19  C4  UNL     1      23.184  -7.116  16.223  1.00  0.00     0.000 C 
BRANCH  19  20
HETATM   20  C3  UNL     1      22.264  -7.609  17.309  1.00  0.00    -0.000 C 
BRANCH  20  21
HETATM   21  C2  UNL     1      22.374  -6.712  18.515  1.00  0.00    -0.005 C 
HETATM   22  C1  UNL     1      23.828  -6.412  18.847  1.00  0.00     0.005 C 
ENDBRANCH  20  21
ENDBRANCH  19  20
ENDBRANCH  18  19
ENDBRANCH  17  18
ENDBRANCH  16  17
ENDBRANCH  15  16
ENDBRANCH  14  15
ENDBRANCH  13  14
ENDBRANCH   1  13
BRANCH   4  23
HETATM   23  O1  UNL     1      16.956  -9.331  19.922  1.00  0.00    -0.372 OA
ATOM     24  H1  UNL     1      16.805  -9.787  19.102  1.00  0.00     0.212 HD
ENDBRANCH   4  23
BRANCH   8  25
HETATM   25  C17 UNL     1      15.121  -5.697  20.649  1.00  0.00     0.267 C 
BRANCH  25  26
HETATM   26  N4  UNL     1      14.301  -4.785  21.361  1.00  0.00    -0.076 N 
HETATM   27  C18 UNL     1      14.788  -3.451  21.527  1.00  0.00     0.271 C 
HETATM   28  C19 UNL     1      13.973  -5.359  22.703  1.00  0.00     0.271 C 
HETATM   29  C20 UNL     1      13.024  -4.699  20.667  1.00  0.00     0.271 C 
ENDBRANCH  25  26
ENDBRANCH   8  25
BRANCH   6  30
HETATM   30  N3  UNL     1      17.428  -7.489  23.253  1.00  0.00    -0.240 NA
HETATM   31  C14 UNL     1      18.497  -8.268  23.907  1.00  0.00     0.135 C 
HETATM   32  C15 UNL     1      16.209  -7.894  23.974  1.00  0.00     0.135 C 
ENDBRANCH   6  30
TORSDOF 13
ENDMDL
