MODEL 1
REMARK VINA RESULT: -7.362089387      0.000      0.000
REMARK  12 active torsions:
REMARK  status: ('A' for Active; 'I' for Inactive)
REMARK    1  A    between atoms: C2_2  and  N1_3 
REMARK    2  A    between atoms: C5_10  and  C6_11 
REMARK    3  A    between atoms: C5_10  and  C18_30 
REMARK    4  A    between atoms: C6_11  and  C7_12 
REMARK    5  A    between atoms: C7_12  and  C8_13 
REMARK    6  A    between atoms: C8_13  and  N4_17 
REMARK    7  A    between atoms: N4_17  and  C9_19 
REMARK    8  A    between atoms: C9_19  and  C10_20 
REMARK    9  A    between atoms: C10_20  and  N5_21 
REMARK   10  A    between atoms: N5_21  and  C13_24 
REMARK   11  A    between atoms: C13_24  and  C14_25 
REMARK   12  A    between atoms: C14_25  and  N6_26 
ROOT
HETATM    1  C8  UNL     1      10.444  -3.918  17.032  1.00  0.00     0.070 C 
HETATM    2  N3  UNL     1      10.238  -5.105  16.656  1.00  0.00    -0.389 N 
ATOM      3  H31 UNL     1       9.368  -5.396  16.209  1.00  0.00     0.157 HD
ATOM      4  H32 UNL     1      10.925  -5.850  16.771  1.00  0.00     0.157 HD
ENDROOT
BRANCH   1   5
HETATM    5  C7  UNL     1      11.729  -3.489  17.694  1.00  0.00     0.080 C 
BRANCH   5   6
HETATM    6  C6  UNL     1      12.045  -4.504  18.769  1.00  0.00     0.062 C 
BRANCH   6   7
HETATM    7  C5  UNL     1      13.508  -4.915  18.696  1.00  0.00     0.115 C 
HETATM    8  N1  UNL     1      14.249  -4.509  19.838  1.00  0.00    -0.317 N 
HETATM    9  C3  UNL     1      15.082  -3.364  19.509  1.00  0.00     0.313 C 
HETATM   10  O1  UNL     1      15.807  -2.669  20.270  1.00  0.00    -0.262 OA
HETATM   11  C4  UNL     1      14.955  -3.123  18.105  1.00  0.00     0.311 C 
HETATM   12  O2  UNL     1      15.538  -2.200  17.445  1.00  0.00    -0.262 OA
HETATM   13  N2  UNL     1      14.069  -4.100  17.607  1.00  0.00    -0.326 N 
ATOM     14  H2  UNL     1      13.846  -4.226  16.619  1.00  0.00     0.165 HD
BRANCH   8  15
HETATM   15  C2  UNL     1      14.308  -4.993  21.211  1.00  0.00     0.124 C 
HETATM   16  C1  UNL     1      13.477  -4.095  22.070  1.00  0.00     0.026 C 
ENDBRANCH   8  15
BRANCH   7  17
HETATM   17  C18 UNL     1      13.604  -6.321  18.252  1.00  0.00     0.027 C 
HETATM   18  C19 UNL     1      13.700  -6.379  16.742  1.00  0.00     0.014 C 
HETATM   19  C20 UNL     1      12.471  -7.232  18.621  1.00  0.00     0.014 C 
ENDBRANCH   7  17
ENDBRANCH   6   7
ENDBRANCH   5   6
ENDBRANCH   1   5
BRANCH   1  20
HETATM   20  N4  UNL     1       9.488  -2.882  16.872  1.00  0.00    -0.379 N 
ATOM     21  H4  UNL     1       9.127  -2.428  17.711  1.00  0.00     0.160 HD
BRANCH  20  22
HETATM   22  C9  UNL     1       8.998  -2.433  15.591  1.00  0.00     0.149 C 
BRANCH  22  23
HETATM   23  C10 UNL     1       7.893  -1.447  15.625  1.00  0.00     0.256 C 
BRANCH  23  24
HETATM   24  N5  UNL     1       6.724  -1.752  14.860  1.00  0.00    -0.072 N 
HETATM   25  C11 UNL     1       5.645  -0.891  15.301  1.00  0.00     0.272 C 
HETATM   26  C12 UNL     1       6.857  -1.600  13.435  1.00  0.00     0.272 C 
BRANCH  24  27
HETATM   27  C13 UNL     1       6.387  -3.174  15.062  1.00  0.00     0.264 C 
BRANCH  27  28
HETATM   28  C14 UNL     1       5.166  -3.292  15.915  1.00  0.00     0.264 C 
BRANCH  28  29
HETATM   29  N6  UNL     1       5.451  -4.104  17.082  1.00  0.00    -0.077 N 
HETATM   30  C15 UNL     1       6.533  -5.020  16.896  1.00  0.00     0.271 C 
HETATM   31  C16 UNL     1       5.775  -3.202  18.168  1.00  0.00     0.271 C 
HETATM   32  C17 UNL     1       4.278  -4.859  17.498  1.00  0.00     0.271 C 
ENDBRANCH  28  29
ENDBRANCH  27  28
ENDBRANCH  24  27
ENDBRANCH  23  24
ENDBRANCH  22  23
ENDBRANCH  20  22
ENDBRANCH   1  20
TORSDOF 12
ENDMDL
MODEL 2
REMARK VINA RESULT: -7.271388284      5.762      8.509
REMARK  12 active torsions:
REMARK  status: ('A' for Active; 'I' for Inactive)
REMARK    1  A    between atoms: C2_2  and  N1_3 
REMARK    2  A    between atoms: C5_10  and  C6_11 
REMARK    3  A    between atoms: C5_10  and  C18_30 
REMARK    4  A    between atoms: C6_11  and  C7_12 
REMARK    5  A    between atoms: C7_12  and  C8_13 
REMARK    6  A    between atoms: C8_13  and  N4_17 
REMARK    7  A    between atoms: N4_17  and  C9_19 
REMARK    8  A    between atoms: C9_19  and  C10_20 
REMARK    9  A    between atoms: C10_20  and  N5_21 
REMARK   10  A    between atoms: N5_21  and  C13_24 
REMARK   11  A    between atoms: C13_24  and  C14_25 
REMARK   12  A    between atoms: C14_25  and  N6_26 
ROOT
HETATM    1  C8  UNL     1      16.831  -7.369  19.167  1.00  0.00     0.070 C 
HETATM    2  N3  UNL     1      17.330  -8.527  19.225  1.00  0.00    -0.389 N 
ATOM      3  H31 UNL     1      18.029  -8.788  19.920  1.00  0.00     0.157 HD
ATOM      4  H32 UNL     1      17.066  -9.277  18.587  1.00  0.00     0.157 HD
ENDROOT
BRANCH   1   5
HETATM    5  C7  UNL     1      15.797  -6.983  18.139  1.00  0.00     0.080 C 
BRANCH   5   6
HETATM    6  C6  UNL     1      16.470  -7.014  16.785  1.00  0.00     0.062 C 
BRANCH   6   7
HETATM    7  C5  UNL     1      15.877  -5.952  15.873  1.00  0.00     0.115 C 
HETATM    8  N1  UNL     1      16.864  -5.098  15.312  1.00  0.00    -0.317 N 
HETATM    9  C3  UNL     1      16.845  -3.809  15.981  1.00  0.00     0.313 C 
HETATM   10  O1  UNL     1      17.622  -2.828  15.830  1.00  0.00    -0.262 OA
HETATM   11  C4  UNL     1      15.745  -3.809  16.896  1.00  0.00     0.311 C 
HETATM   12  O2  UNL     1      15.405  -2.848  17.664  1.00  0.00    -0.262 OA
HETATM   13  N2  UNL     1      15.122  -5.068  16.775  1.00  0.00    -0.326 N 
ATOM     14  H2  UNL     1      14.259  -5.332  17.251  1.00  0.00     0.165 HD
BRANCH   8  15
HETATM   15  C2  UNL     1      17.853  -5.277  14.256  1.00  0.00     0.124 C 
HETATM   16  C1  UNL     1      17.282  -4.761  12.975  1.00  0.00     0.026 C 
ENDBRANCH   8  15
BRANCH   7  17
HETATM   17  C18 UNL     1      14.883  -6.572  14.974  1.00  0.00     0.027 C 
HETATM   18  C19 UNL     1      13.493  -6.413  15.554  1.00  0.00     0.014 C 
HETATM   19  C20 UNL     1      15.038  -8.037  14.692  1.00  0.00     0.014 C 
ENDBRANCH   7  17
ENDBRANCH   6   7
ENDBRANCH   5   6
ENDBRANCH   1   5
BRANCH   1  20
HETATM   20  N4  UNL     1      17.198  -6.325  20.054  1.00  0.00    -0.379 N 
ATOM     21  H4  UNL     1      18.069  -6.422  20.576  1.00  0.00     0.160 HD
BRANCH  20  22
HETATM   22  C9  UNL     1      16.409  -5.134  20.263  1.00  0.00     0.149 C 
BRANCH  22  23
HETATM   23  C10 UNL     1      15.730  -5.023  21.574  1.00  0.00     0.256 C 
BRANCH  23  24
HETATM   24  N5  UNL     1      14.338  -5.343  21.615  1.00  0.00    -0.072 N 
HETATM   25  C11 UNL     1      13.681  -4.433  22.533  1.00  0.00     0.272 C 
HETATM   26  C12 UNL     1      13.646  -5.276  20.355  1.00  0.00     0.272 C 
BRANCH  24  27
HETATM   27  C13 UNL     1      14.190  -6.743  22.058  1.00  0.00     0.264 C 
BRANCH  27  28
HETATM   28  C14 UNL     1      15.084  -7.006  23.225  1.00  0.00     0.264 C 
BRANCH  28  29
HETATM   29  N6  UNL     1      15.563  -8.375  23.185  1.00  0.00    -0.077 N 
HETATM   30  C15 UNL     1      15.224  -9.138  24.346  1.00  0.00     0.271 C 
HETATM   31  C16 UNL     1      14.980  -9.004  22.018  1.00  0.00     0.271 C 
HETATM   32  C17 UNL     1      17.007  -8.422  23.011  1.00  0.00     0.271 C 
ENDBRANCH  28  29
ENDBRANCH  27  28
ENDBRANCH  24  27
ENDBRANCH  23  24
ENDBRANCH  22  23
ENDBRANCH  20  22
ENDBRANCH   1  20
TORSDOF 12
ENDMDL
MODEL 3
REMARK VINA RESULT: -7.257458801      5.811      8.820
REMARK  12 active torsions:
REMARK  status: ('A' for Active; 'I' for Inactive)
REMARK    1  A    between atoms: C2_2  and  N1_3 
REMARK    2  A    between atoms: C5_10  and  C6_11 
REMARK    3  A    between atoms: C5_10  and  C18_30 
REMARK    4  A    between atoms: C6_11  and  C7_12 
REMARK    5  A    between atoms: C7_12  and  C8_13 
REMARK    6  A    between atoms: C8_13  and  N4_17 
REMARK    7  A    between atoms: N4_17  and  C9_19 
REMARK    8  A    between atoms: C9_19  and  C10_20 
REMARK    9  A    between atoms: C10_20  and  N5_21 
REMARK   10  A    between atoms: N5_21  and  C13_24 
REMARK   11  A    between atoms: C13_24  and  C14_25 
REMARK   12  A    between atoms: C14_25  and  N6_26 
ROOT
HETATM    1  C8  UNL     1      17.437  -7.548  18.577  1.00  0.00     0.070 C 
HETATM    2  N3  UNL     1      18.572  -7.042  18.359  1.00  0.00    -0.389 N 
ATOM      3  H31 UNL     1      19.412  -7.349  18.850  1.00  0.00     0.157 HD
ATOM      4  H32 UNL     1      18.727  -6.298  17.679  1.00  0.00     0.157 HD
ENDROOT
BRANCH   1   5
HETATM    5  C7  UNL     1      16.195  -7.095  17.851  1.00  0.00     0.080 C 
BRANCH   5   6
HETATM    6  C6  UNL     1      16.472  -7.204  16.368  1.00  0.00     0.062 C 
BRANCH   6   7
HETATM    7  C5  UNL     1      15.874  -6.018  15.628  1.00  0.00     0.115 C 
HETATM    8  N1  UNL     1      16.864  -5.132  15.122  1.00  0.00    -0.317 N 
HETATM    9  C3  UNL     1      16.927  -3.936  15.945  1.00  0.00     0.313 C 
HETATM   10  O1  UNL     1      17.733  -2.969  15.874  1.00  0.00    -0.262 OA
HETATM   11  C4  UNL     1      15.876  -4.016  16.912  1.00  0.00     0.311 C 
HETATM   12  O2  UNL     1      15.613  -3.149  17.810  1.00  0.00    -0.262 OA
HETATM   13  N2  UNL     1      15.200  -5.230  16.671  1.00  0.00    -0.326 N 
ATOM     14  H2  UNL     1      14.353  -5.524  17.158  1.00  0.00     0.165 HD
BRANCH   8  15
HETATM   15  C2  UNL     1      17.790  -5.209  14.000  1.00  0.00     0.124 C 
HETATM   16  C1  UNL     1      17.178  -4.513  12.827  1.00  0.00     0.026 C 
ENDBRANCH   8  15
BRANCH   7  17
HETATM   17  C18 UNL     1      14.813  -6.489  14.715  1.00  0.00     0.027 C 
HETATM   18  C19 UNL     1      13.471  -6.435  15.414  1.00  0.00     0.014 C 
HETATM   19  C20 UNL     1      14.938  -7.888  14.188  1.00  0.00     0.014 C 
ENDBRANCH   7  17
ENDBRANCH   6   7
ENDBRANCH   5   6
ENDBRANCH   1   5
BRANCH   1  20
HETATM   20  N4  UNL     1      17.221  -8.583  19.523  1.00  0.00    -0.379 N 
ATOM     21  H4  UNL     1      17.213  -9.546  19.187  1.00  0.00     0.160 HD
BRANCH  20  22
HETATM   22  C9  UNL     1      17.013  -8.351  20.932  1.00  0.00     0.149 C 
BRANCH  22  23
HETATM   23  C10 UNL     1      15.814  -8.985  21.526  1.00  0.00     0.256 C 
BRANCH  23  24
HETATM   24  N5  UNL     1      15.268  -8.374  22.698  1.00  0.00    -0.072 N 
HETATM   25  C11 UNL     1      14.709  -9.411  23.542  1.00  0.00     0.272 C 
HETATM   26  C12 UNL     1      16.195  -7.609  23.491  1.00  0.00     0.272 C 
BRANCH  24  27
HETATM   27  C13 UNL     1      14.232  -7.408  22.286  1.00  0.00     0.264 C 
BRANCH  27  28
HETATM   28  C14 UNL     1      14.635  -6.026  22.685  1.00  0.00     0.264 C 
BRANCH  28  29
HETATM   29  N6  UNL     1      14.522  -5.129  21.551  1.00  0.00    -0.077 N 
HETATM   30  C15 UNL     1      15.777  -4.802  20.948  1.00  0.00     0.271 C 
HETATM   31  C16 UNL     1      13.679  -5.776  20.568  1.00  0.00     0.271 C 
HETATM   32  C17 UNL     1      13.857  -3.889  21.925  1.00  0.00     0.271 C 
ENDBRANCH  28  29
ENDBRANCH  27  28
ENDBRANCH  24  27
ENDBRANCH  23  24
ENDBRANCH  22  23
ENDBRANCH  20  22
ENDBRANCH   1  20
TORSDOF 12
ENDMDL
MODEL 4
REMARK VINA RESULT: -7.109838490      1.137      1.999
REMARK  12 active torsions:
REMARK  status: ('A' for Active; 'I' for Inactive)
REMARK    1  A    between atoms: C2_2  and  N1_3 
REMARK    2  A    between atoms: C5_10  and  C6_11 
REMARK    3  A    between atoms: C5_10  and  C18_30 
REMARK    4  A    between atoms: C6_11  and  C7_12 
REMARK    5  A    between atoms: C7_12  and  C8_13 
REMARK    6  A    between atoms: C8_13  and  N4_17 
REMARK    7  A    between atoms: N4_17  and  C9_19 
REMARK    8  A    between atoms: C9_19  and  C10_20 
REMARK    9  A    between atoms: C10_20  and  N5_21 
REMARK   10  A    between atoms: N5_21  and  C13_24 
REMARK   11  A    between atoms: C13_24  and  C14_25 
REMARK   12  A    between atoms: C14_25  and  N6_26 
ROOT
HETATM    1  C8  UNL     1      10.563  -3.912  17.014  1.00  0.00     0.070 C 
HETATM    2  N3  UNL     1      10.315  -5.118  16.737  1.00  0.00    -0.389 N 
ATOM      3  H31 UNL     1       9.481  -5.403  16.223  1.00  0.00     0.157 HD
ATOM      4  H32 UNL     1      10.930  -5.886  17.005  1.00  0.00     0.157 HD
ENDROOT
BRANCH   1   5
HETATM    5  C7  UNL     1      11.795  -3.492  17.775  1.00  0.00     0.080 C 
BRANCH   5   6
HETATM    6  C6  UNL     1      12.097  -4.578  18.783  1.00  0.00     0.062 C 
BRANCH   6   7
HETATM    7  C5  UNL     1      13.566  -4.968  18.719  1.00  0.00     0.115 C 
HETATM    8  N1  UNL     1      14.297  -4.538  19.859  1.00  0.00    -0.317 N 
HETATM    9  C3  UNL     1      15.113  -3.384  19.520  1.00  0.00     0.313 C 
HETATM   10  O1  UNL     1      15.825  -2.670  20.277  1.00  0.00    -0.262 OA
HETATM   11  C4  UNL     1      14.987  -3.160  18.113  1.00  0.00     0.311 C 
HETATM   12  O2  UNL     1      15.558  -2.235  17.446  1.00  0.00    -0.262 OA
HETATM   13  N2  UNL     1      14.118  -4.156  17.624  1.00  0.00    -0.326 N 
ATOM     14  H2  UNL     1      13.900  -4.296  16.636  1.00  0.00     0.165 HD
BRANCH   8  15
HETATM   15  C2  UNL     1      14.359  -5.006  21.238  1.00  0.00     0.124 C 
HETATM   16  C1  UNL     1      13.503  -4.118  22.083  1.00  0.00     0.026 C 
ENDBRANCH   8  15
BRANCH   7  17
HETATM   17  C18 UNL     1      13.685  -6.376  18.291  1.00  0.00     0.027 C 
HETATM   18  C19 UNL     1      13.722  -6.454  16.779  1.00  0.00     0.014 C 
HETATM   19  C20 UNL     1      12.595  -7.313  18.718  1.00  0.00     0.014 C 
ENDBRANCH   7  17
ENDBRANCH   6   7
ENDBRANCH   5   6
ENDBRANCH   1   5
BRANCH   1  20
HETATM   20  N4  UNL     1       9.707  -2.843  16.642  1.00  0.00    -0.379 N 
ATOM     21  H4  UNL     1       9.996  -1.893  16.874  1.00  0.00     0.160 HD
BRANCH  20  22
HETATM   22  C9  UNL     1       8.451  -3.023  15.955  1.00  0.00     0.149 C 
BRANCH  22  23
HETATM   23  C10 UNL     1       7.232  -2.689  16.726  1.00  0.00     0.256 C 
BRANCH  23  24
HETATM   24  N5  UNL     1       6.191  -3.668  16.756  1.00  0.00    -0.072 N 
HETATM   25  C11 UNL     1       5.446  -3.590  15.515  1.00  0.00     0.272 C 
HETATM   26  C12 UNL     1       6.623  -5.031  16.928  1.00  0.00     0.272 C 
BRANCH  24  27
HETATM   27  C13 UNL     1       5.322  -3.395  17.916  1.00  0.00     0.264 C 
BRANCH  27  28
HETATM   28  C14 UNL     1       4.159  -4.333  17.914  1.00  0.00     0.264 C 
BRANCH  28  29
HETATM   29  N6  UNL     1       2.928  -3.599  18.141  1.00  0.00    -0.077 N 
HETATM   30  C15 UNL     1       1.979  -3.725  17.079  1.00  0.00     0.271 C 
HETATM   31  C16 UNL     1       2.342  -4.105  19.365  1.00  0.00     0.271 C 
HETATM   32  C17 UNL     1       3.192  -2.184  18.354  1.00  0.00     0.271 C 
ENDBRANCH  28  29
ENDBRANCH  27  28
ENDBRANCH  24  27
ENDBRANCH  23  24
ENDBRANCH  22  23
ENDBRANCH  20  22
ENDBRANCH   1  20
TORSDOF 12
ENDMDL
MODEL 5
REMARK VINA RESULT: -7.090042272      1.777      3.028
REMARK  12 active torsions:
REMARK  status: ('A' for Active; 'I' for Inactive)
REMARK    1  A    between atoms: C2_2  and  N1_3 
REMARK    2  A    between atoms: C5_10  and  C6_11 
REMARK    3  A    between atoms: C5_10  and  C18_30 
REMARK    4  A    between atoms: C6_11  and  C7_12 
REMARK    5  A    between atoms: C7_12  and  C8_13 
REMARK    6  A    between atoms: C8_13  and  N4_17 
REMARK    7  A    between atoms: N4_17  and  C9_19 
REMARK    8  A    between atoms: C9_19  and  C10_20 
REMARK    9  A    between atoms: C10_20  and  N5_21 
REMARK   10  A    between atoms: N5_21  and  C13_24 
REMARK   11  A    between atoms: C13_24  and  C14_25 
REMARK   12  A    between atoms: C14_25  and  N6_26 
ROOT
HETATM    1  C8  UNL     1      10.268  -4.127  17.293  1.00  0.00     0.070 C 
HETATM    2  N3  UNL     1      10.318  -5.118  16.513  1.00  0.00    -0.389 N 
ATOM      3  H31 UNL     1       9.839  -5.131  15.612  1.00  0.00     0.157 HD
ATOM      4  H32 UNL     1      10.841  -5.967  16.727  1.00  0.00     0.157 HD
ENDROOT
BRANCH   1   5
HETATM    5  C7  UNL     1      10.976  -4.108  18.625  1.00  0.00     0.080 C 
BRANCH   5   6
HETATM    6  C6  UNL     1      12.336  -3.484  18.404  1.00  0.00     0.062 C 
BRANCH   6   7
HETATM    7  C5  UNL     1      13.431  -4.400  18.927  1.00  0.00     0.115 C 
HETATM    8  N1  UNL     1      14.222  -4.959  17.887  1.00  0.00    -0.317 N 
HETATM    9  C3  UNL     1      13.859  -6.351  17.680  1.00  0.00     0.313 C 
HETATM   10  O1  UNL     1      14.267  -7.151  16.796  1.00  0.00    -0.262 OA
HETATM   11  C4  UNL     1      12.911  -6.709  18.690  1.00  0.00     0.311 C 
HETATM   12  O2  UNL     1      12.362  -7.851  18.834  1.00  0.00    -0.262 OA
HETATM   13  N2  UNL     1      12.713  -5.559  19.481  1.00  0.00    -0.326 N 
ATOM     14  H2  UNL     1      12.145  -5.533  20.329  1.00  0.00     0.165 HD
BRANCH   8  15
HETATM   15  C2  UNL     1      15.260  -4.414  17.022  1.00  0.00     0.124 C 
HETATM   16  C1  UNL     1      16.594  -4.772  17.594  1.00  0.00     0.026 C 
ENDBRANCH   8  15
BRANCH   7  17
HETATM   17  C18 UNL     1      14.114  -3.754  20.066  1.00  0.00     0.027 C 
HETATM   18  C19 UNL     1      13.395  -4.089  21.356  1.00  0.00     0.014 C 
HETATM   19  C20 UNL     1      14.220  -2.258  20.039  1.00  0.00     0.014 C 
ENDBRANCH   7  17
ENDBRANCH   6   7
ENDBRANCH   5   6
ENDBRANCH   1   5
BRANCH   1  20
HETATM   20  N4  UNL     1       9.541  -2.946  16.995  1.00  0.00    -0.379 N 
ATOM     21  H4  UNL     1       9.315  -2.314  17.763  1.00  0.00     0.160 HD
BRANCH  20  22
HETATM   22  C9  UNL     1       9.101  -2.588  15.668  1.00  0.00     0.149 C 
BRANCH  22  23
HETATM   23  C10 UNL     1       8.104  -1.496  15.585  1.00  0.00     0.256 C 
BRANCH  23  24
HETATM   24  N5  UNL     1       6.889  -1.776  14.885  1.00  0.00    -0.072 N 
HETATM   25  C11 UNL     1       5.839  -0.938  15.428  1.00  0.00     0.272 C 
HETATM   26  C12 UNL     1       6.929  -1.569  13.461  1.00  0.00     0.272 C 
BRANCH  24  27
HETATM   27  C13 UNL     1       6.568  -3.206  15.054  1.00  0.00     0.264 C 
BRANCH  27  28
HETATM   28  C14 UNL     1       5.305  -3.356  15.838  1.00  0.00     0.264 C 
BRANCH  28  29
HETATM   29  N6  UNL     1       5.568  -4.071  17.072  1.00  0.00    -0.077 N 
HETATM   30  C15 UNL     1       5.939  -3.222  18.162  1.00  0.00     0.271 C 
HETATM   31  C16 UNL     1       4.362  -4.792  17.422  1.00  0.00     0.271 C 
HETATM   32  C17 UNL     1       6.616  -5.066  16.891  1.00  0.00     0.271 C 
ENDBRANCH  28  29
ENDBRANCH  27  28
ENDBRANCH  24  27
ENDBRANCH  23  24
ENDBRANCH  22  23
ENDBRANCH  20  22
ENDBRANCH   1  20
TORSDOF 12
ENDMDL
