MODEL 1
REMARK VINA RESULT: -7.244683373      0.000      0.000
REMARK  3 active torsions:
REMARK  status: ('A' for Active; 'I' for Inactive)
REMARK    1  A    between atoms: N3_10  and  C7_12 
REMARK    2  A    between atoms: C7_12  and  C8_13 
REMARK    3  A    between atoms: C8_13  and  C9_14 
ROOT
HETATM    1  N1  UNL     1      15.115  -1.603  17.581  1.00  0.00    -0.191 NA
HETATM    2  C1  UNL     1      14.659  -2.220  18.472  1.00  0.00     0.103 C 
HETATM    3  C2  UNL     1      14.123  -2.979  19.565  1.00  0.00     0.088 A 
HETATM    4  C3  UNL     1      14.737  -3.010  20.800  1.00  0.00     0.028 A 
HETATM    5  C4  UNL     1      14.161  -3.762  21.798  1.00  0.00     0.019 A 
HETATM    6  C5  UNL     1      13.003  -4.470  21.588  1.00  0.00     0.090 A 
HETATM    7  N2  UNL     1      12.407  -4.439  20.389  1.00  0.00    -0.351 N 
ATOM      8  H2  UNL     1      11.547  -4.964  20.232  1.00  0.00     0.166 HD
HETATM    9  C6  UNL     1      12.943  -3.718  19.399  1.00  0.00     0.121 A 
HETATM   10  N3  UNL     1      12.426  -3.642  18.223  1.00  0.00    -0.375 N 
ATOM     11  H3  UNL     1      12.879  -3.075  17.506  1.00  0.00     0.161 HD
ENDROOT
BRANCH  10  12
HETATM   12  C7  UNL     1      11.213  -4.351  17.911  1.00  0.00     0.127 C 
BRANCH  12  13
HETATM   13  C8  UNL     1      10.267  -3.539  17.046  1.00  0.00     0.078 C 
BRANCH  13  14
HETATM   14  C9  UNL     1       8.961  -4.219  16.996  1.00  0.00     0.028 A 
HETATM   15  C10 UNL     1       7.744  -3.583  17.109  1.00  0.00     0.045 A 
HETATM   16  C11 UNL     1       6.795  -4.578  17.011  1.00  0.00     0.109 A 
HETATM   17  N4  UNL     1       7.454  -5.714  16.852  1.00  0.00    -0.312 N 
HETATM   18  N5  UNL     1       8.756  -5.538  16.839  1.00  0.00    -0.305 N 
ATOM     19  H4  UNL     1       7.003  -6.623  16.752  1.00  0.00     0.186 HD
ATOM     20  H5  UNL     1       9.469  -6.260  16.731  1.00  0.00     0.186 HD
ENDBRANCH  13  14
ENDBRANCH  12  13
ENDBRANCH  10  12
TORSDOF 3
ENDMDL
MODEL 2
REMARK VINA RESULT: -7.190512913      5.752      9.113
REMARK  3 active torsions:
REMARK  status: ('A' for Active; 'I' for Inactive)
REMARK    1  A    between atoms: N3_10  and  C7_12 
REMARK    2  A    between atoms: C7_12  and  C8_13 
REMARK    3  A    between atoms: C8_13  and  C9_14 
ROOT
HETATM    1  N1  UNL     1      17.966  -4.639  19.774  1.00  0.00    -0.191 NA
HETATM    2  C1  UNL     1      17.007  -4.775  20.439  1.00  0.00     0.103 C 
HETATM    3  C2  UNL     1      15.836  -4.919  21.256  1.00  0.00     0.088 A 
HETATM    4  C3  UNL     1      14.799  -4.010  21.208  1.00  0.00     0.028 A 
HETATM    5  C4  UNL     1      13.710  -4.217  22.022  1.00  0.00     0.019 A 
HETATM    6  C5  UNL     1      13.639  -5.297  22.867  1.00  0.00     0.090 A 
HETATM    7  N2  UNL     1      14.645  -6.180  22.913  1.00  0.00    -0.351 N 
ATOM      8  H2  UNL     1      14.593  -6.982  23.539  1.00  0.00     0.166 HD
HETATM    9  C6  UNL     1      15.718  -6.005  22.134  1.00  0.00     0.121 A 
HETATM   10  N3  UNL     1      16.721  -6.811  22.125  1.00  0.00    -0.375 N 
ATOM     11  H3  UNL     1      17.513  -6.628  21.509  1.00  0.00     0.161 HD
ENDROOT
BRANCH  10  12
HETATM   12  C7  UNL     1      16.734  -7.970  22.978  1.00  0.00     0.127 C 
BRANCH  12  13
HETATM   13  C8  UNL     1      18.109  -8.256  23.555  1.00  0.00     0.078 C 
BRANCH  13  14
HETATM   14  C9  UNL     1      17.956  -9.066  24.776  1.00  0.00     0.028 A 
HETATM   15  C10 UNL     1      16.763  -9.594  25.219  1.00  0.00     0.045 A 
HETATM   16  C11 UNL     1      17.066 -10.272  26.381  1.00  0.00     0.109 A 
HETATM   17  N4  UNL     1      18.367 -10.126  26.575  1.00  0.00    -0.312 N 
HETATM   18  N5  UNL     1      18.935  -9.408  25.632  1.00  0.00    -0.305 N 
ATOM     19  H4  UNL     1      18.872 -10.524  27.366  1.00  0.00     0.186 HD
ATOM     20  H5  UNL     1      19.922  -9.159  25.564  1.00  0.00     0.186 HD
ENDBRANCH  13  14
ENDBRANCH  12  13
ENDBRANCH  10  12
TORSDOF 3
ENDMDL
MODEL 3
REMARK VINA RESULT: -7.172771061      5.172      7.967
REMARK  3 active torsions:
REMARK  status: ('A' for Active; 'I' for Inactive)
REMARK    1  A    between atoms: N3_10  and  C7_12 
REMARK    2  A    between atoms: C7_12  and  C8_13 
REMARK    3  A    between atoms: C8_13  and  C9_14 
ROOT
HETATM    1  N1  UNL     1      17.983  -4.950  19.695  1.00  0.00    -0.191 NA
HETATM    2  C1  UNL     1      16.963  -4.761  20.245  1.00  0.00     0.103 C 
HETATM    3  C2  UNL     1      15.724  -4.513  20.927  1.00  0.00     0.088 A 
HETATM    4  C3  UNL     1      15.208  -3.240  21.057  1.00  0.00     0.028 A 
HETATM    5  C4  UNL     1      14.015  -3.084  21.725  1.00  0.00     0.019 A 
HETATM    6  C5  UNL     1      13.342  -4.157  22.255  1.00  0.00     0.090 A 
HETATM    7  N2  UNL     1      13.843  -5.392  22.128  1.00  0.00    -0.351 N 
ATOM      8  H2  UNL     1      13.344  -6.189  22.521  1.00  0.00     0.166 HD
HETATM    9  C6  UNL     1      15.001  -5.576  21.485  1.00  0.00     0.121 A 
HETATM   10  N3  UNL     1      15.542  -6.733  21.325  1.00  0.00    -0.375 N 
ATOM     11  H3  UNL     1      16.427  -6.813  20.824  1.00  0.00     0.161 HD
ENDROOT
BRANCH  10  12
HETATM   12  C7  UNL     1      14.908  -7.914  21.847  1.00  0.00     0.127 C 
BRANCH  12  13
HETATM   13  C8  UNL     1      15.822  -9.127  21.827  1.00  0.00     0.078 C 
BRANCH  13  14
HETATM   14  C9  UNL     1      16.940  -8.898  22.759  1.00  0.00     0.028 A 
HETATM   15  C10 UNL     1      16.833  -8.934  24.132  1.00  0.00     0.045 A 
HETATM   16  C11 UNL     1      18.098  -8.670  24.610  1.00  0.00     0.109 A 
HETATM   17  N4  UNL     1      18.873  -8.494  23.551  1.00  0.00    -0.312 N 
HETATM   18  N5  UNL     1      18.213  -8.624  22.423  1.00  0.00    -0.305 N 
ATOM     19  H4  UNL     1      19.869  -8.282  23.605  1.00  0.00     0.186 HD
ATOM     20  H5  UNL     1      18.590  -8.533  21.479  1.00  0.00     0.186 HD
ENDBRANCH  13  14
ENDBRANCH  12  13
ENDBRANCH  10  12
TORSDOF 3
ENDMDL
MODEL 4
REMARK VINA RESULT: -7.098316057      4.762      8.154
REMARK  3 active torsions:
REMARK  status: ('A' for Active; 'I' for Inactive)
REMARK    1  A    between atoms: N3_10  and  C7_12 
REMARK    2  A    between atoms: C7_12  and  C8_13 
REMARK    3  A    between atoms: C8_13  and  C9_14 
ROOT
HETATM    1  N1  UNL     1      12.536  -7.204  17.977  1.00  0.00    -0.191 NA
HETATM    2  C1  UNL     1      12.800  -6.740  19.024  1.00  0.00     0.103 C 
HETATM    3  C2  UNL     1      13.128  -6.155  20.293  1.00  0.00     0.088 A 
HETATM    4  C3  UNL     1      12.775  -4.860  20.610  1.00  0.00     0.028 A 
HETATM    5  C4  UNL     1      13.126  -4.371  21.847  1.00  0.00     0.019 A 
HETATM    6  C5  UNL     1      13.809  -5.140  22.757  1.00  0.00     0.090 A 
HETATM    7  N2  UNL     1      14.151  -6.397  22.449  1.00  0.00    -0.351 N 
ATOM      8  H2  UNL     1      14.658  -6.969  23.124  1.00  0.00     0.166 HD
HETATM    9  C6  UNL     1      13.826  -6.901  21.254  1.00  0.00     0.121 A 
HETATM   10  N3  UNL     1      14.121  -8.099  20.890  1.00  0.00    -0.375 N 
ATOM     11  H3  UNL     1      13.845  -8.430  19.965  1.00  0.00     0.161 HD
ENDROOT
BRANCH  10  12
HETATM   12  C7  UNL     1      14.836  -8.977  21.777  1.00  0.00     0.127 C 
BRANCH  12  13
HETATM   13  C8  UNL     1      16.299  -9.129  21.397  1.00  0.00     0.078 C 
BRANCH  13  14
HETATM   14  C9  UNL     1      17.132  -8.844  22.578  1.00  0.00     0.028 A 
HETATM   15  C10 UNL     1      16.687  -8.900  23.880  1.00  0.00     0.045 A 
HETATM   16  C11 UNL     1      17.775  -8.567  24.659  1.00  0.00     0.109 A 
HETATM   17  N4  UNL     1      18.777  -8.335  23.827  1.00  0.00    -0.312 N 
HETATM   18  N5  UNL     1      18.430  -8.492  22.570  1.00  0.00    -0.305 N 
ATOM     19  H4  UNL     1      19.714  -8.066  24.128  1.00  0.00     0.186 HD
ATOM     20  H5  UNL     1      19.026  -8.370  21.751  1.00  0.00     0.186 HD
ENDBRANCH  13  14
ENDBRANCH  12  13
ENDBRANCH  10  12
TORSDOF 3
ENDMDL
MODEL 5
REMARK VINA RESULT: -6.987128411      2.818      3.999
REMARK  3 active torsions:
REMARK  status: ('A' for Active; 'I' for Inactive)
REMARK    1  A    between atoms: N3_10  and  C7_12 
REMARK    2  A    between atoms: C7_12  and  C8_13 
REMARK    3  A    between atoms: C8_13  and  C9_14 
ROOT
HETATM    1  N1  UNL     1      13.173  -4.030  22.450  1.00  0.00    -0.191 NA
HETATM    2  C1  UNL     1      13.551  -5.134  22.311  1.00  0.00     0.103 C 
HETATM    3  C2  UNL     1      14.032  -6.477  22.151  1.00  0.00     0.088 A 
HETATM    4  C3  UNL     1      14.722  -7.126  23.154  1.00  0.00     0.028 A 
HETATM    5  C4  UNL     1      15.151  -8.413  22.924  1.00  0.00     0.019 A 
HETATM    6  C5  UNL     1      14.907  -9.051  21.733  1.00  0.00     0.090 A 
HETATM    7  N2  UNL     1      14.236  -8.420  20.760  1.00  0.00    -0.351 N 
ATOM      8  H2  UNL     1      14.053  -8.893  19.876  1.00  0.00     0.166 HD
HETATM    9  C6  UNL     1      13.807  -7.168  20.953  1.00  0.00     0.121 A 
HETATM   10  N3  UNL     1      13.158  -6.501  20.064  1.00  0.00    -0.375 N 
ATOM     11  H3  UNL     1      12.854  -5.549  20.268  1.00  0.00     0.161 HD
ENDROOT
BRANCH  10  12
HETATM   12  C7  UNL     1      12.856  -7.089  18.786  1.00  0.00     0.127 C 
BRANCH  12  13
HETATM   13  C8  UNL     1      12.864  -6.072  17.658  1.00  0.00     0.078 C 
BRANCH  13  14
HETATM   14  C9  UNL     1      11.492  -5.577  17.450  1.00  0.00     0.028 A 
HETATM   15  C10 UNL     1      10.955  -4.476  18.080  1.00  0.00     0.045 A 
HETATM   16  C11 UNL     1       9.665  -4.369  17.605  1.00  0.00     0.109 A 
HETATM   17  N4  UNL     1       9.494  -5.365  16.751  1.00  0.00    -0.312 N 
HETATM   18  N5  UNL     1      10.568  -6.112  16.632  1.00  0.00    -0.305 N 
ATOM     19  H4  UNL     1       8.626  -5.535  16.243  1.00  0.00     0.186 HD
ATOM     20  H5  UNL     1      10.680  -6.934  16.038  1.00  0.00     0.186 HD
ENDBRANCH  13  14
ENDBRANCH  12  13
ENDBRANCH  10  12
TORSDOF 3
ENDMDL
