MODEL 1
REMARK VINA RESULT: -7.396477584      0.000      0.000
REMARK  5 active torsions:
REMARK  status: ('A' for Active; 'I' for Inactive)
REMARK    1  A    between atoms: N1_1  and  C1_4 
REMARK    2  A    between atoms: C4_9  and  O1_10 
REMARK    3  A    between atoms: O1_10  and  C5_11 
REMARK    4  A    between atoms: C5_11  and  C6_12 
REMARK    5  A    between atoms: N3_18  and  O2_19 
ROOT
HETATM    1  C1  UNL     1      16.299  -7.741  19.524  1.00  0.00     0.704 A 
HETATM    2  N2  UNL     1      14.977  -7.786  19.286  1.00  0.00    -0.200 N 
ATOM      3  H2  UNL     1      14.655  -7.693  18.323  1.00  0.00     0.183 HD
HETATM    4  C2  UNL     1      14.056  -7.945  20.253  1.00  0.00     0.110 A 
HETATM    5  C3  UNL     1      14.494  -8.067  21.554  1.00  0.00     0.076 A 
HETATM    6  C4  UNL     1      15.855  -8.020  21.786  1.00  0.00     0.189 A 
HETATM    7  N3  UNL     1      16.730  -7.859  20.782  1.00  0.00    -0.029 N 
ENDROOT
BRANCH   6   8
HETATM    8  O1  UNL     1      16.364  -8.137  23.072  1.00  0.00    -0.329 OA
BRANCH   8   9
HETATM    9  C5  UNL     1      15.661  -8.837  24.078  1.00  0.00     0.216 C 
BRANCH   9  10
HETATM   10  C6  UNL     1      16.678  -9.379  25.044  1.00  0.00    -0.034 A 
HETATM   11  C7  UNL     1      16.314 -10.231  26.070  1.00  0.00     0.009 A 
HETATM   12  C8  UNL     1      17.211 -10.748  26.974  1.00  0.00     0.001 A 
HETATM   13  C9  UNL     1      18.544 -10.394  26.844  1.00  0.00     0.000 A 
HETATM   14  C10 UNL     1      18.944  -9.547  25.832  1.00  0.00     0.001 A 
HETATM   15  C11 UNL     1      18.017  -9.047  24.943  1.00  0.00     0.009 A 
ENDBRANCH   9  10
ENDBRANCH   8   9
ENDBRANCH   6   8
BRANCH   7  16
HETATM   16  O2  UNL     1      18.091  -7.816  21.056  1.00  0.00    -0.267 OA
ATOM     17  H2  UNL     1      18.579  -8.624  21.162  1.00  0.00     0.246 HD
ENDBRANCH   7  16
BRANCH   1  18
HETATM   18  N1  UNL     1      17.187  -7.589  18.601  1.00  0.00    -0.232 N 
ATOM     19  H12 UNL     1      16.886  -7.703  17.634  1.00  0.00     0.174 HD
ATOM     20  H11 UNL     1      18.165  -7.364  18.787  1.00  0.00     0.174 HD
ENDBRANCH   1  18
TORSDOF 5
ENDMDL
MODEL 2
REMARK VINA RESULT: -7.372394733      2.086      2.876
REMARK  5 active torsions:
REMARK  status: ('A' for Active; 'I' for Inactive)
REMARK    1  A    between atoms: N1_1  and  C1_4 
REMARK    2  A    between atoms: C4_9  and  O1_10 
REMARK    3  A    between atoms: O1_10  and  C5_11 
REMARK    4  A    between atoms: C5_11  and  C6_12 
REMARK    5  A    between atoms: N3_18  and  O2_19 
ROOT
HETATM    1  C1  UNL     1      13.571  -5.787  22.152  1.00  0.00     0.704 A 
HETATM    2  N2  UNL     1      13.250  -6.080  20.880  1.00  0.00    -0.200 N 
ATOM      3  H2  UNL     1      12.704  -5.400  20.349  1.00  0.00     0.183 HD
HETATM    4  C2  UNL     1      13.610  -7.223  20.270  1.00  0.00     0.110 A 
HETATM    5  C3  UNL     1      14.345  -8.140  20.990  1.00  0.00     0.076 A 
HETATM    6  C4  UNL     1      14.669  -7.827  22.296  1.00  0.00     0.189 A 
HETATM    7  N3  UNL     1      14.283  -6.671  22.854  1.00  0.00    -0.029 N 
ENDROOT
BRANCH   6   8
HETATM    8  O1  UNL     1      15.407  -8.705  23.077  1.00  0.00    -0.329 OA
BRANCH   8   9
HETATM    9  C5  UNL     1      16.803  -8.553  23.232  1.00  0.00     0.216 C 
BRANCH   9  10
HETATM   10  C6  UNL     1      17.181  -9.181  24.545  1.00  0.00    -0.034 A 
HETATM   11  C7  UNL     1      18.474  -9.112  25.030  1.00  0.00     0.009 A 
HETATM   12  C8  UNL     1      18.862  -9.673  26.225  1.00  0.00     0.001 A 
HETATM   13  C9  UNL     1      17.904 -10.335  26.974  1.00  0.00     0.000 A 
HETATM   14  C10 UNL     1      16.603 -10.422  26.523  1.00  0.00     0.001 A 
HETATM   15  C11 UNL     1      16.250  -9.849  25.320  1.00  0.00     0.009 A 
ENDBRANCH   9  10
ENDBRANCH   8   9
ENDBRANCH   6   8
BRANCH   7  16
HETATM   16  O2  UNL     1      14.628  -6.393  24.171  1.00  0.00    -0.267 OA
ATOM     17  H2  UNL     1      14.691  -5.492  24.464  1.00  0.00     0.246 HD
ENDBRANCH   7  16
BRANCH   1  18
HETATM   18  N1  UNL     1      13.229  -4.692  22.742  1.00  0.00    -0.232 N 
ATOM     19  H12 UNL     1      13.836  -3.882  22.622  1.00  0.00     0.174 HD
ATOM     20  H11 UNL     1      12.391  -4.597  23.316  1.00  0.00     0.174 HD
ENDBRANCH   1  18
TORSDOF 5
ENDMDL
MODEL 3
REMARK VINA RESULT: -7.292814396      3.200      6.272
REMARK  5 active torsions:
REMARK  status: ('A' for Active; 'I' for Inactive)
REMARK    1  A    between atoms: N1_1  and  C1_4 
REMARK    2  A    between atoms: C4_9  and  O1_10 
REMARK    3  A    between atoms: O1_10  and  C5_11 
REMARK    4  A    between atoms: C5_11  and  C6_12 
REMARK    5  A    between atoms: N3_18  and  O2_19 
ROOT
HETATM    1  C1  UNL     1      16.590  -8.844  21.356  1.00  0.00     0.704 A 
HETATM    2  N2  UNL     1      17.376  -8.736  22.442  1.00  0.00    -0.200 N 
ATOM      3  H2  UNL     1      18.270  -9.227  22.442  1.00  0.00     0.183 HD
HETATM    4  C2  UNL     1      17.044  -8.015  23.527  1.00  0.00     0.110 A 
HETATM    5  C3  UNL     1      15.834  -7.355  23.524  1.00  0.00     0.076 A 
HETATM    6  C4  UNL     1      15.035  -7.474  22.403  1.00  0.00     0.189 A 
HETATM    7  N3  UNL     1      15.416  -8.207  21.347  1.00  0.00    -0.029 N 
ENDROOT
BRANCH   6   8
HETATM    8  O1  UNL     1      13.805  -6.835  22.334  1.00  0.00    -0.329 OA
BRANCH   8   9
HETATM    9  C5  UNL     1      13.634  -5.517  22.814  1.00  0.00     0.216 C 
BRANCH   9  10
HETATM   10  C6  UNL     1      13.669  -4.597  21.625  1.00  0.00    -0.034 A 
HETATM   11  C7  UNL     1      14.411  -3.431  21.639  1.00  0.00     0.009 A 
HETATM   12  C8  UNL     1      14.469  -2.562  20.575  1.00  0.00     0.001 A 
HETATM   13  C9  UNL     1      13.748  -2.879  19.435  1.00  0.00     0.000 A 
HETATM   14  C10 UNL     1      12.997  -4.034  19.385  1.00  0.00     0.001 A 
HETATM   15  C11 UNL     1      12.960  -4.882  20.471  1.00  0.00     0.009 A 
ENDBRANCH   9  10
ENDBRANCH   8   9
ENDBRANCH   6   8
BRANCH   7  16
HETATM   16  O2  UNL     1      14.584  -8.303  20.239  1.00  0.00    -0.267 OA
ATOM     17  H2  UNL     1      14.415  -7.535  19.706  1.00  0.00     0.246 HD
ENDBRANCH   7  16
BRANCH   1  18
HETATM   18  N1  UNL     1      16.902  -9.534  20.313  1.00  0.00    -0.232 N 
ATOM     19  H12 UNL     1      17.678 -10.190  20.396  1.00  0.00     0.174 HD
ATOM     20  H11 UNL     1      16.419  -9.457  19.417  1.00  0.00     0.174 HD
ENDBRANCH   1  18
TORSDOF 5
ENDMDL
MODEL 4
REMARK VINA RESULT: -7.287907403      3.193      6.213
REMARK  5 active torsions:
REMARK  status: ('A' for Active; 'I' for Inactive)
REMARK    1  A    between atoms: N1_1  and  C1_4 
REMARK    2  A    between atoms: C4_9  and  O1_10 
REMARK    3  A    between atoms: O1_10  and  C5_11 
REMARK    4  A    between atoms: C5_11  and  C6_12 
REMARK    5  A    between atoms: N3_18  and  O2_19 
ROOT
HETATM    1  C1  UNL     1      16.588  -8.850  21.355  1.00  0.00     0.704 A 
HETATM    2  N2  UNL     1      17.365  -8.756  22.448  1.00  0.00    -0.200 N 
ATOM      3  H2  UNL     1      18.257  -9.251  22.452  1.00  0.00     0.183 HD
HETATM    4  C2  UNL     1      17.028  -8.044  23.538  1.00  0.00     0.110 A 
HETATM    5  C3  UNL     1      15.821  -7.378  23.530  1.00  0.00     0.076 A 
HETATM    6  C4  UNL     1      15.031  -7.483  22.402  1.00  0.00     0.189 A 
HETATM    7  N3  UNL     1      15.418  -8.208  21.342  1.00  0.00    -0.029 N 
ENDROOT
BRANCH   6   8
HETATM    8  O1  UNL     1      13.804  -6.838  22.328  1.00  0.00    -0.329 OA
BRANCH   8   9
HETATM    9  C5  UNL     1      13.638  -5.520  22.811  1.00  0.00     0.216 C 
BRANCH   9  10
HETATM   10  C6  UNL     1      13.675  -4.598  21.624  1.00  0.00    -0.034 A 
HETATM   11  C7  UNL     1      12.959  -4.874  20.474  1.00  0.00     0.009 A 
HETATM   12  C8  UNL     1      12.966  -4.058  19.367  1.00  0.00     0.001 A 
HETATM   13  C9  UNL     1      13.729  -2.903  19.415  1.00  0.00     0.000 A 
HETATM   14  C10 UNL     1      14.455  -2.594  20.546  1.00  0.00     0.001 A 
HETATM   15  C11 UNL     1      14.426  -3.435  21.637  1.00  0.00     0.009 A 
ENDBRANCH   9  10
ENDBRANCH   8   9
ENDBRANCH   6   8
BRANCH   7  16
HETATM   16  O2  UNL     1      14.595  -8.289  20.226  1.00  0.00    -0.267 OA
ATOM     17  H2  UNL     1      13.883  -8.917  20.207  1.00  0.00     0.246 HD
ENDBRANCH   7  16
BRANCH   1  18
HETATM   18  N1  UNL     1      16.906  -9.532  20.308  1.00  0.00    -0.232 N 
ATOM     19  H12 UNL     1      16.401 -10.401  20.139  1.00  0.00     0.174 HD
ATOM     20  H11 UNL     1      17.630  -9.249  19.647  1.00  0.00     0.174 HD
ENDBRANCH   1  18
TORSDOF 5
ENDMDL
MODEL 5
REMARK VINA RESULT: -7.276860306      1.687      2.063
REMARK  5 active torsions:
REMARK  status: ('A' for Active; 'I' for Inactive)
REMARK    1  A    between atoms: N1_1  and  C1_4 
REMARK    2  A    between atoms: C4_9  and  O1_10 
REMARK    3  A    between atoms: O1_10  and  C5_11 
REMARK    4  A    between atoms: C5_11  and  C6_12 
REMARK    5  A    between atoms: N3_18  and  O2_19 
ROOT
HETATM    1  C1  UNL     1      13.724  -7.126  20.584  1.00  0.00     0.704 A 
HETATM    2  N2  UNL     1      13.333  -5.915  21.017  1.00  0.00    -0.200 N 
ATOM      3  H2  UNL     1      12.698  -5.373  20.430  1.00  0.00     0.183 HD
HETATM    4  C2  UNL     1      13.735  -5.380  22.183  1.00  0.00     0.110 A 
HETATM    5  C3  UNL     1      14.595  -6.113  22.972  1.00  0.00     0.076 A 
HETATM    6  C4  UNL     1      14.990  -7.357  22.516  1.00  0.00     0.189 A 
HETATM    7  N3  UNL     1      14.556  -7.842  21.344  1.00  0.00    -0.029 N 
ENDROOT
BRANCH   6   8
HETATM    8  O1  UNL     1      15.853  -8.147  23.261  1.00  0.00    -0.329 OA
BRANCH   8   9
HETATM    9  C5  UNL     1      15.375  -8.983  24.296  1.00  0.00     0.216 C 
BRANCH   9  10
HETATM   10  C6  UNL     1      16.564  -9.429  25.100  1.00  0.00    -0.034 A 
HETATM   11  C7  UNL     1      16.419 -10.239  26.211  1.00  0.00     0.009 A 
HETATM   12  C8  UNL     1      17.479 -10.669  26.974  1.00  0.00     0.001 A 
HETATM   13  C9  UNL     1      18.752 -10.269  26.605  1.00  0.00     0.000 A 
HETATM   14  C10 UNL     1      18.936  -9.461  25.501  1.00  0.00     0.001 A 
HETATM   15  C11 UNL     1      17.850  -9.048  24.759  1.00  0.00     0.009 A 
ENDBRANCH   9  10
ENDBRANCH   8   9
ENDBRANCH   6   8
BRANCH   7  16
HETATM   16  O2  UNL     1      14.976  -9.096  20.920  1.00  0.00    -0.267 OA
ATOM     17  H2  UNL     1      15.164  -9.774  21.558  1.00  0.00     0.246 HD
ENDBRANCH   7  16
BRANCH   1  18
HETATM   18  N1  UNL     1      13.341  -7.645  19.467  1.00  0.00    -0.232 N 
ATOM     19  H12 UNL     1      13.488  -7.099  18.618  1.00  0.00     0.174 HD
ATOM     20  H11 UNL     1      12.902  -8.563  19.389  1.00  0.00     0.174 HD
ENDBRANCH   1  18
TORSDOF 5
ENDMDL
