MODEL 1
REMARK VINA RESULT: -7.472870078      0.000      0.000
REMARK  3 active torsions:
REMARK  status: ('A' for Active; 'I' for Inactive)
REMARK    1  A    between atoms: C3_4  and  C4_5 
REMARK    2  A    between atoms: C7_8  and  C8_9 
REMARK    3  A    between atoms: N2_10  and  N3_12 
ROOT
HETATM    1  N1  UNL     1      17.672  -5.230  19.851  1.00  0.00    -0.192 NA
HETATM    2  C1  UNL     1      16.981  -4.562  20.538  1.00  0.00     0.087 C 
HETATM    3  C2  UNL     1      16.206  -3.768  21.387  1.00  0.00     0.094 C 
HETATM    4  C3  UNL     1      15.025  -3.331  21.316  1.00  0.00     0.022 C 
ENDROOT
BRANCH   4   5
HETATM    5  C4  UNL     1      14.009  -3.490  20.307  1.00  0.00    -0.036 A 
HETATM    6  C5  UNL     1      13.080  -4.551  20.496  1.00  0.00     0.012 A 
HETATM    7  C6  UNL     1      12.107  -4.751  19.587  1.00  0.00     0.013 A 
HETATM    8  C7  UNL     1      11.938  -3.986  18.458  1.00  0.00    -0.019 A 
HETATM    9  C10 UNL     1      12.841  -2.969  18.290  1.00  0.00     0.013 A 
HETATM   10  C11 UNL     1      13.851  -2.720  19.183  1.00  0.00     0.012 A 
BRANCH   8  11
HETATM   11  C8  UNL     1      10.862  -4.256  17.512  1.00  0.00     0.118 C 
HETATM   12  N2  UNL     1       9.841  -4.903  17.930  1.00  0.00    -0.309 N 
ATOM     13  H2  UNL     1       9.800  -5.213  18.901  1.00  0.00     0.186 HD
BRANCH  12  14
HETATM   14  N3  UNL     1       8.783  -5.187  17.065  1.00  0.00    -0.276 N 
HETATM   15  C9  UNL     1       7.714  -4.468  17.103  1.00  0.00     0.215 C 
HETATM   16  N4  UNL     1       7.598  -3.384  18.019  1.00  0.00    -0.065 NA
HETATM   17  N5  UNL     1       6.618  -4.727  16.240  1.00  0.00    -0.065 NA
ATOM     18  H3  UNL     1       8.855  -5.961  16.404  1.00  0.00     0.189 HD
ENDBRANCH  12  14
ENDBRANCH   8  11
ENDBRANCH   4   5
TORSDOF 3
ENDMDL
MODEL 2
REMARK VINA RESULT: -7.398354557      3.666      4.495
REMARK  3 active torsions:
REMARK  status: ('A' for Active; 'I' for Inactive)
REMARK    1  A    between atoms: C3_4  and  C4_5 
REMARK    2  A    between atoms: C7_8  and  C8_9 
REMARK    3  A    between atoms: N2_10  and  N3_12 
ROOT
HETATM    1  N1  UNL     1      18.580  -8.390  23.508  1.00  0.00    -0.192 NA
HETATM    2  C1  UNL     1      17.477  -8.685  23.808  1.00  0.00     0.087 C 
HETATM    3  C2  UNL     1      16.191  -9.065  24.203  1.00  0.00     0.094 C 
HETATM    4  C3  UNL     1      15.040  -8.792  23.765  1.00  0.00     0.022 C 
ENDROOT
BRANCH   4   5
HETATM    5  C4  UNL     1      14.610  -7.965  22.667  1.00  0.00    -0.036 A 
HETATM    6  C5  UNL     1      14.419  -8.613  21.415  1.00  0.00     0.012 A 
HETATM    7  C6  UNL     1      14.017  -7.894  20.350  1.00  0.00     0.013 A 
HETATM    8  C7  UNL     1      13.771  -6.542  20.381  1.00  0.00    -0.019 A 
HETATM    9  C10 UNL     1      13.960  -5.933  21.594  1.00  0.00     0.013 A 
HETATM   10  C11 UNL     1      14.367  -6.616  22.711  1.00  0.00     0.012 A 
BRANCH   8  11
HETATM   11  C8  UNL     1      13.338  -5.821  19.191  1.00  0.00     0.118 C 
HETATM   12  N2  UNL     1      12.785  -4.678  19.348  1.00  0.00    -0.309 N 
ATOM     13  H2  UNL     1      12.659  -4.299  20.287  1.00  0.00     0.186 HD
BRANCH  12  14
HETATM   14  N3  UNL     1      12.353  -3.945  18.240  1.00  0.00    -0.276 N 
HETATM   15  C9  UNL     1      11.091  -3.834  17.999  1.00  0.00     0.215 C 
HETATM   16  N4  UNL     1      10.130  -4.449  18.850  1.00  0.00    -0.065 NA
HETATM   17  N5  UNL     1      10.615  -3.098  16.884  1.00  0.00    -0.065 NA
ATOM     18  H3  UNL     1      13.032  -3.500  17.624  1.00  0.00     0.189 HD
ENDBRANCH  12  14
ENDBRANCH   8  11
ENDBRANCH   4   5
TORSDOF 3
ENDMDL
MODEL 3
REMARK VINA RESULT: -7.390519166      3.747      7.757
REMARK  3 active torsions:
REMARK  status: ('A' for Active; 'I' for Inactive)
REMARK    1  A    between atoms: C3_4  and  C4_5 
REMARK    2  A    between atoms: C7_8  and  C8_9 
REMARK    3  A    between atoms: N2_10  and  N3_12 
ROOT
HETATM    1  N1  UNL     1      12.252  -3.669  17.513  1.00  0.00    -0.192 NA
HETATM    2  C1  UNL     1      12.922  -2.974  18.192  1.00  0.00     0.087 C 
HETATM    3  C2  UNL     1      13.706  -2.110  18.962  1.00  0.00     0.094 C 
HETATM    4  C3  UNL     1      14.361  -2.263  20.029  1.00  0.00     0.022 C 
ENDROOT
BRANCH   4   5
HETATM    5  C4  UNL     1      14.551  -3.414  20.874  1.00  0.00    -0.036 A 
HETATM    6  C5  UNL     1      13.430  -3.836  21.641  1.00  0.00     0.012 A 
HETATM    7  C6  UNL     1      13.544  -4.907  22.450  1.00  0.00     0.013 A 
HETATM    8  C7  UNL     1      14.695  -5.643  22.596  1.00  0.00    -0.019 A 
HETATM    9  C10 UNL     1      15.766  -5.223  21.851  1.00  0.00     0.013 A 
HETATM   10  C11 UNL     1      15.705  -4.141  21.011  1.00  0.00     0.012 A 
BRANCH   8  11
HETATM   11  C8  UNL     1      14.754  -6.792  23.491  1.00  0.00     0.118 C 
HETATM   12  N2  UNL     1      15.717  -7.621  23.343  1.00  0.00    -0.309 N 
ATOM     13  H2  UNL     1      16.413  -7.466  22.614  1.00  0.00     0.186 HD
BRANCH  12  14
HETATM   14  N3  UNL     1      15.820  -8.738  24.174  1.00  0.00    -0.276 N 
HETATM   15  C9  UNL     1      16.919  -8.966  24.808  1.00  0.00     0.215 C 
HETATM   16  N4  UNL     1      18.033  -8.090  24.671  1.00  0.00    -0.065 NA
HETATM   17  N5  UNL     1      17.061 -10.090  25.660  1.00  0.00    -0.065 NA
ATOM     18  H3  UNL     1      15.028  -9.372  24.280  1.00  0.00     0.189 HD
ENDBRANCH  12  14
ENDBRANCH   8  11
ENDBRANCH   4   5
TORSDOF 3
ENDMDL
MODEL 4
REMARK VINA RESULT: -7.375962901      0.132      1.183
REMARK  3 active torsions:
REMARK  status: ('A' for Active; 'I' for Inactive)
REMARK    1  A    between atoms: C3_4  and  C4_5 
REMARK    2  A    between atoms: C7_8  and  C8_9 
REMARK    3  A    between atoms: N2_10  and  N3_12 
ROOT
HETATM    1  N1  UNL     1      17.677  -5.324  19.856  1.00  0.00    -0.192 NA
HETATM    2  C1  UNL     1      17.010  -4.615  20.524  1.00  0.00     0.087 C 
HETATM    3  C2  UNL     1      16.265  -3.766  21.347  1.00  0.00     0.094 C 
HETATM    4  C3  UNL     1      15.061  -3.389  21.328  1.00  0.00     0.022 C 
ENDROOT
BRANCH   4   5
HETATM    5  C4  UNL     1      13.980  -3.698  20.429  1.00  0.00    -0.036 A 
HETATM    6  C5  UNL     1      13.833  -2.857  19.291  1.00  0.00     0.012 A 
HETATM    7  C6  UNL     1      12.840  -3.095  18.413  1.00  0.00     0.013 A 
HETATM    8  C7  UNL     1      11.931  -4.118  18.536  1.00  0.00    -0.019 A 
HETATM    9  C10 UNL     1      12.085  -4.919  19.638  1.00  0.00     0.013 A 
HETATM   10  C11 UNL     1      13.078  -4.723  20.563  1.00  0.00     0.012 A 
BRANCH   8  11
HETATM   11  C8  UNL     1      10.877  -4.322  17.550  1.00  0.00     0.118 C 
HETATM   12  N2  UNL     1       9.811  -4.921  17.924  1.00  0.00    -0.309 N 
ATOM     13  H2  UNL     1       9.719  -5.240  18.889  1.00  0.00     0.186 HD
BRANCH  12  14
HETATM   14  N3  UNL     1       8.770  -5.141  17.019  1.00  0.00    -0.276 N 
HETATM   15  C9  UNL     1       7.720  -4.395  17.057  1.00  0.00     0.215 C 
HETATM   16  N4  UNL     1       7.606  -3.346  18.013  1.00  0.00    -0.065 NA
HETATM   17  N5  UNL     1       6.643  -4.588  16.154  1.00  0.00    -0.065 NA
ATOM     18  H3  UNL     1       8.842  -5.889  16.329  1.00  0.00     0.189 HD
ENDBRANCH  12  14
ENDBRANCH   8  11
ENDBRANCH   4   5
TORSDOF 3
ENDMDL
MODEL 5
REMARK VINA RESULT: -7.303876149      4.147      7.940
REMARK  3 active torsions:
REMARK  status: ('A' for Active; 'I' for Inactive)
REMARK    1  A    between atoms: C3_4  and  C4_5 
REMARK    2  A    between atoms: C7_8  and  C8_9 
REMARK    3  A    between atoms: N2_10  and  N3_12 
ROOT
HETATM    1  N1  UNL     1       9.485  -4.859  18.332  1.00  0.00    -0.192 NA
HETATM    2  C1  UNL     1      10.594  -4.453  18.345  1.00  0.00     0.087 C 
HETATM    3  C2  UNL     1      11.890  -3.930  18.328  1.00  0.00     0.094 C 
HETATM    4  C3  UNL     1      12.976  -4.305  18.848  1.00  0.00     0.022 C 
ENDROOT
BRANCH   4   5
HETATM    5  C4  UNL     1      13.294  -5.441  19.674  1.00  0.00    -0.036 A 
HETATM    6  C5  UNL     1      13.567  -5.179  21.045  1.00  0.00     0.012 A 
HETATM    7  C6  UNL     1      13.871  -6.201  21.869  1.00  0.00     0.013 A 
HETATM    8  C7  UNL     1      13.940  -7.515  21.474  1.00  0.00    -0.019 A 
HETATM    9  C10 UNL     1      13.676  -7.751  20.150  1.00  0.00     0.013 A 
HETATM   10  C11 UNL     1      13.361  -6.749  19.268  1.00  0.00     0.012 A 
BRANCH   8  11
HETATM   11  C8  UNL     1      14.276  -8.575  22.416  1.00  0.00     0.118 C 
HETATM   12  N2  UNL     1      14.613  -8.240  23.603  1.00  0.00    -0.309 N 
ATOM     13  H2  UNL     1      14.641  -7.254  23.864  1.00  0.00     0.186 HD
BRANCH  12  14
HETATM   14  N3  UNL     1      14.944  -9.216  24.545  1.00  0.00    -0.276 N 
HETATM   15  C9  UNL     1      16.151  -9.293  24.990  1.00  0.00     0.215 C 
HETATM   16  N4  UNL     1      17.155  -8.393  24.534  1.00  0.00    -0.065 NA
HETATM   17  N5  UNL     1      16.524 -10.272  25.947  1.00  0.00    -0.065 NA
ATOM     18  H3  UNL     1      14.233  -9.866  24.880  1.00  0.00     0.189 HD
ENDBRANCH  12  14
ENDBRANCH   8  11
ENDBRANCH   4   5
TORSDOF 3
ENDMDL
