MODEL 1
REMARK VINA RESULT: -6.665198683      0.000      0.000
REMARK  5 active torsions:
REMARK  status: ('A' for Active; 'I' for Inactive)
REMARK    1  A    between atoms: C1_1  and  C6_10 
REMARK    2  A    between atoms: C2_2  and  C3_3 
REMARK    3  A    between atoms: C6_10  and  N3_11 
REMARK    4  A    between atoms: N3_11  and  C7_14 
REMARK    5  A    between atoms: C7_14  and  C8_15 
ROOT
HETATM    1  N3  UNL     1      13.978  -7.962  22.479  1.00  0.00    -0.061 N 
ATOM      2  H31 UNL     1      13.674  -8.683  23.133  1.00  0.00     0.278 HD
ATOM      3  H32 UNL     1      13.090  -7.464  22.410  1.00  0.00     0.278 HD
ENDROOT
BRANCH   1   4
HETATM    4  C6  UNL     1      14.423  -8.493  21.223  1.00  0.00     0.326 C 
BRANCH   4   5
HETATM    5  C1  UNL     1      13.636  -7.863  20.162  1.00  0.00    -0.072 C 
HETATM    6  C2  UNL     1      12.973  -7.329  19.294  1.00  0.00    -0.046 C 
BRANCH   6   7
HETATM    7  C3  UNL     1      12.180  -6.681  18.284  1.00  0.00     0.102 A 
HETATM    8  C4  UNL     1      11.649  -5.394  18.324  1.00  0.00     0.059 A 
HETATM    9  C5  UNL     1      10.951  -5.154  17.152  1.00  0.00     0.110 A 
HETATM   10  N1  UNL     1      11.070  -6.283  16.431  1.00  0.00    -0.311 N 
HETATM   11  N2  UNL     1      11.793  -7.176  17.100  1.00  0.00    -0.293 N 
ATOM     12  H1  UNL     1      10.665  -6.433  15.507  1.00  0.00     0.186 HD
ATOM     13  H2  UNL     1      12.021  -8.110  16.759  1.00  0.00     0.187 HD
ENDBRANCH   6   7
ENDBRANCH   4   5
ENDBRANCH   1   4
BRANCH   1  14
HETATM   14  C7  UNL     1      15.066  -7.127  23.008  1.00  0.00     0.273 C 
BRANCH  14  15
HETATM   15  C8  UNL     1      14.786  -5.747  22.497  1.00  0.00    -0.017 A 
HETATM   16  C9  UNL     1      13.544  -5.180  22.626  1.00  0.00     0.011 A 
HETATM   17  C10 UNL     1      13.351  -3.906  22.134  1.00  0.00     0.018 A 
HETATM   18  C11 UNL     1      14.397  -3.239  21.532  1.00  0.00     0.087 A 
HETATM   19  N4  UNL     1      15.593  -3.838  21.431  1.00  0.00    -0.375 N 
HETATM   20  C12 UNL     1      15.830  -5.077  21.895  1.00  0.00     0.096 A 
ATOM     21  H4  UNL     1      16.356  -3.331  20.982  1.00  0.00     0.164 HD
ENDBRANCH  14  15
ENDBRANCH   1  14
TORSDOF 5
ENDMDL
MODEL 2
REMARK VINA RESULT: -6.610936482      3.404      6.919
REMARK  5 active torsions:
REMARK  status: ('A' for Active; 'I' for Inactive)
REMARK    1  A    between atoms: C1_1  and  C6_10 
REMARK    2  A    between atoms: C2_2  and  C3_3 
REMARK    3  A    between atoms: C6_10  and  N3_11 
REMARK    4  A    between atoms: N3_11  and  C7_14 
REMARK    5  A    between atoms: C7_14  and  C8_15 
ROOT
HETATM    1  N3  UNL     1      13.970  -7.258  22.845  1.00  0.00    -0.061 N 
ATOM      2  H31 UNL     1      13.427  -7.570  23.650  1.00  0.00     0.278 HD
ATOM      3  H32 UNL     1      13.184  -7.015  22.242  1.00  0.00     0.278 HD
ENDROOT
BRANCH   1   4
HETATM    4  C6  UNL     1      14.802  -8.289  22.294  1.00  0.00     0.326 C 
BRANCH   4   5
HETATM    5  C1  UNL     1      15.753  -8.701  23.328  1.00  0.00    -0.072 C 
HETATM    6  C2  UNL     1      16.558  -9.040  24.174  1.00  0.00    -0.046 C 
BRANCH   6   7
HETATM    7  C3  UNL     1      17.528  -9.432  25.161  1.00  0.00     0.102 A 
HETATM    8  C4  UNL     1      17.316 -10.230  26.284  1.00  0.00     0.059 A 
HETATM    9  C5  UNL     1      18.508 -10.367  26.974  1.00  0.00     0.110 A 
HETATM   10  N1  UNL     1      19.410  -9.661  26.269  1.00  0.00    -0.311 N 
HETATM   11  N2  UNL     1      18.830  -9.115  25.206  1.00  0.00    -0.293 N 
ATOM     12  H1  UNL     1      20.395  -9.560  26.514  1.00  0.00     0.186 HD
ATOM     13  H2  UNL     1      19.308  -8.533  24.518  1.00  0.00     0.187 HD
ENDBRANCH   6   7
ENDBRANCH   4   5
ENDBRANCH   1   4
BRANCH   1  14
HETATM   14  C7  UNL     1      14.839  -6.112  23.146  1.00  0.00     0.273 C 
BRANCH  14  15
HETATM   15  C8  UNL     1      14.521  -5.090  22.097  1.00  0.00    -0.017 A 
HETATM   16  C9  UNL     1      15.444  -4.149  21.720  1.00  0.00     0.011 A 
HETATM   17  C10 UNL     1      15.089  -3.236  20.749  1.00  0.00     0.018 A 
HETATM   18  C11 UNL     1      13.831  -3.290  20.186  1.00  0.00     0.087 A 
HETATM   19  N4  UNL     1      12.965  -4.231  20.590  1.00  0.00    -0.375 N 
HETATM   20  C12 UNL     1      13.265  -5.141  21.532  1.00  0.00     0.096 A 
ATOM     21  H4  UNL     1      12.039  -4.256  20.164  1.00  0.00     0.164 HD
ENDBRANCH  14  15
ENDBRANCH   1  14
TORSDOF 5
ENDMDL
MODEL 3
REMARK VINA RESULT: -6.545185041      3.366      5.357
REMARK  5 active torsions:
REMARK  status: ('A' for Active; 'I' for Inactive)
REMARK    1  A    between atoms: C1_1  and  C6_10 
REMARK    2  A    between atoms: C2_2  and  C3_3 
REMARK    3  A    between atoms: C6_10  and  N3_11 
REMARK    4  A    between atoms: N3_11  and  C7_14 
REMARK    5  A    between atoms: C7_14  and  C8_15 
ROOT
HETATM    1  N3  UNL     1      14.959  -8.744  23.804  1.00  0.00    -0.061 N 
ATOM      2  H31 UNL     1      14.796  -9.581  24.362  1.00  0.00     0.278 HD
ATOM      3  H32 UNL     1      14.520  -8.075  24.437  1.00  0.00     0.278 HD
ENDROOT
BRANCH   1   4
HETATM    4  C6  UNL     1      14.328  -8.796  22.516  1.00  0.00     0.326 C 
BRANCH   4   5
HETATM    5  C1  UNL     1      14.227  -7.426  22.008  1.00  0.00    -0.072 C 
HETATM    6  C2  UNL     1      14.155  -6.294  21.571  1.00  0.00    -0.046 C 
BRANCH   6   7
HETATM    7  C3  UNL     1      14.081  -4.962  21.033  1.00  0.00     0.102 A 
HETATM    8  C4  UNL     1      14.674  -3.810  21.544  1.00  0.00     0.059 A 
HETATM    9  C5  UNL     1      14.358  -2.736  20.729  1.00  0.00     0.110 A 
HETATM   10  N1  UNL     1      13.590  -3.248  19.751  1.00  0.00    -0.311 N 
HETATM   11  N2  UNL     1      13.431  -4.555  19.933  1.00  0.00    -0.293 N 
ATOM     12  H1  UNL     1      13.189  -2.712  18.981  1.00  0.00     0.186 HD
ATOM     13  H2  UNL     1      12.888  -5.164  19.321  1.00  0.00     0.187 HD
ENDBRANCH   6   7
ENDBRANCH   4   5
ENDBRANCH   1   4
BRANCH   1  14
HETATM   14  C7  UNL     1      16.386  -8.471  23.578  1.00  0.00     0.273 C 
BRANCH  14  15
HETATM   15  C8  UNL     1      17.098  -9.144  24.712  1.00  0.00    -0.017 A 
HETATM   16  C9  UNL     1      16.417  -9.913  25.620  1.00  0.00     0.011 A 
HETATM   17  C10 UNL     1      17.130 -10.505  26.642  1.00  0.00     0.018 A 
HETATM   18  C11 UNL     1      18.494 -10.314  26.725  1.00  0.00     0.087 A 
HETATM   19  N4  UNL     1      19.112  -9.552  25.810  1.00  0.00    -0.375 N 
HETATM   20  C12 UNL     1      18.461  -8.955  24.798  1.00  0.00     0.096 A 
ATOM     21  H4  UNL     1      20.120  -9.420  25.886  1.00  0.00     0.164 HD
ENDBRANCH  14  15
ENDBRANCH   1  14
TORSDOF 5
ENDMDL
MODEL 4
REMARK VINA RESULT: -6.532989842      3.191      4.713
REMARK  5 active torsions:
REMARK  status: ('A' for Active; 'I' for Inactive)
REMARK    1  A    between atoms: C1_1  and  C6_10 
REMARK    2  A    between atoms: C2_2  and  C3_3 
REMARK    3  A    between atoms: C6_10  and  N3_11 
REMARK    4  A    between atoms: N3_11  and  C7_14 
REMARK    5  A    between atoms: C7_14  and  C8_15 
ROOT
HETATM    1  N3  UNL     1      14.838  -7.883  23.937  1.00  0.00    -0.061 N 
ATOM      2  H31 UNL     1      13.894  -8.202  23.721  1.00  0.00     0.278 HD
ATOM      3  H32 UNL     1      14.800  -8.031  24.945  1.00  0.00     0.278 HD
ENDROOT
BRANCH   1   4
HETATM    4  C6  UNL     1      15.064  -6.513  23.578  1.00  0.00     0.326 C 
BRANCH   4   5
HETATM    5  C1  UNL     1      14.286  -6.229  22.370  1.00  0.00    -0.072 C 
HETATM    6  C2  UNL     1      13.639  -6.012  21.364  1.00  0.00    -0.046 C 
BRANCH   6   7
HETATM    7  C3  UNL     1      12.867  -5.780  20.172  1.00  0.00     0.102 A 
HETATM    8  C4  UNL     1      12.679  -6.654  19.104  1.00  0.00     0.059 A 
HETATM    9  C5  UNL     1      11.869  -6.047  18.159  1.00  0.00     0.110 A 
HETATM   10  N1  UNL     1      11.584  -4.833  18.663  1.00  0.00    -0.311 N 
HETATM   11  N2  UNL     1      12.172  -4.682  19.845  1.00  0.00    -0.293 N 
ATOM     12  H1  UNL     1      11.002  -4.132  18.205  1.00  0.00     0.186 HD
ATOM     13  H2  UNL     1      12.104  -3.844  20.423  1.00  0.00     0.187 HD
ENDBRANCH   6   7
ENDBRANCH   4   5
ENDBRANCH   1   4
BRANCH   1  14
HETATM   14  C7  UNL     1      15.880  -8.683  23.276  1.00  0.00     0.273 C 
BRANCH  14  15
HETATM   15  C8  UNL     1      16.789  -9.131  24.380  1.00  0.00    -0.017 A 
HETATM   16  C9  UNL     1      16.310  -9.841  25.450  1.00  0.00     0.011 A 
HETATM   17  C10 UNL     1      17.198 -10.224  26.434  1.00  0.00     0.018 A 
HETATM   18  C11 UNL     1      18.531  -9.889  26.320  1.00  0.00     0.087 A 
HETATM   19  N4  UNL     1      18.949  -9.193  25.252  1.00  0.00    -0.375 N 
HETATM   20  C12 UNL     1      18.122  -8.798  24.269  1.00  0.00     0.096 A 
ATOM     21  H4  UNL     1      19.938  -8.953  25.184  1.00  0.00     0.164 HD
ENDBRANCH  14  15
ENDBRANCH   1  14
TORSDOF 5
ENDMDL
MODEL 5
REMARK VINA RESULT: -6.470512392      3.036      4.483
REMARK  5 active torsions:
REMARK  status: ('A' for Active; 'I' for Inactive)
REMARK    1  A    between atoms: C1_1  and  C6_10 
REMARK    2  A    between atoms: C2_2  and  C3_3 
REMARK    3  A    between atoms: C6_10  and  N3_11 
REMARK    4  A    between atoms: N3_11  and  C7_14 
REMARK    5  A    between atoms: C7_14  and  C8_15 
ROOT
HETATM    1  N3  UNL     1      16.023  -8.290  22.608  1.00  0.00    -0.061 N 
ATOM      2  H31 UNL     1      15.899  -7.291  22.442  1.00  0.00     0.278 HD
ATOM      3  H32 UNL     1      17.043  -8.296  22.618  1.00  0.00     0.278 HD
ENDROOT
BRANCH   1   4
HETATM    4  C6  UNL     1      15.467  -9.106  21.568  1.00  0.00     0.326 C 
BRANCH   4   5
HETATM    5  C1  UNL     1      14.548  -8.277  20.786  1.00  0.00    -0.072 C 
HETATM    6  C2  UNL     1      13.772  -7.603  20.136  1.00  0.00    -0.046 C 
BRANCH   6   7
HETATM    7  C3  UNL     1      12.837  -6.823  19.370  1.00  0.00     0.102 A 
HETATM    8  C4  UNL     1      12.544  -5.469  19.520  1.00  0.00     0.059 A 
HETATM    9  C5  UNL     1      11.589  -5.106  18.586  1.00  0.00     0.110 A 
HETATM   10  N1  UNL     1      11.323  -6.228  17.895  1.00  0.00    -0.311 N 
HETATM   11  N2  UNL     1      12.058  -7.234  18.359  1.00  0.00    -0.293 N 
ATOM     12  H1  UNL     1      10.655  -6.298  17.127  1.00  0.00     0.186 HD
ATOM     13  H2  UNL     1      12.034  -8.186  17.996  1.00  0.00     0.187 HD
ENDBRANCH   6   7
ENDBRANCH   4   5
ENDBRANCH   1   4
BRANCH   1  14
HETATM   14  C7  UNL     1      15.432  -8.740  23.876  1.00  0.00     0.273 C 
BRANCH  14  15
HETATM   15  C8  UNL     1      16.594  -9.162  24.723  1.00  0.00    -0.017 A 
HETATM   16  C9  UNL     1      16.423  -9.999  25.796  1.00  0.00     0.011 A 
HETATM   17  C10 UNL     1      17.532 -10.351  26.536  1.00  0.00     0.018 A 
HETATM   18  C11 UNL     1      18.773  -9.860  26.184  1.00  0.00     0.087 A 
HETATM   19  N4  UNL     1      18.887  -9.045  25.125  1.00  0.00    -0.375 N 
HETATM   20  C12 UNL     1      17.835  -8.675  24.375  1.00  0.00     0.096 A 
ATOM     21  H4  UNL     1      19.810  -8.691  24.879  1.00  0.00     0.164 HD
ENDBRANCH  14  15
ENDBRANCH   1  14
TORSDOF 5
ENDMDL
