MODEL 1
REMARK VINA RESULT: -6.560352714      0.000      0.000
REMARK  4 active torsions:
REMARK  status: ('A' for Active; 'I' for Inactive)
REMARK    1  A    between atoms: C2_2  and  C3_3 
REMARK    2  A    between atoms: C3_3  and  C4_4 
REMARK    3  A    between atoms: C4_4  and  N1_5 
REMARK    4  A    between atoms: N1_5  and  C5_7 
ROOT
HETATM    1  C5  UNL     1      13.789  -5.784  22.490  1.00  0.00     0.117 A 
HETATM    2  N2  UNL     1      14.489  -6.134  23.590  1.00  0.00    -0.338 N 
ATOM      3  H2  UNL     1      14.498  -5.525  24.408  1.00  0.00     0.168 HD
HETATM    4  C6  UNL     1      15.174  -7.291  23.598  1.00  0.00     0.183 A 
HETATM    5  N3  UNL     1      15.183  -8.126  22.523  1.00  0.00    -0.338 N 
ATOM      6  H3  UNL     1      15.713  -8.996  22.564  1.00  0.00     0.168 HD
HETATM    7  C7  UNL     1      14.495  -7.813  21.405  1.00  0.00     0.121 A 
HETATM    8  N4  UNL     1      14.326  -8.429  20.224  1.00  0.00    -0.350 N 
ATOM      9  H4  UNL     1      14.740  -9.326  19.971  1.00  0.00     0.166 HD
HETATM   10  C8  UNL     1      13.530  -7.693  19.419  1.00  0.00     0.113 A 
HETATM   11  C9  UNL     1      13.185  -6.562  20.130  1.00  0.00     0.077 A 
HETATM   12  C10 UNL     1      12.350  -5.478  19.690  1.00  0.00     0.102 C 
HETATM   13  N5  UNL     1      11.665  -4.604  19.315  1.00  0.00    -0.191 NA
HETATM   14  C11 UNL     1      13.785  -6.630  21.373  1.00  0.00     0.074 A 
ENDROOT
BRANCH   1  15
HETATM   15  N1  UNL     1      13.119  -4.720  22.391  1.00  0.00    -0.375 N 
ATOM     16  H1  UNL     1      12.108  -4.829  22.454  1.00  0.00     0.161 HD
BRANCH  15  17
HETATM   17  C4  UNL     1      13.582  -3.395  22.205  1.00  0.00     0.125 C 
BRANCH  17  18
HETATM   18  C3  UNL     1      14.962  -3.324  21.629  1.00  0.00     0.046 C 
BRANCH  18  19
HETATM   19  C2  UNL     1      15.007  -2.903  20.217  1.00  0.00    -0.035 C 
HETATM   20  C1  UNL     1      14.122  -2.126  19.641  1.00  0.00     0.007 C 
ENDBRANCH  18  19
ENDBRANCH  17  18
ENDBRANCH  15  17
ENDBRANCH   1  15
TORSDOF 4
ENDMDL
MODEL 2
REMARK VINA RESULT: -6.543150536      1.194      3.337
REMARK  4 active torsions:
REMARK  status: ('A' for Active; 'I' for Inactive)
REMARK    1  A    between atoms: C2_2  and  C3_3 
REMARK    2  A    between atoms: C3_3  and  C4_4 
REMARK    3  A    between atoms: C4_4  and  N1_5 
REMARK    4  A    between atoms: N1_5  and  C5_7 
ROOT
HETATM    1  C5  UNL     1      12.919  -4.948  20.771  1.00  0.00     0.117 A 
HETATM    2  N2  UNL     1      12.199  -4.417  19.759  1.00  0.00    -0.338 N 
ATOM      3  H2  UNL     1      11.866  -3.455  19.815  1.00  0.00     0.168 HD
HETATM    4  C6  UNL     1      11.925  -5.168  18.679  1.00  0.00     0.183 A 
HETATM    5  N3  UNL     1      12.354  -6.455  18.572  1.00  0.00    -0.338 N 
ATOM      6  H3  UNL     1      12.127  -6.996  17.738  1.00  0.00     0.168 HD
HETATM    7  C7  UNL     1      13.076  -7.022  19.561  1.00  0.00     0.121 A 
HETATM    8  N4  UNL     1      13.619  -8.239  19.726  1.00  0.00    -0.350 N 
ATOM      9  H4  UNL     1      13.558  -9.000  19.049  1.00  0.00     0.166 HD
HETATM   10  C8  UNL     1      14.258  -8.313  20.913  1.00  0.00     0.113 A 
HETATM   11  C9  UNL     1      14.109  -7.083  21.520  1.00  0.00     0.077 A 
HETATM   12  C10 UNL     1      14.617  -6.679  22.802  1.00  0.00     0.102 C 
HETATM   13  N5  UNL     1      15.040  -6.365  23.850  1.00  0.00    -0.191 NA
HETATM   14  C11 UNL     1      13.371  -6.271  20.681  1.00  0.00     0.074 A 
ENDROOT
BRANCH   1  15
HETATM   15  N1  UNL     1      13.223  -4.320  21.821  1.00  0.00    -0.375 N 
ATOM     16  H1  UNL     1      12.844  -4.701  22.688  1.00  0.00     0.161 HD
BRANCH  15  17
HETATM   17  C4  UNL     1      14.022  -3.159  21.960  1.00  0.00     0.125 C 
BRANCH  17  18
HETATM   18  C3  UNL     1      15.097  -3.052  20.924  1.00  0.00     0.046 C 
BRANCH  18  19
HETATM   19  C2  UNL     1      16.335  -3.779  21.258  1.00  0.00    -0.035 C 
HETATM   20  C1  UNL     1      16.868  -4.724  20.522  1.00  0.00     0.007 C 
ENDBRANCH  18  19
ENDBRANCH  17  18
ENDBRANCH  15  17
ENDBRANCH   1  15
TORSDOF 4
ENDMDL
MODEL 3
REMARK VINA RESULT: -6.447703776      2.602      3.867
REMARK  4 active torsions:
REMARK  status: ('A' for Active; 'I' for Inactive)
REMARK    1  A    between atoms: C2_2  and  C3_3 
REMARK    2  A    between atoms: C3_3  and  C4_4 
REMARK    3  A    between atoms: C4_4  and  N1_5 
REMARK    4  A    between atoms: N1_5  and  C5_7 
ROOT
HETATM    1  C5  UNL     1      16.829  -5.605  20.586  1.00  0.00     0.117 A 
HETATM    2  N2  UNL     1      17.424  -5.196  19.445  1.00  0.00    -0.338 N 
ATOM      3  H2  UNL     1      17.597  -4.204  19.283  1.00  0.00     0.168 HD
HETATM    4  C6  UNL     1      17.786  -6.107  18.524  1.00  0.00     0.183 A 
HETATM    5  N3  UNL     1      17.570  -7.438  18.709  1.00  0.00    -0.338 N 
ATOM      6  H3  UNL     1      17.858  -8.101  17.989  1.00  0.00     0.168 HD
HETATM    7  C7  UNL     1      16.980  -7.888  19.836  1.00  0.00     0.121 A 
HETATM    8  N4  UNL     1      16.649  -9.111  20.279  1.00  0.00    -0.350 N 
ATOM      9  H4  UNL     1      16.816  -9.980  19.769  1.00  0.00     0.166 HD
HETATM   10  C8  UNL     1      16.066  -9.031  21.494  1.00  0.00     0.113 A 
HETATM   11  C9  UNL     1      16.030  -7.693  21.828  1.00  0.00     0.077 A 
HETATM   12  C10 UNL     1      15.499  -7.110  23.030  1.00  0.00     0.102 C 
HETATM   13  N5  UNL     1      15.064  -6.652  24.017  1.00  0.00    -0.191 NA
HETATM   14  C11 UNL     1      16.599  -6.972  20.796  1.00  0.00     0.074 A 
ENDROOT
BRANCH   1  15
HETATM   15  N1  UNL     1      16.457  -4.826  21.503  1.00  0.00    -0.375 N 
ATOM     16  H1  UNL     1      16.701  -5.111  22.451  1.00  0.00     0.161 HD
BRANCH  15  17
HETATM   17  C4  UNL     1      15.744  -3.606  21.396  1.00  0.00     0.125 C 
BRANCH  17  18
HETATM   18  C3  UNL     1      14.305  -3.723  21.791  1.00  0.00     0.046 C 
BRANCH  18  19
HETATM   19  C2  UNL     1      13.422  -4.218  20.719  1.00  0.00    -0.035 C 
HETATM   20  C1  UNL     1      13.007  -5.456  20.606  1.00  0.00     0.007 C 
ENDBRANCH  18  19
ENDBRANCH  17  18
ENDBRANCH  15  17
ENDBRANCH   1  15
TORSDOF 4
ENDMDL
MODEL 4
REMARK VINA RESULT: -6.445458903      2.079      2.904
REMARK  4 active torsions:
REMARK  status: ('A' for Active; 'I' for Inactive)
REMARK    1  A    between atoms: C2_2  and  C3_3 
REMARK    2  A    between atoms: C3_3  and  C4_4 
REMARK    3  A    between atoms: C4_4  and  N1_5 
REMARK    4  A    between atoms: N1_5  and  C5_7 
ROOT
HETATM    1  C5  UNL     1      14.792  -6.753  22.209  1.00  0.00     0.117 A 
HETATM    2  N2  UNL     1      14.095  -7.781  22.741  1.00  0.00    -0.338 N 
ATOM      3  H2  UNL     1      13.383  -7.606  23.449  1.00  0.00     0.168 HD
HETATM    4  C6  UNL     1      14.349  -9.035  22.328  1.00  0.00     0.183 A 
HETATM    5  N3  UNL     1      15.291  -9.302  21.383  1.00  0.00    -0.338 N 
ATOM      6  H3  UNL     1      15.457 -10.266  21.094  1.00  0.00     0.168 HD
HETATM    7  C7  UNL     1      16.008  -8.304  20.827  1.00  0.00     0.121 A 
HETATM    8  N4  UNL     1      16.976  -8.270  19.897  1.00  0.00    -0.350 N 
ATOM      9  H4  UNL     1      17.355  -9.090  19.422  1.00  0.00     0.166 HD
HETATM   10  C8  UNL     1      17.378  -6.999  19.681  1.00  0.00     0.113 A 
HETATM   11  C9  UNL     1      16.625  -6.199  20.515  1.00  0.00     0.077 A 
HETATM   12  C10 UNL     1      16.693  -4.769  20.643  1.00  0.00     0.102 C 
HETATM   13  N5  UNL     1      16.761  -3.602  20.733  1.00  0.00    -0.191 NA
HETATM   14  C11 UNL     1      15.766  -7.007  21.234  1.00  0.00     0.074 A 
ENDROOT
BRANCH   1  15
HETATM   15  N1  UNL     1      14.624  -5.547  22.534  1.00  0.00    -0.375 N 
ATOM     16  H1  UNL     1      15.458  -5.055  22.852  1.00  0.00     0.161 HD
BRANCH  15  17
HETATM   17  C4  UNL     1      13.432  -4.782  22.516  1.00  0.00     0.125 C 
BRANCH  17  18
HETATM   18  C3  UNL     1      13.245  -4.005  21.250  1.00  0.00     0.046 C 
BRANCH  18  19
HETATM   19  C2  UNL     1      12.473  -4.714  20.214  1.00  0.00    -0.035 C 
HETATM   20  C1  UNL     1      13.000  -5.410  19.236  1.00  0.00     0.007 C 
ENDBRANCH  18  19
ENDBRANCH  17  18
ENDBRANCH  15  17
ENDBRANCH   1  15
TORSDOF 4
ENDMDL
MODEL 5
REMARK VINA RESULT: -6.442260994      2.250      3.700
REMARK  4 active torsions:
REMARK  status: ('A' for Active; 'I' for Inactive)
REMARK    1  A    between atoms: C2_2  and  C3_3 
REMARK    2  A    between atoms: C3_3  and  C4_4 
REMARK    3  A    between atoms: C4_4  and  N1_5 
REMARK    4  A    between atoms: N1_5  and  C5_7 
ROOT
HETATM    1  C5  UNL     1      16.174  -5.684  21.670  1.00  0.00     0.117 A 
HETATM    2  N2  UNL     1      16.565  -6.825  22.278  1.00  0.00    -0.338 N 
ATOM      3  H2  UNL     1      17.463  -7.249  22.046  1.00  0.00     0.168 HD
HETATM    4  C6  UNL     1      15.762  -7.396  23.193  1.00  0.00     0.183 A 
HETATM    5  N3  UNL     1      14.558  -6.856  23.527  1.00  0.00    -0.338 N 
ATOM      6  H3  UNL     1      13.974  -7.316  24.225  1.00  0.00     0.168 HD
HETATM    7  C7  UNL     1      14.131  -5.717  22.943  1.00  0.00     0.121 A 
HETATM    8  N4  UNL     1      13.019  -4.975  23.072  1.00  0.00    -0.350 N 
ATOM      9  H4  UNL     1      12.246  -5.189  23.703  1.00  0.00     0.166 HD
HETATM   10  C8  UNL     1      13.068  -3.906  22.249  1.00  0.00     0.113 A 
HETATM   11  C9  UNL     1      14.268  -3.982  21.572  1.00  0.00     0.077 A 
HETATM   12  C10 UNL     1      14.770  -3.066  20.585  1.00  0.00     0.102 C 
HETATM   13  N5  UNL     1      15.164  -2.307  19.783  1.00  0.00    -0.191 NA
HETATM   14  C11 UNL     1      14.938  -5.111  22.001  1.00  0.00     0.074 A 
ENDROOT
BRANCH   1  15
HETATM   15  N1  UNL     1      16.859  -5.079  20.802  1.00  0.00    -0.375 N 
ATOM     16  H1  UNL     1      17.052  -4.097  20.999  1.00  0.00     0.161 HD
BRANCH  15  17
HETATM   17  C4  UNL     1      17.397  -5.578  19.591  1.00  0.00     0.125 C 
BRANCH  17  18
HETATM   18  C3  UNL     1      16.401  -5.625  18.474  1.00  0.00     0.046 C 
BRANCH  18  19
HETATM   19  C2  UNL     1      15.735  -6.929  18.312  1.00  0.00    -0.035 C 
HETATM   20  C1  UNL     1      14.515  -7.199  18.709  1.00  0.00     0.007 C 
ENDBRANCH  18  19
ENDBRANCH  17  18
ENDBRANCH  15  17
ENDBRANCH   1  15
TORSDOF 4
ENDMDL
