MODEL 1
REMARK VINA RESULT: -7.389754625      0.000      0.000
REMARK  4 active torsions:
REMARK  status: ('A' for Active; 'I' for Inactive)
REMARK    1  A    between atoms: N1_1  and  C1_4 
REMARK    2  A    between atoms: C2_7  and  C3_8 
REMARK    3  A    between atoms: C3_8  and  S1_9 
REMARK    4  A    between atoms: S1_9  and  C4_11 
ROOT
HETATM    1  C1  UNL     1      15.930  -4.488  21.741  1.00  0.00     0.675 A 
HETATM    2  N2  UNL     1      16.011  -5.647  22.385  1.00  0.00    -0.195 N 
ATOM      3  H2  UNL     1      16.934  -6.067  22.495  1.00  0.00     0.184 HD
HETATM    4  C2  UNL     1      14.956  -6.309  22.904  1.00  0.00     0.040 A 
HETATM    5  C9  UNL     1      13.723  -5.726  22.746  1.00  0.00     0.044 A 
HETATM    6  C10 UNL     1      13.622  -4.530  22.084  1.00  0.00     0.108 A 
HETATM    7  N4  UNL     1      14.717  -3.926  21.591  1.00  0.00    -0.202 N 
ATOM      8  H4  UNL     1      14.628  -3.036  21.101  1.00  0.00     0.183 HD
ENDROOT
BRANCH   4   9
HETATM    9  C3  UNL     1      15.222  -7.568  23.578  1.00  0.00     0.173 C 
BRANCH   9  10
HETATM   10  S1  UNL     1      16.666  -8.412  23.257  1.00  0.00     0.072 S 
HETATM   11  O1  UNL     1      17.709  -7.917  22.149  1.00  0.00    -0.251 OA
BRANCH  10  12
HETATM   12  C4  UNL     1      17.325  -9.152  24.679  1.00  0.00     0.100 A 
HETATM   13  C5  UNL     1      16.475  -9.876  25.490  1.00  0.00     0.039 A 
HETATM   14  C6  UNL     1      16.943 -10.498  26.653  1.00  0.00     0.004 A 
HETATM   15  C7  UNL     1      18.278 -10.371  26.974  1.00  0.00     0.017 A 
HETATM   16  C8  UNL     1      19.112  -9.636  26.142  1.00  0.00     0.089 A 
HETATM   17  N3  UNL     1      18.621  -9.057  25.037  1.00  0.00    -0.359 N 
ATOM     18  H3  UNL     1      19.255  -8.522  24.443  1.00  0.00     0.166 HD
ENDBRANCH  10  12
ENDBRANCH   9  10
ENDBRANCH   4   9
BRANCH   1  19
HETATM   19  N1  UNL     1      16.956  -3.869  21.250  1.00  0.00    -0.234 N 
ATOM     20  H12 UNL     1      17.337  -4.197  20.363  1.00  0.00     0.174 HD
ATOM     21  H11 UNL     1      17.403  -3.071  21.701  1.00  0.00     0.174 HD
ENDBRANCH   1  19
TORSDOF 4
ENDMDL
MODEL 2
REMARK VINA RESULT: -7.072783348      2.004      2.303
REMARK  4 active torsions:
REMARK  status: ('A' for Active; 'I' for Inactive)
REMARK    1  A    between atoms: N1_1  and  C1_4 
REMARK    2  A    between atoms: C2_7  and  C3_8 
REMARK    3  A    between atoms: C3_8  and  S1_9 
REMARK    4  A    between atoms: S1_9  and  C4_11 
ROOT
HETATM    1  C1  UNL     1      13.093  -6.448  20.131  1.00  0.00     0.675 A 
HETATM    2  N2  UNL     1      13.788  -6.899  21.169  1.00  0.00    -0.195 N 
ATOM      3  H2  UNL     1      14.136  -7.857  21.127  1.00  0.00     0.184 HD
HETATM    4  C2  UNL     1      14.065  -6.180  22.276  1.00  0.00     0.040 A 
HETATM    5  C9  UNL     1      13.587  -4.893  22.312  1.00  0.00     0.044 A 
HETATM    6  C10 UNL     1      12.869  -4.411  21.248  1.00  0.00     0.108 A 
HETATM    7  N4  UNL     1      12.630  -5.185  20.176  1.00  0.00    -0.202 N 
ATOM      8  H4  UNL     1      12.094  -4.814  19.392  1.00  0.00     0.183 HD
ENDROOT
BRANCH   4   9
HETATM    9  C3  UNL     1      14.838  -6.830  23.320  1.00  0.00     0.173 C 
BRANCH   9  10
HETATM   10  S1  UNL     1      15.096  -8.512  23.260  1.00  0.00     0.072 S 
HETATM   11  O1  UNL     1      14.959  -9.343  21.899  1.00  0.00    -0.251 OA
BRANCH  10  12
HETATM   12  C4  UNL     1      16.319  -9.029  24.374  1.00  0.00     0.100 A 
HETATM   13  C5  UNL     1      15.941  -9.836  25.428  1.00  0.00     0.039 A 
HETATM   14  C6  UNL     1      16.879 -10.288  26.363  1.00  0.00     0.004 A 
HETATM   15  C7  UNL     1      18.195  -9.907  26.210  1.00  0.00     0.017 A 
HETATM   16  C8  UNL     1      18.549  -9.095  25.141  1.00  0.00     0.089 A 
HETATM   17  N3  UNL     1      17.619  -8.685  24.268  1.00  0.00    -0.359 N 
ATOM     18  H3  UNL     1      17.905  -8.088  23.492  1.00  0.00     0.166 HD
ENDBRANCH  10  12
ENDBRANCH   9  10
ENDBRANCH   4   9
BRANCH   1  19
HETATM   19  N1  UNL     1      12.838  -7.155  19.077  1.00  0.00    -0.234 N 
ATOM     20  H12 UNL     1      12.763  -6.674  18.181  1.00  0.00     0.174 HD
ATOM     21  H11 UNL     1      12.709  -8.167  19.094  1.00  0.00     0.174 HD
ENDBRANCH   1  19
TORSDOF 4
ENDMDL
MODEL 3
REMARK VINA RESULT: -7.065941605      2.127      2.573
REMARK  4 active torsions:
REMARK  status: ('A' for Active; 'I' for Inactive)
REMARK    1  A    between atoms: N1_1  and  C1_4 
REMARK    2  A    between atoms: C2_7  and  C3_8 
REMARK    3  A    between atoms: C3_8  and  S1_9 
REMARK    4  A    between atoms: S1_9  and  C4_11 
ROOT
HETATM    1  C1  UNL     1      13.167  -6.526  20.034  1.00  0.00     0.675 A 
HETATM    2  N2  UNL     1      13.808  -6.989  21.101  1.00  0.00    -0.195 N 
ATOM      3  H2  UNL     1      14.163  -7.945  21.064  1.00  0.00     0.184 HD
HETATM    4  C2  UNL     1      14.024  -6.284  22.230  1.00  0.00     0.040 A 
HETATM    5  C9  UNL     1      13.539  -4.999  22.258  1.00  0.00     0.044 A 
HETATM    6  C10 UNL     1      12.876  -4.505  21.165  1.00  0.00     0.108 A 
HETATM    7  N4  UNL     1      12.697  -5.266  20.071  1.00  0.00    -0.202 N 
ATOM      8  H4  UNL     1      12.201  -4.886  19.265  1.00  0.00     0.183 HD
ENDROOT
BRANCH   4   9
HETATM    9  C3  UNL     1      14.744  -6.946  23.304  1.00  0.00     0.173 C 
BRANCH   9  10
HETATM   10  S1  UNL     1      15.098  -8.607  23.189  1.00  0.00     0.072 S 
HETATM   11  O1  UNL     1      15.106  -9.378  21.787  1.00  0.00    -0.251 OA
BRANCH  10  12
HETATM   12  C4  UNL     1      16.262  -9.114  24.369  1.00  0.00     0.100 A 
HETATM   13  C5  UNL     1      17.570  -8.701  24.213  1.00  0.00     0.039 A 
HETATM   14  C6  UNL     1      18.559  -9.075  25.130  1.00  0.00     0.004 A 
HETATM   15  C7  UNL     1      18.198  -9.871  26.197  1.00  0.00     0.017 A 
HETATM   16  C8  UNL     1      16.876 -10.273  26.330  1.00  0.00     0.089 A 
HETATM   17  N3  UNL     1      15.961  -9.891  25.429  1.00  0.00    -0.359 N 
ATOM     18  H3  UNL     1      14.996 -10.201  25.550  1.00  0.00     0.166 HD
ENDBRANCH  10  12
ENDBRANCH   9  10
ENDBRANCH   4   9
BRANCH   1  19
HETATM   19  N1  UNL     1      12.971  -7.220  18.958  1.00  0.00    -0.234 N 
ATOM     20  H12 UNL     1      13.595  -7.066  18.166  1.00  0.00     0.174 HD
ATOM     21  H11 UNL     1      12.228  -7.912  18.861  1.00  0.00     0.174 HD
ENDBRANCH   1  19
TORSDOF 4
ENDMDL
MODEL 4
REMARK VINA RESULT: -6.910041834      1.692      2.086
REMARK  4 active torsions:
REMARK  status: ('A' for Active; 'I' for Inactive)
REMARK    1  A    between atoms: N1_1  and  C1_4 
REMARK    2  A    between atoms: C2_7  and  C3_8 
REMARK    3  A    between atoms: C3_8  and  S1_9 
REMARK    4  A    between atoms: S1_9  and  C4_11 
ROOT
HETATM    1  C1  UNL     1      13.282  -5.626  20.982  1.00  0.00     0.675 A 
HETATM    2  N2  UNL     1      13.969  -6.144  21.994  1.00  0.00    -0.195 N 
ATOM      3  H2  UNL     1      14.153  -5.544  22.799  1.00  0.00     0.184 HD
HETATM    4  C2  UNL     1      14.440  -7.407  22.033  1.00  0.00     0.040 A 
HETATM    5  C9  UNL     1      14.180  -8.197  20.941  1.00  0.00     0.044 A 
HETATM    6  C10 UNL     1      13.471  -7.679  19.887  1.00  0.00     0.108 A 
HETATM    7  N4  UNL     1      13.032  -6.409  19.916  1.00  0.00    -0.202 N 
ATOM      8  H4  UNL     1      12.507  -6.036  19.126  1.00  0.00     0.183 HD
ENDROOT
BRANCH   4   9
HETATM    9  C3  UNL     1      15.173  -7.811  23.220  1.00  0.00     0.173 C 
BRANCH   9  10
HETATM   10  S1  UNL     1      16.712  -8.523  23.063  1.00  0.00     0.072 S 
HETATM   11  O1  UNL     1      17.817  -7.944  22.061  1.00  0.00    -0.251 OA
BRANCH  10  12
HETATM   12  C4  UNL     1      17.282  -9.191  24.557  1.00  0.00     0.100 A 
HETATM   13  C5  UNL     1      16.363  -9.783  25.399  1.00  0.00     0.039 A 
HETATM   14  C6  UNL     1      16.757 -10.342  26.620  1.00  0.00     0.004 A 
HETATM   15  C7  UNL     1      18.091 -10.287  26.967  1.00  0.00     0.017 A 
HETATM   16  C8  UNL     1      18.995  -9.686  26.102  1.00  0.00     0.089 A 
HETATM   17  N3  UNL     1      18.574  -9.163  24.942  1.00  0.00    -0.359 N 
ATOM     18  H3  UNL     1      19.259  -8.727  24.325  1.00  0.00     0.166 HD
ENDBRANCH  10  12
ENDBRANCH   9  10
ENDBRANCH   4   9
BRANCH   1  19
HETATM   19  N1  UNL     1      12.838  -4.410  20.964  1.00  0.00    -0.234 N 
ATOM     20  H12 UNL     1      13.491  -3.657  21.181  1.00  0.00     0.174 HD
ATOM     21  H11 UNL     1      11.873  -4.164  20.745  1.00  0.00     0.174 HD
ENDBRANCH   1  19
TORSDOF 4
ENDMDL
MODEL 5
REMARK VINA RESULT: -6.893581450      1.849      2.371
REMARK  4 active torsions:
REMARK  status: ('A' for Active; 'I' for Inactive)
REMARK    1  A    between atoms: N1_1  and  C1_4 
REMARK    2  A    between atoms: C2_7  and  C3_8 
REMARK    3  A    between atoms: C3_8  and  S1_9 
REMARK    4  A    between atoms: S1_9  and  C4_11 
ROOT
HETATM    1  C1  UNL     1      17.116  -6.294  20.219  1.00  0.00     0.675 A 
HETATM    2  N2  UNL     1      16.429  -6.795  21.240  1.00  0.00    -0.195 N 
ATOM      3  H2  UNL     1      16.448  -7.806  21.375  1.00  0.00     0.184 HD
HETATM    4  C2  UNL     1      15.707  -6.060  22.111  1.00  0.00     0.040 A 
HETATM    5  C9  UNL     1      15.696  -4.701  21.912  1.00  0.00     0.044 A 
HETATM    6  C10 UNL     1      16.401  -4.168  20.863  1.00  0.00     0.108 A 
HETATM    7  N4  UNL     1      17.099  -4.962  20.033  1.00  0.00    -0.202 N 
ATOM      8  H4  UNL     1      17.618  -4.552  19.257  1.00  0.00     0.183 HD
ENDROOT
BRANCH   4   9
HETATM    9  C3  UNL     1      15.014  -6.770  23.172  1.00  0.00     0.173 C 
BRANCH   9  10
HETATM   10  S1  UNL     1      15.079  -8.471  23.235  1.00  0.00     0.072 S 
HETATM   11  O1  UNL     1      14.839  -9.378  21.939  1.00  0.00    -0.251 OA
BRANCH  10  12
HETATM   12  C4  UNL     1      16.242  -9.042  24.387  1.00  0.00     0.100 A 
HETATM   13  C5  UNL     1      17.556  -8.647  24.236  1.00  0.00     0.039 A 
HETATM   14  C6  UNL     1      18.543  -9.072  25.131  1.00  0.00     0.004 A 
HETATM   15  C7  UNL     1      18.176  -9.899  26.172  1.00  0.00     0.017 A 
HETATM   16  C8  UNL     1      16.847 -10.282  26.300  1.00  0.00     0.089 A 
HETATM   17  N3  UNL     1      15.933  -9.851  25.420  1.00  0.00    -0.359 N 
ATOM     18  H3  UNL     1      14.964 -10.147  25.537  1.00  0.00     0.166 HD
ENDBRANCH  10  12
ENDBRANCH   9  10
ENDBRANCH   4   9
BRANCH   1  19
HETATM   19  N1  UNL     1      17.803  -7.018  19.394  1.00  0.00    -0.234 N 
ATOM     20  H12 UNL     1      18.168  -7.910  19.726  1.00  0.00     0.174 HD
ATOM     21  H11 UNL     1      17.998  -6.745  18.431  1.00  0.00     0.174 HD
ENDBRANCH   1  19
TORSDOF 4
ENDMDL
