MODEL 1
REMARK VINA RESULT: -7.317359464      0.000      0.000
REMARK  4 active torsions:
REMARK  status: ('A' for Active; 'I' for Inactive)
REMARK    1  A    between atoms: C4_5  and  N2_6 
REMARK    2  A    between atoms: N2_6  and  C5_8 
REMARK    3  A    between atoms: C5_8  and  C6_9 
REMARK    4  A    between atoms: C6_9  and  C7_10 
ROOT
HETATM    1  N1  UNL     1      15.193  -2.223  19.596  1.00  0.00    -0.190 NA
HETATM    2  C1  UNL     1      15.003  -3.037  20.389  1.00  0.00     0.117 C 
HETATM    3  C2  UNL     1      14.775  -4.065  21.358  1.00  0.00     0.118 A 
HETATM    4  C3  UNL     1      15.805  -4.954  21.706  1.00  0.00     0.089 A 
HETATM    5  C4  UNL     1      15.581  -5.933  22.631  1.00  0.00     0.108 A 
HETATM    6  N4  UNL     1      14.336  -5.992  23.180  1.00  0.00    -0.339 N 
ATOM      7  H4  UNL     1      14.144  -6.713  23.875  1.00  0.00     0.168 HD
HETATM    8  C11 UNL     1      13.360  -5.151  22.852  1.00  0.00     0.183 A 
HETATM    9  N5  UNL     1      13.576  -4.190  21.945  1.00  0.00    -0.344 N 
ATOM     10  H5  UNL     1      12.823  -3.548  21.698  1.00  0.00     0.167 HD
ENDROOT
BRANCH   5  11
HETATM   11  N2  UNL     1      16.403  -6.753  23.003  1.00  0.00    -0.355 N 
ATOM     12  H2  UNL     1      17.321  -6.353  22.808  1.00  0.00     0.166 HD
BRANCH  11  13
HETATM   13  C5  UNL     1      16.625  -7.981  23.569  1.00  0.00     0.068 C 
BRANCH  13  14
HETATM   14  C6  UNL     1      18.042  -8.344  23.983  1.00  0.00     0.101 C 
BRANCH  14  15
HETATM   15  C7  UNL     1      18.030  -9.232  25.166  1.00  0.00     0.013 A 
HETATM   16  C8  UNL     1      16.927  -9.877  25.660  1.00  0.00     0.026 A 
HETATM   17  C9  UNL     1      17.359 -10.605  26.776  1.00  0.00     0.019 A 
HETATM   18  C10 UNL     1      18.694 -10.361  26.895  1.00  0.00     0.088 A 
HETATM   19  N3  UNL     1      19.097  -9.526  25.913  1.00  0.00    -0.369 N 
ATOM     20  H3  UNL     1      20.047  -9.181  25.769  1.00  0.00     0.165 HD
ENDBRANCH  14  15
ENDBRANCH  13  14
ENDBRANCH  11  13
ENDBRANCH   5  11
TORSDOF 4
ENDMDL
MODEL 2
REMARK VINA RESULT: -6.904810542      1.888      7.422
REMARK  4 active torsions:
REMARK  status: ('A' for Active; 'I' for Inactive)
REMARK    1  A    between atoms: C4_5  and  N2_6 
REMARK    2  A    between atoms: N2_6  and  C5_8 
REMARK    3  A    between atoms: C5_8  and  C6_9 
REMARK    4  A    between atoms: C6_9  and  C7_10 
ROOT
HETATM    1  N1  UNL     1      17.566  -9.090  24.952  1.00  0.00    -0.190 NA
HETATM    2  C1  UNL     1      16.755  -8.699  24.233  1.00  0.00     0.117 C 
HETATM    3  C2  UNL     1      15.732  -8.212  23.360  1.00  0.00     0.118 A 
HETATM    4  C3  UNL     1      15.104  -6.982  23.618  1.00  0.00     0.089 A 
HETATM    5  C4  UNL     1      14.128  -6.523  22.781  1.00  0.00     0.108 A 
HETATM    6  N4  UNL     1      13.812  -7.305  21.712  1.00  0.00    -0.339 N 
ATOM      7  H4  UNL     1      13.087  -6.984  21.071  1.00  0.00     0.168 HD
HETATM    8  C11 UNL     1      14.405  -8.470  21.467  1.00  0.00     0.183 A 
HETATM    9  N5  UNL     1      15.362  -8.924  22.286  1.00  0.00    -0.344 N 
ATOM     10  H5  UNL     1      15.813  -9.817  22.091  1.00  0.00     0.167 HD
ENDROOT
BRANCH   5  11
HETATM   11  N2  UNL     1      13.522  -5.474  22.914  1.00  0.00    -0.355 N 
ATOM     12  H2  UNL     1      13.062  -5.517  23.823  1.00  0.00     0.166 HD
BRANCH  11  13
HETATM   13  C5  UNL     1      13.193  -4.261  22.368  1.00  0.00     0.068 C 
BRANCH  13  14
HETATM   14  C6  UNL     1      14.294  -3.423  21.741  1.00  0.00     0.101 C 
BRANCH  14  15
HETATM   15  C7  UNL     1      13.963  -3.088  20.338  1.00  0.00     0.013 A 
HETATM   16  C8  UNL     1      13.210  -3.863  19.497  1.00  0.00     0.026 A 
HETATM   17  C9  UNL     1      13.145  -3.177  18.276  1.00  0.00     0.019 A 
HETATM   18  C10 UNL     1      13.860  -2.030  18.447  1.00  0.00     0.088 A 
HETATM   19  N3  UNL     1      14.356  -1.980  19.703  1.00  0.00    -0.369 N 
ATOM     20  H3  UNL     1      14.927  -1.232  20.095  1.00  0.00     0.165 HD
ENDBRANCH  14  15
ENDBRANCH  13  14
ENDBRANCH  11  13
ENDBRANCH   5  11
TORSDOF 4
ENDMDL
MODEL 3
REMARK VINA RESULT: -6.896905360      1.591      2.132
REMARK  4 active torsions:
REMARK  status: ('A' for Active; 'I' for Inactive)
REMARK    1  A    between atoms: C4_5  and  N2_6 
REMARK    2  A    between atoms: N2_6  and  C5_8 
REMARK    3  A    between atoms: C5_8  and  C6_9 
REMARK    4  A    between atoms: C6_9  and  C7_10 
ROOT
HETATM    1  N1  UNL     1      11.607  -4.736  19.568  1.00  0.00    -0.190 NA
HETATM    2  C1  UNL     1      12.576  -4.908  20.167  1.00  0.00     0.117 C 
HETATM    3  C2  UNL     1      13.766  -5.119  20.934  1.00  0.00     0.118 A 
HETATM    4  C3  UNL     1      13.805  -6.111  21.927  1.00  0.00     0.089 A 
HETATM    5  C4  UNL     1      14.943  -6.307  22.655  1.00  0.00     0.108 A 
HETATM    6  N4  UNL     1      16.006  -5.506  22.367  1.00  0.00    -0.339 N 
ATOM      7  H4  UNL     1      16.868  -5.633  22.896  1.00  0.00     0.168 HD
HETATM    8  C11 UNL     1      15.971  -4.565  21.428  1.00  0.00     0.183 A 
HETATM    9  N5  UNL     1      14.856  -4.370  20.712  1.00  0.00    -0.344 N 
ATOM     10  H5  UNL     1      14.836  -3.647  19.993  1.00  0.00     0.167 HD
ENDROOT
BRANCH   5  11
HETATM   11  N2  UNL     1      15.082  -7.137  23.536  1.00  0.00    -0.355 N 
ATOM     12  H2  UNL     1      14.778  -6.694  24.403  1.00  0.00     0.166 HD
BRANCH  11  13
HETATM   13  C5  UNL     1      15.471  -8.410  23.864  1.00  0.00     0.068 C 
BRANCH  13  14
HETATM   14  C6  UNL     1      16.956  -8.726  23.911  1.00  0.00     0.101 C 
BRANCH  14  15
HETATM   15  C7  UNL     1      17.296  -9.463  25.148  1.00  0.00     0.013 A 
HETATM   16  C8  UNL     1      18.547  -9.552  25.697  1.00  0.00     0.026 A 
HETATM   17  C9  UNL     1      18.420 -10.335  26.852  1.00  0.00     0.019 A 
HETATM   18  C10 UNL     1      17.103 -10.675  26.936  1.00  0.00     0.088 A 
HETATM   19  N3  UNL     1      16.424 -10.142  25.898  1.00  0.00    -0.369 N 
ATOM     20  H3  UNL     1      15.424 -10.240  25.719  1.00  0.00     0.165 HD
ENDBRANCH  14  15
ENDBRANCH  13  14
ENDBRANCH  11  13
ENDBRANCH   5  11
TORSDOF 4
ENDMDL
MODEL 4
REMARK VINA RESULT: -6.782898885      2.795      3.458
REMARK  4 active torsions:
REMARK  status: ('A' for Active; 'I' for Inactive)
REMARK    1  A    between atoms: C4_5  and  N2_6 
REMARK    2  A    between atoms: N2_6  and  C5_8 
REMARK    3  A    between atoms: C5_8  and  C6_9 
REMARK    4  A    between atoms: C6_9  and  C7_10 
ROOT
HETATM    1  N1  UNL     1      11.300  -3.051  17.351  1.00  0.00    -0.190 NA
HETATM    2  C1  UNL     1      11.710  -3.930  17.973  1.00  0.00     0.117 C 
HETATM    3  C2  UNL     1      12.240  -5.009  18.750  1.00  0.00     0.118 A 
HETATM    4  C3  UNL     1      12.700  -4.784  20.057  1.00  0.00     0.089 A 
HETATM    5  C4  UNL     1      13.206  -5.817  20.793  1.00  0.00     0.108 A 
HETATM    6  N4  UNL     1      13.233  -7.043  20.199  1.00  0.00    -0.339 N 
ATOM      7  H4  UNL     1      13.605  -7.832  20.728  1.00  0.00     0.168 HD
HETATM    8  C11 UNL     1      12.798  -7.258  18.961  1.00  0.00     0.183 A 
HETATM    9  N5  UNL     1      12.303  -6.246  18.237  1.00  0.00    -0.344 N 
ATOM     10  H5  UNL     1      11.971  -6.418  17.288  1.00  0.00     0.167 HD
ENDROOT
BRANCH   5  11
HETATM   11  N2  UNL     1      13.630  -5.730  21.932  1.00  0.00    -0.355 N 
ATOM     12  H2  UNL     1      13.184  -4.911  22.346  1.00  0.00     0.166 HD
BRANCH  11  13
HETATM   13  C5  UNL     1      14.448  -6.258  22.896  1.00  0.00     0.068 C 
BRANCH  13  14
HETATM   14  C6  UNL     1      15.902  -6.527  22.548  1.00  0.00     0.101 C 
BRANCH  14  15
HETATM   15  C7  UNL     1      16.462  -7.583  23.420  1.00  0.00     0.013 A 
HETATM   16  C8  UNL     1      15.744  -8.599  23.993  1.00  0.00     0.026 A 
HETATM   17  C9  UNL     1      16.657  -9.364  24.731  1.00  0.00     0.019 A 
HETATM   18  C10 UNL     1      17.872  -8.769  24.564  1.00  0.00     0.088 A 
HETATM   19  N3  UNL     1      17.748  -7.687  23.766  1.00  0.00    -0.369 N 
ATOM     20  H3  UNL     1      18.501  -7.062  23.478  1.00  0.00     0.165 HD
ENDBRANCH  14  15
ENDBRANCH  13  14
ENDBRANCH  11  13
ENDBRANCH   5  11
TORSDOF 4
ENDMDL
MODEL 5
REMARK VINA RESULT: -6.740022270      2.069      2.375
REMARK  4 active torsions:
REMARK  status: ('A' for Active; 'I' for Inactive)
REMARK    1  A    between atoms: C4_5  and  N2_6 
REMARK    2  A    between atoms: N2_6  and  C5_8 
REMARK    3  A    between atoms: C5_8  and  C6_9 
REMARK    4  A    between atoms: C6_9  and  C7_10 
ROOT
HETATM    1  N1  UNL     1      13.954  -3.197  21.490  1.00  0.00    -0.190 NA
HETATM    2  C1  UNL     1      13.975  -4.340  21.345  1.00  0.00     0.117 C 
HETATM    3  C2  UNL     1      14.023  -5.761  21.179  1.00  0.00     0.118 A 
HETATM    4  C3  UNL     1      14.153  -6.603  22.296  1.00  0.00     0.089 A 
HETATM    5  C4  UNL     1      14.199  -7.957  22.131  1.00  0.00     0.108 A 
HETATM    6  N4  UNL     1      14.112  -8.427  20.855  1.00  0.00    -0.339 N 
ATOM      7  H4  UNL     1      14.142  -9.435  20.705  1.00  0.00     0.168 HD
HETATM    8  C11 UNL     1      13.988  -7.632  19.797  1.00  0.00     0.183 A 
HETATM    9  N5  UNL     1      13.944  -6.303  19.956  1.00  0.00    -0.344 N 
ATOM     10  H5  UNL     1      13.849  -5.699  19.140  1.00  0.00     0.167 HD
ENDROOT
BRANCH   5  11
HETATM   11  N2  UNL     1      14.310  -8.773  23.029  1.00  0.00    -0.355 N 
ATOM     12  H2  UNL     1      13.450  -9.322  23.030  1.00  0.00     0.166 HD
BRANCH  11  13
HETATM   13  C5  UNL     1      15.093  -9.273  24.037  1.00  0.00     0.068 C 
BRANCH  13  14
HETATM   14  C6  UNL     1      16.520  -8.770  24.166  1.00  0.00     0.101 C 
BRANCH  14  15
HETATM   15  C7  UNL     1      17.228  -9.475  25.257  1.00  0.00     0.013 A 
HETATM   16  C8  UNL     1      18.570  -9.387  25.516  1.00  0.00     0.026 A 
HETATM   17  C9  UNL     1      18.815 -10.206  26.626  1.00  0.00     0.019 A 
HETATM   18  C10 UNL     1      17.612 -10.743  26.974  1.00  0.00     0.088 A 
HETATM   19  N3  UNL     1      16.650 -10.294  26.139  1.00  0.00    -0.369 N 
ATOM     20  H3  UNL     1      15.660 -10.538  26.176  1.00  0.00     0.165 HD
ENDBRANCH  14  15
ENDBRANCH  13  14
ENDBRANCH  11  13
ENDBRANCH   5  11
TORSDOF 4
ENDMDL
