MODEL 1
REMARK VINA RESULT: -6.734889612      0.000      0.000
REMARK  3 active torsions:
REMARK  status: ('A' for Active; 'I' for Inactive)
REMARK    1  A    between atoms: C3_3  and  O1_4 
REMARK    2  A    between atoms: O1_4  and  C4_5 
REMARK    3  A    between atoms: C4_5  and  N1_6 
ROOT
HETATM    1  C1  UNL     1      14.336  -3.328  21.724  1.00  0.00     0.014 C 
HETATM    2  C2  UNL     1      13.895  -4.418  21.445  1.00  0.00    -0.091 C 
HETATM    3  C3  UNL     1      13.351  -5.752  21.117  1.00  0.00     0.262 C 
ENDROOT
BRANCH   3   4
HETATM    4  O1  UNL     1      13.594  -6.624  22.143  1.00  0.00    -0.360 OA
BRANCH   4   5
HETATM    5  C4  UNL     1      14.116  -7.844  21.729  1.00  0.00     0.299 C 
BRANCH   5   6
HETATM    6  N1  UNL     1      15.352  -8.132  22.432  1.00  0.00    -0.329 N 
HETATM    7  C5  UNL     1      16.504  -7.783  21.810  1.00  0.00     0.186 A 
HETATM    8  N2  UNL     1      17.711  -7.995  22.352  1.00  0.00    -0.336 N 
HETATM    9  C6  UNL     1      17.791  -8.573  23.557  1.00  0.00     0.137 A 
ATOM     10  H2  UNL     1      18.557  -7.719  21.853  1.00  0.00     0.168 HD
HETATM   11  N3  UNL     1      18.803  -8.914  24.354  1.00  0.00    -0.317 N 
HETATM   12  C8  UNL     1      16.620  -8.941  24.220  1.00  0.00     0.095 A 
HETATM   13  C7  UNL     1      18.318  -9.474  25.475  1.00  0.00     0.178 A 
ATOM     14  H3  UNL     1      19.791  -8.773  24.146  1.00  0.00     0.170 HD
HETATM   15  S1  UNL     1      19.212 -10.038  26.719  1.00  0.00    -0.040 SA
HETATM   16  N4  UNL     1      16.977  -9.495  25.399  1.00  0.00    -0.329 N 
ATOM     17  H4  UNL     1      16.341  -9.863  26.106  1.00  0.00     0.168 HD
HETATM   18  C9  UNL     1      15.388  -8.713  23.641  1.00  0.00     0.127 A 
ENDBRANCH   5   6
ENDBRANCH   4   5
ENDBRANCH   3   4
TORSDOF 3
ENDMDL
MODEL 2
REMARK VINA RESULT: -6.713960041      3.749      6.361
REMARK  3 active torsions:
REMARK  status: ('A' for Active; 'I' for Inactive)
REMARK    1  A    between atoms: C3_3  and  O1_4 
REMARK    2  A    between atoms: O1_4  and  C4_5 
REMARK    3  A    between atoms: C4_5  and  N1_6 
ROOT
HETATM    1  C1  UNL     1      18.505 -10.160  26.627  1.00  0.00     0.014 C 
HETATM    2  C2  UNL     1      18.416  -9.488  25.627  1.00  0.00    -0.091 C 
HETATM    3  C3  UNL     1      18.301  -8.655  24.411  1.00  0.00     0.262 C 
ENDROOT
BRANCH   3   4
HETATM    4  O1  UNL     1      17.117  -7.970  24.422  1.00  0.00    -0.360 OA
BRANCH   4   5
HETATM    5  C4  UNL     1      16.021  -8.742  24.055  1.00  0.00     0.299 C 
BRANCH   5   6
HETATM    6  N1  UNL     1      15.219  -8.047  23.065  1.00  0.00    -0.329 N 
HETATM    7  C5  UNL     1      14.748  -6.825  23.412  1.00  0.00     0.186 A 
HETATM    8  N2  UNL     1      13.995  -6.081  22.589  1.00  0.00    -0.336 N 
HETATM    9  C6  UNL     1      13.694  -6.557  21.374  1.00  0.00     0.137 A 
ATOM     10  H2  UNL     1      13.657  -5.165  22.885  1.00  0.00     0.168 HD
HETATM   11  N3  UNL     1      12.990  -6.086  20.344  1.00  0.00    -0.317 N 
HETATM   12  C8  UNL     1      14.168  -7.811  20.992  1.00  0.00     0.095 A 
HETATM   13  C7  UNL     1      13.005  -6.985  19.347  1.00  0.00     0.178 A 
ATOM     14  H3  UNL     1      12.515  -5.184  20.319  1.00  0.00     0.170 HD
HETATM   15  S1  UNL     1      12.267  -6.813  17.902  1.00  0.00    -0.040 SA
HETATM   16  N4  UNL     1      13.726  -8.049  19.738  1.00  0.00    -0.329 N 
ATOM     17  H4  UNL     1      13.908  -8.887  19.186  1.00  0.00     0.168 HD
HETATM   18  C9  UNL     1      14.941  -8.560  21.857  1.00  0.00     0.127 A 
ENDBRANCH   5   6
ENDBRANCH   4   5
ENDBRANCH   3   4
TORSDOF 3
ENDMDL
MODEL 3
REMARK VINA RESULT: -6.679865750      3.933      6.633
REMARK  3 active torsions:
REMARK  status: ('A' for Active; 'I' for Inactive)
REMARK    1  A    between atoms: C3_3  and  O1_4 
REMARK    2  A    between atoms: O1_4  and  C4_5 
REMARK    3  A    between atoms: C4_5  and  N1_6 
ROOT
HETATM    1  C1  UNL     1      16.960 -10.619  26.846  1.00  0.00     0.014 C 
HETATM    2  C2  UNL     1      17.125  -9.938  25.862  1.00  0.00    -0.091 C 
HETATM    3  C3  UNL     1      17.322  -9.095  24.664  1.00  0.00     0.262 C 
ENDROOT
BRANCH   3   4
HETATM    4  O1  UNL     1      16.185  -8.379  24.403  1.00  0.00    -0.360 OA
BRANCH   4   5
HETATM    5  C4  UNL     1      15.504  -8.806  23.269  1.00  0.00     0.299 C 
BRANCH   5   6
HETATM    6  N1  UNL     1      14.785  -7.701  22.663  1.00  0.00    -0.329 N 
HETATM    7  C5  UNL     1      14.654  -6.577  23.407  1.00  0.00     0.186 A 
HETATM    8  N2  UNL     1      14.012  -5.488  22.964  1.00  0.00    -0.336 N 
HETATM    9  C6  UNL     1      13.477  -5.502  21.737  1.00  0.00     0.137 A 
ATOM     10  H2  UNL     1      13.931  -4.659  23.553  1.00  0.00     0.168 HD
HETATM   11  N3  UNL     1      12.795  -4.613  21.014  1.00  0.00    -0.317 N 
HETATM   12  C8  UNL     1      13.598  -6.646  20.949  1.00  0.00     0.095 A 
HETATM   13  C7  UNL     1      12.490  -5.150  19.821  1.00  0.00     0.178 A 
ATOM     14  H3  UNL     1      12.544  -3.673  21.319  1.00  0.00     0.170 HD
HETATM   15  S1  UNL     1      11.659  -4.406  18.629  1.00  0.00    -0.040 SA
HETATM   16  N4  UNL     1      12.979  -6.400  19.774  1.00  0.00    -0.329 N 
ATOM     17  H4  UNL     1      12.898  -7.048  18.990  1.00  0.00     0.168 HD
HETATM   18  C9  UNL     1      14.264  -7.757  21.427  1.00  0.00     0.127 A 
ENDBRANCH   5   6
ENDBRANCH   4   5
ENDBRANCH   3   4
TORSDOF 3
ENDMDL
MODEL 4
REMARK VINA RESULT: -6.664974468      3.796      6.299
REMARK  3 active torsions:
REMARK  status: ('A' for Active; 'I' for Inactive)
REMARK    1  A    between atoms: C3_3  and  O1_4 
REMARK    2  A    between atoms: O1_4  and  C4_5 
REMARK    3  A    between atoms: C4_5  and  N1_6 
ROOT
HETATM    1  C1  UNL     1      18.765  -9.867  26.294  1.00  0.00     0.014 C 
HETATM    2  C2  UNL     1      18.458  -9.193  25.341  1.00  0.00    -0.091 C 
HETATM    3  C3  UNL     1      18.077  -8.358  24.182  1.00  0.00     0.262 C 
ENDROOT
BRANCH   3   4
HETATM    4  O1  UNL     1      16.831  -7.828  24.375  1.00  0.00    -0.360 OA
BRANCH   4   5
HETATM    5  C4  UNL     1      15.797  -8.688  24.022  1.00  0.00     0.299 C 
BRANCH   5   6
HETATM    6  N1  UNL     1      15.100  -8.189  22.852  1.00  0.00    -0.329 N 
HETATM    7  C5  UNL     1      15.047  -9.012  21.776  1.00  0.00     0.186 A 
HETATM    8  N2  UNL     1      14.434  -8.669  20.635  1.00  0.00    -0.336 N 
HETATM    9  C6  UNL     1      13.847  -7.469  20.546  1.00  0.00     0.137 A 
ATOM     10  H2  UNL     1      14.416  -9.314  19.845  1.00  0.00     0.168 HD
HETATM   11  N3  UNL     1      13.172  -6.838  19.585  1.00  0.00    -0.317 N 
HETATM   12  C8  UNL     1      13.885  -6.605  21.639  1.00  0.00     0.095 A 
HETATM   13  C7  UNL     1      12.792  -5.629  20.028  1.00  0.00     0.178 A 
ATOM     14  H3  UNL     1      12.975  -7.216  18.658  1.00  0.00     0.170 HD
HETATM   15  S1  UNL     1      11.945  -4.527  19.172  1.00  0.00    -0.040 SA
HETATM   16  N4  UNL     1      13.228  -5.478  21.289  1.00  0.00    -0.329 N 
ATOM     17  H4  UNL     1      13.087  -4.657  21.879  1.00  0.00     0.168 HD
HETATM   18  C9  UNL     1      14.523  -6.978  22.805  1.00  0.00     0.127 A 
ENDBRANCH   5   6
ENDBRANCH   4   5
ENDBRANCH   3   4
TORSDOF 3
ENDMDL
MODEL 5
REMARK VINA RESULT: -6.614576046      6.212      8.397
REMARK  3 active torsions:
REMARK  status: ('A' for Active; 'I' for Inactive)
REMARK    1  A    between atoms: C3_3  and  O1_4 
REMARK    2  A    between atoms: O1_4  and  C4_5 
REMARK    3  A    between atoms: C4_5  and  N1_6 
ROOT
HETATM    1  C1  UNL     1      14.402  -2.975  21.658  1.00  0.00     0.014 C 
HETATM    2  C2  UNL     1      14.234  -4.094  22.081  1.00  0.00    -0.091 C 
HETATM    3  C3  UNL     1      14.030  -5.468  22.586  1.00  0.00     0.262 C 
ENDROOT
BRANCH   3   4
HETATM    4  O1  UNL     1      13.190  -6.155  21.751  1.00  0.00    -0.360 OA
BRANCH   4   5
HETATM    5  C4  UNL     1      13.739  -6.422  20.502  1.00  0.00     0.299 C 
BRANCH   5   6
HETATM    6  N1  UNL     1      12.778  -6.132  19.454  1.00  0.00    -0.329 N 
HETATM    7  C5  UNL     1      12.523  -7.124  18.568  1.00  0.00     0.186 A 
HETATM    8  N2  UNL     1      11.658  -6.982  17.554  1.00  0.00    -0.336 N 
HETATM    9  C6  UNL     1      11.015  -5.817  17.405  1.00  0.00     0.137 A 
ATOM     10  H2  UNL     1      11.492  -7.751  16.905  1.00  0.00     0.168 HD
HETATM   11  N3  UNL     1      10.117  -5.361  16.532  1.00  0.00    -0.317 N 
HETATM   12  C8  UNL     1      11.258  -4.780  18.305  1.00  0.00     0.095 A 
HETATM   13  C7  UNL     1       9.794  -4.096  16.846  1.00  0.00     0.178 A 
ATOM     14  H3  UNL     1       9.736  -5.890  15.748  1.00  0.00     0.170 HD
HETATM   15  S1  UNL     1       8.731  -3.158  16.036  1.00  0.00    -0.040 SA
HETATM   16  N4  UNL     1      10.492  -3.732  17.934  1.00  0.00    -0.329 N 
ATOM     17  H4  UNL     1      10.450  -2.824  18.398  1.00  0.00     0.168 HD
HETATM   18  C9  UNL     1      12.154  -4.949  19.341  1.00  0.00     0.127 A 
ENDBRANCH   5   6
ENDBRANCH   4   5
ENDBRANCH   3   4
TORSDOF 3
ENDMDL
