MODEL 1
REMARK VINA RESULT: -6.638224372      0.000      0.000
REMARK  15 active torsions:
REMARK  status: ('A' for Active; 'I' for Inactive)
REMARK    1  A    between atoms: C2_2  and  N1_3 
REMARK    2  A    between atoms: N1_3  and  C3_4 
REMARK    3  A    between atoms: N1_3  and  C5_6 
REMARK    4  A    between atoms: C5_6  and  C6_7 
REMARK    5  A    between atoms: C6_7  and  S1_8 
REMARK    6  A    between atoms: S1_8  and  C7_9 
REMARK    7  A    between atoms: C8_10  and  C9_11 
REMARK    8  A    between atoms: C15_18  and  C16_19 
REMARK    9  A    between atoms: C16_19  and  O1_20 
REMARK   10  A    between atoms: O1_20  and  C17_21 
REMARK   11  A    between atoms: C17_21  and  C20_25 
REMARK   12  A    between atoms: C20_25  and  N3_26 
REMARK   13  A    between atoms: N3_26  and  C21_27 
REMARK   14  A    between atoms: N3_26  and  C23_29 
REMARK   15  A    between atoms: N4_33  and  C26_34 
ROOT
HETATM    1  C17 UNL     1      26.031  19.394  28.587  1.00  0.00     0.171 C 
HETATM    2  C18 UNL     1      27.194  18.938  29.393  1.00  0.00     0.064 C 
HETATM    3  C19 UNL     1      25.105  20.173  29.443  1.00  0.00     0.099 C 
HETATM    4  N2  UNL     1      24.375  20.773  30.111  1.00  0.00    -0.194 NA
ENDROOT
BRANCH   1   5
HETATM    5  O1  UNL     1      25.349  18.250  28.169  1.00  0.00    -0.363 OA
BRANCH   5   6
HETATM    6  C16 UNL     1      26.049  17.073  28.310  1.00  0.00     0.185 C 
BRANCH   6   7
HETATM    7  C15 UNL     1      26.059  16.407  26.958  1.00  0.00     0.113 C 
HETATM    8  C8  UNL     1      25.576  15.007  26.932  1.00  0.00     0.067 C 
HETATM    9  C7  UNL     1      26.169  14.511  25.632  1.00  0.00     0.164 C 
HETATM   10  N4  UNL     1      27.466  15.072  25.611  1.00  0.00    -0.303 N 
HETATM   11  C25 UNL     1      27.371  16.325  26.321  1.00  0.00     0.232 C 
HETATM   12  O2  UNL     1      28.273  17.214  26.387  1.00  0.00    -0.272 OA
BRANCH   8  13
HETATM   13  C9  UNL     1      25.882  14.180  28.097  1.00  0.00    -0.050 A 
HETATM   14  C10 UNL     1      27.166  13.763  28.433  1.00  0.00     0.009 A 
HETATM   15  C11 UNL     1      27.425  12.978  29.535  1.00  0.00     0.024 A 
HETATM   16  C12 UNL     1      26.388  12.573  30.359  1.00  0.00     0.034 A 
HETATM   17 CL1  UNL     1      26.729  11.567  31.765  1.00  0.00    -0.084 Cl
HETATM   18  C13 UNL     1      25.101  12.966  30.058  1.00  0.00     0.024 A 
HETATM   19  C14 UNL     1      24.887  13.750  28.948  1.00  0.00     0.009 A 
ENDBRANCH   8  13
BRANCH   9  20
HETATM   20  S1  UNL     1      26.015  12.763  25.390  1.00  0.00    -0.137 SA
BRANCH  20  21
HETATM   21  C6  UNL     1      25.590  12.438  23.661  1.00  0.00     0.121 C 
BRANCH  21  22
HETATM   22  C5  UNL     1      26.826  12.242  22.808  1.00  0.00     0.078 C 
BRANCH  22  23
HETATM   23  N1  UNL     1      26.764  13.068  21.676  1.00  0.00    -0.354 N 
BRANCH  23  24
HETATM   24  C2  UNL     1      25.778  14.058  21.608  1.00  0.00     0.064 C 
HETATM   25  C1  UNL     1      26.424  15.407  21.368  1.00  0.00     0.055 C 
ENDBRANCH  23  24
BRANCH  23  26
HETATM   26  C3  UNL     1      27.793  13.044  20.742  1.00  0.00     0.064 C 
HETATM   27  C4  UNL     1      29.099  12.443  21.176  1.00  0.00     0.055 C 
ENDBRANCH  23  26
ENDBRANCH  22  23
ENDBRANCH  21  22
ENDBRANCH  20  21
ENDBRANCH   9  20
BRANCH  10  28
HETATM   28  C26 UNL     1      28.700  14.618  25.044  1.00  0.00     0.040 A 
HETATM   29  C27 UNL     1      29.191  15.120  23.859  1.00  0.00     0.031 A 
HETATM   30  C28 UNL     1      30.380  14.672  23.326  1.00  0.00     0.026 A 
HETATM   31  C29 UNL     1      31.141  13.700  23.948  1.00  0.00     0.066 A 
HETATM   32  C30 UNL     1      32.388  13.239  23.378  1.00  0.00     0.101 C 
HETATM   33  C31 UNL     1      30.654  13.195  25.132  1.00  0.00     0.057 A 
HETATM   34  N5  UNL     1      33.391  12.888  22.921  1.00  0.00    -0.191 NA
HETATM   35 CL2  UNL     1      31.585  11.963  25.949  1.00  0.00    -0.083 Cl
HETATM   36  C32 UNL     1      29.465  13.642  25.667  1.00  0.00     0.055 A 
ENDBRANCH  10  28
ENDBRANCH   6   7
ENDBRANCH   5   6
ENDBRANCH   1   5
BRANCH   1  37
HETATM   37  C20 UNL     1      26.397  20.156  27.359  1.00  0.00     0.325 C 
BRANCH  37  38
HETATM   38  N3  UNL     1      26.288  21.547  27.342  1.00  0.00     0.091 N 
BRANCH  38  39
HETATM   39  C21 UNL     1      25.585  21.968  26.119  1.00  0.00     0.268 C 
HETATM   40  C22 UNL     1      24.628  20.912  25.637  1.00  0.00     0.037 C 
ENDBRANCH  38  39
BRANCH  38  41
HETATM   41  C23 UNL     1      27.377  22.408  27.575  1.00  0.00     0.268 C 
HETATM   42  C24 UNL     1      27.026  23.361  28.739  1.00  0.00     0.037 C 
ENDBRANCH  38  41
ENDBRANCH  37  38
ENDBRANCH   1  37
TORSDOF 15
ENDMDL
MODEL 2
REMARK VINA RESULT: -6.429668751      2.770      7.626
REMARK  15 active torsions:
REMARK  status: ('A' for Active; 'I' for Inactive)
REMARK    1  A    between atoms: C2_2  and  N1_3 
REMARK    2  A    between atoms: N1_3  and  C3_4 
REMARK    3  A    between atoms: N1_3  and  C5_6 
REMARK    4  A    between atoms: C5_6  and  C6_7 
REMARK    5  A    between atoms: C6_7  and  S1_8 
REMARK    6  A    between atoms: S1_8  and  C7_9 
REMARK    7  A    between atoms: C8_10  and  C9_11 
REMARK    8  A    between atoms: C15_18  and  C16_19 
REMARK    9  A    between atoms: C16_19  and  O1_20 
REMARK   10  A    between atoms: O1_20  and  C17_21 
REMARK   11  A    between atoms: C17_21  and  C20_25 
REMARK   12  A    between atoms: C20_25  and  N3_26 
REMARK   13  A    between atoms: N3_26  and  C21_27 
REMARK   14  A    between atoms: N3_26  and  C23_29 
REMARK   15  A    between atoms: N4_33  and  C26_34 
ROOT
HETATM    1  C17 UNL     1      26.221  12.404  24.214  1.00  0.00     0.171 C 
HETATM    2  C18 UNL     1      24.757  12.550  24.423  1.00  0.00     0.064 C 
HETATM    3  C19 UNL     1      26.764  11.400  25.160  1.00  0.00     0.099 C 
HETATM    4  N2  UNL     1      27.192  10.625  25.905  1.00  0.00    -0.194 NA
ENDROOT
BRANCH   1   5
HETATM    5  O1  UNL     1      26.805  13.633  24.529  1.00  0.00    -0.363 OA
BRANCH   5   6
HETATM    6  C16 UNL     1      26.186  14.324  25.545  1.00  0.00     0.185 C 
BRANCH   6   7
HETATM    7  C15 UNL     1      27.143  15.403  25.984  1.00  0.00     0.113 C 
HETATM    8  C8  UNL     1      28.084  15.021  27.062  1.00  0.00     0.067 C 
HETATM    9  C7  UNL     1      28.505  16.377  27.584  1.00  0.00     0.164 C 
HETATM   10  N4  UNL     1      27.309  17.130  27.586  1.00  0.00    -0.303 N 
HETATM   11  C25 UNL     1      26.512  16.615  26.498  1.00  0.00     0.232 C 
HETATM   12  O2  UNL     1      25.439  17.126  26.056  1.00  0.00    -0.272 OA
BRANCH   8  13
HETATM   13  C9  UNL     1      27.584  14.104  28.083  1.00  0.00    -0.050 A 
HETATM   14  C10 UNL     1      26.456  14.350  28.858  1.00  0.00     0.009 A 
HETATM   15  C11 UNL     1      26.010  13.469  29.818  1.00  0.00     0.024 A 
HETATM   16  C12 UNL     1      26.690  12.283  30.042  1.00  0.00     0.034 A 
HETATM   17 CL1  UNL     1      26.112  11.162  31.274  1.00  0.00    -0.084 Cl
HETATM   18  C13 UNL     1      27.813  12.003  29.294  1.00  0.00     0.024 A 
HETATM   19  C14 UNL     1      28.224  12.911  28.346  1.00  0.00     0.009 A 
ENDBRANCH   8  13
BRANCH   9  20
HETATM   20  S1  UNL     1      29.449  16.312  29.082  1.00  0.00    -0.137 SA
BRANCH  20  21
HETATM   21  C6  UNL     1      31.065  15.574  28.734  1.00  0.00     0.121 C 
BRANCH  21  22
HETATM   22  C5  UNL     1      31.649  16.091  27.436  1.00  0.00     0.078 C 
BRANCH  22  23
HETATM   23  N1  UNL     1      31.731  15.051  26.499  1.00  0.00    -0.354 N 
BRANCH  23  24
HETATM   24  C2  UNL     1      31.582  13.729  26.932  1.00  0.00     0.064 C 
HETATM   25  C1  UNL     1      30.992  12.890  25.818  1.00  0.00     0.055 C 
ENDBRANCH  23  24
BRANCH  23  26
HETATM   26  C3  UNL     1      31.746  15.341  25.140  1.00  0.00     0.064 C 
HETATM   27  C4  UNL     1      30.794  16.395  24.654  1.00  0.00     0.055 C 
ENDBRANCH  23  26
ENDBRANCH  22  23
ENDBRANCH  21  22
ENDBRANCH  20  21
ENDBRANCH   9  20
BRANCH  10  28
HETATM   28  C26 UNL     1      26.851  18.203  28.416  1.00  0.00     0.040 A 
HETATM   29  C27 UNL     1      26.113  17.984  29.558  1.00  0.00     0.031 A 
HETATM   30  C28 UNL     1      25.680  19.028  30.345  1.00  0.00     0.026 A 
HETATM   31  C29 UNL     1      25.960  20.346  30.034  1.00  0.00     0.066 A 
HETATM   32  C30 UNL     1      25.499  21.432  30.870  1.00  0.00     0.101 C 
HETATM   33  C31 UNL     1      26.697  20.570  28.892  1.00  0.00     0.057 A 
HETATM   34  N5  UNL     1      25.139  22.294  31.552  1.00  0.00    -0.191 NA
HETATM   35 CL2  UNL     1      27.071  22.221  28.463  1.00  0.00    -0.083 Cl
HETATM   36  C32 UNL     1      27.131  19.526  28.104  1.00  0.00     0.055 A 
ENDBRANCH  10  28
ENDBRANCH   6   7
ENDBRANCH   5   6
ENDBRANCH   1   5
BRANCH   1  37
HETATM   37  C20 UNL     1      26.612  12.084  22.810  1.00  0.00     0.325 C 
BRANCH  37  38
HETATM   38  N3  UNL     1      27.422  12.967  22.093  1.00  0.00     0.091 N 
BRANCH  38  39
HETATM   39  C21 UNL     1      26.609  13.666  21.084  1.00  0.00     0.268 C 
HETATM   40  C22 UNL     1      26.429  15.119  21.426  1.00  0.00     0.037 C 
ENDBRANCH  38  39
BRANCH  38  41
HETATM   41  C23 UNL     1      28.653  12.592  21.524  1.00  0.00     0.268 C 
HETATM   42  C24 UNL     1      29.770  13.488  22.105  1.00  0.00     0.037 C 
ENDBRANCH  38  41
ENDBRANCH  37  38
ENDBRANCH   1  37
TORSDOF 15
ENDMDL
MODEL 3
REMARK VINA RESULT: -6.417047363      2.470      7.599
REMARK  15 active torsions:
REMARK  status: ('A' for Active; 'I' for Inactive)
REMARK    1  A    between atoms: C2_2  and  N1_3 
REMARK    2  A    between atoms: N1_3  and  C3_4 
REMARK    3  A    between atoms: N1_3  and  C5_6 
REMARK    4  A    between atoms: C5_6  and  C6_7 
REMARK    5  A    between atoms: C6_7  and  S1_8 
REMARK    6  A    between atoms: S1_8  and  C7_9 
REMARK    7  A    between atoms: C8_10  and  C9_11 
REMARK    8  A    between atoms: C15_18  and  C16_19 
REMARK    9  A    between atoms: C16_19  and  O1_20 
REMARK   10  A    between atoms: O1_20  and  C17_21 
REMARK   11  A    between atoms: C17_21  and  C20_25 
REMARK   12  A    between atoms: C20_25  and  N3_26 
REMARK   13  A    between atoms: N3_26  and  C21_27 
REMARK   14  A    between atoms: N3_26  and  C23_29 
REMARK   15  A    between atoms: N4_33  and  C26_34 
ROOT
HETATM    1  C17 UNL     1      26.172  12.367  24.195  1.00  0.00     0.171 C 
HETATM    2  C18 UNL     1      24.712  12.492  24.438  1.00  0.00     0.064 C 
HETATM    3  C19 UNL     1      26.754  11.384  25.140  1.00  0.00     0.099 C 
HETATM    4  N2  UNL     1      27.212  10.625  25.885  1.00  0.00    -0.194 NA
ENDROOT
BRANCH   1   5
HETATM    5  O1  UNL     1      26.744  13.609  24.480  1.00  0.00    -0.363 OA
BRANCH   5   6
HETATM    6  C16 UNL     1      26.140  14.302  25.504  1.00  0.00     0.185 C 
BRANCH   6   7
HETATM    7  C15 UNL     1      27.106  15.378  25.931  1.00  0.00     0.113 C 
HETATM    8  C8  UNL     1      28.048  14.998  27.009  1.00  0.00     0.067 C 
HETATM    9  C7  UNL     1      28.481  16.356  27.518  1.00  0.00     0.164 C 
HETATM   10  N4  UNL     1      27.290  17.116  27.518  1.00  0.00    -0.303 N 
HETATM   11  C25 UNL     1      26.486  16.598  26.437  1.00  0.00     0.232 C 
HETATM   12  O2  UNL     1      25.414  17.113  25.995  1.00  0.00    -0.272 OA
BRANCH   8  13
HETATM   13  C9  UNL     1      27.546  14.093  28.039  1.00  0.00    -0.050 A 
HETATM   14  C10 UNL     1      26.412  14.346  28.804  1.00  0.00     0.009 A 
HETATM   15  C11 UNL     1      25.964  13.476  29.774  1.00  0.00     0.024 A 
HETATM   16  C12 UNL     1      26.647  12.295  30.017  1.00  0.00     0.034 A 
HETATM   17 CL1  UNL     1      26.066  11.189  31.261  1.00  0.00    -0.084 Cl
HETATM   18  C13 UNL     1      27.775  12.009  29.279  1.00  0.00     0.024 A 
HETATM   19  C14 UNL     1      28.188  12.906  28.321  1.00  0.00     0.009 A 
ENDBRANCH   8  13
BRANCH   9  20
HETATM   20  S1  UNL     1      29.430  16.296  29.013  1.00  0.00    -0.137 SA
BRANCH  20  21
HETATM   21  C6  UNL     1      31.065  15.610  28.652  1.00  0.00     0.121 C 
BRANCH  21  22
HETATM   22  C5  UNL     1      31.591  16.090  27.315  1.00  0.00     0.078 C 
BRANCH  22  23
HETATM   23  N1  UNL     1      31.698  15.010  26.426  1.00  0.00    -0.354 N 
BRANCH  23  24
HETATM   24  C2  UNL     1      31.607  13.707  26.923  1.00  0.00     0.064 C 
HETATM   25  C1  UNL     1      30.942  12.813  25.896  1.00  0.00     0.055 C 
ENDBRANCH  23  24
BRANCH  23  26
HETATM   26  C3  UNL     1      31.681  15.236  25.055  1.00  0.00     0.064 C 
HETATM   27  C4  UNL     1      30.694  16.243  24.539  1.00  0.00     0.055 C 
ENDBRANCH  23  26
ENDBRANCH  22  23
ENDBRANCH  21  22
ENDBRANCH  20  21
ENDBRANCH   9  20
BRANCH  10  28
HETATM   28  C26 UNL     1      26.843  18.199  28.341  1.00  0.00     0.040 A 
HETATM   29  C27 UNL     1      27.390  19.460  28.256  1.00  0.00     0.031 A 
HETATM   30  C28 UNL     1      26.948  20.492  29.056  1.00  0.00     0.026 A 
HETATM   31  C29 UNL     1      25.935  20.318  29.981  1.00  0.00     0.066 A 
HETATM   32  C30 UNL     1      25.479  21.410  30.814  1.00  0.00     0.101 C 
HETATM   33  C31 UNL     1      25.385  19.059  30.070  1.00  0.00     0.057 A 
HETATM   34  N5  UNL     1      25.112  22.292  31.465  1.00  0.00    -0.191 NA
HETATM   35 CL2  UNL     1      24.103  18.798  31.228  1.00  0.00    -0.083 Cl
HETATM   36  C32 UNL     1      25.826  18.026  29.271  1.00  0.00     0.055 A 
ENDBRANCH  10  28
ENDBRANCH   6   7
ENDBRANCH   5   6
ENDBRANCH   1   5
BRANCH   1  37
HETATM   37  C20 UNL     1      26.535  12.035  22.787  1.00  0.00     0.325 C 
BRANCH  37  38
HETATM   38  N3  UNL     1      27.375  12.884  22.064  1.00  0.00     0.091 N 
BRANCH  38  39
HETATM   39  C21 UNL     1      26.580  13.633  21.076  1.00  0.00     0.268 C 
HETATM   40  C22 UNL     1      26.480  15.090  21.433  1.00  0.00     0.037 C 
ENDBRANCH  38  39
BRANCH  38  41
HETATM   41  C23 UNL     1      28.577  12.456  21.470  1.00  0.00     0.268 C 
HETATM   42  C24 UNL     1      29.746  13.288  22.041  1.00  0.00     0.037 C 
ENDBRANCH  38  41
ENDBRANCH  37  38
ENDBRANCH   1  37
TORSDOF 15
ENDMDL
MODEL 4
REMARK VINA RESULT: -6.297430007      3.199      7.908
REMARK  15 active torsions:
REMARK  status: ('A' for Active; 'I' for Inactive)
REMARK    1  A    between atoms: C2_2  and  N1_3 
REMARK    2  A    between atoms: N1_3  and  C3_4 
REMARK    3  A    between atoms: N1_3  and  C5_6 
REMARK    4  A    between atoms: C5_6  and  C6_7 
REMARK    5  A    between atoms: C6_7  and  S1_8 
REMARK    6  A    between atoms: S1_8  and  C7_9 
REMARK    7  A    between atoms: C8_10  and  C9_11 
REMARK    8  A    between atoms: C15_18  and  C16_19 
REMARK    9  A    between atoms: C16_19  and  O1_20 
REMARK   10  A    between atoms: O1_20  and  C17_21 
REMARK   11  A    between atoms: C17_21  and  C20_25 
REMARK   12  A    between atoms: C20_25  and  N3_26 
REMARK   13  A    between atoms: N3_26  and  C21_27 
REMARK   14  A    between atoms: N3_26  and  C23_29 
REMARK   15  A    between atoms: N4_33  and  C26_34 
ROOT
HETATM    1  C17 UNL     1      26.429  12.528  24.197  1.00  0.00     0.171 C 
HETATM    2  C18 UNL     1      24.972  12.759  24.372  1.00  0.00     0.064 C 
HETATM    3  C19 UNL     1      26.895  11.515  25.174  1.00  0.00     0.099 C 
HETATM    4  N2  UNL     1      27.264  10.731  25.943  1.00  0.00    -0.194 NA
ENDROOT
BRANCH   1   5
HETATM    5  O1  UNL     1      27.075  13.728  24.502  1.00  0.00    -0.363 OA
BRANCH   5   6
HETATM    6  C16 UNL     1      26.354  14.587  25.299  1.00  0.00     0.185 C 
BRANCH   6   7
HETATM    7  C15 UNL     1      27.178  15.841  25.447  1.00  0.00     0.113 C 
HETATM    8  C8  UNL     1      28.427  15.694  26.229  1.00  0.00     0.067 C 
HETATM    9  C7  UNL     1      28.716  17.132  26.600  1.00  0.00     0.164 C 
HETATM   10  N4  UNL     1      27.447  17.664  26.922  1.00  0.00    -0.303 N 
HETATM   11  C25 UNL     1      26.496  16.953  26.101  1.00  0.00     0.232 C 
HETATM   12  O2  UNL     1      25.269  17.242  25.965  1.00  0.00    -0.272 OA
BRANCH   8  13
HETATM   13  C9  UNL     1      28.397  14.768  27.357  1.00  0.00    -0.050 A 
HETATM   14  C10 UNL     1      27.568  14.924  28.463  1.00  0.00     0.009 A 
HETATM   15  C11 UNL     1      27.564  14.036  29.517  1.00  0.00     0.024 A 
HETATM   16  C12 UNL     1      28.407  12.937  29.502  1.00  0.00     0.034 A 
HETATM   17 CL1  UNL     1      28.396  11.808  30.856  1.00  0.00    -0.084 Cl
HETATM   18  C13 UNL     1      29.243  12.748  28.424  1.00  0.00     0.024 A 
HETATM   19  C14 UNL     1      29.216  13.659  27.393  1.00  0.00     0.009 A 
ENDBRANCH   8  13
BRANCH   9  20
HETATM   20  S1  UNL     1      30.023  17.323  27.781  1.00  0.00    -0.137 SA
BRANCH  20  21
HETATM   21  C6  UNL     1      31.258  18.469  27.121  1.00  0.00     0.121 C 
BRANCH  21  22
HETATM   22  C5  UNL     1      30.624  19.753  26.628  1.00  0.00     0.078 C 
BRANCH  22  23
HETATM   23  N1  UNL     1      30.874  19.917  25.257  1.00  0.00    -0.354 N 
BRANCH  23  24
HETATM   24  C2  UNL     1      30.636  21.161  24.665  1.00  0.00     0.064 C 
HETATM   25  C1  UNL     1      29.306  21.707  25.143  1.00  0.00     0.055 C 
ENDBRANCH  23  24
BRANCH  23  26
HETATM   26  C3  UNL     1      31.546  18.927  24.552  1.00  0.00     0.064 C 
HETATM   27  C4  UNL     1      32.030  19.275  23.173  1.00  0.00     0.055 C 
ENDBRANCH  23  26
ENDBRANCH  22  23
ENDBRANCH  21  22
ENDBRANCH  20  21
ENDBRANCH   9  20
BRANCH  10  28
HETATM   28  C26 UNL     1      27.039  18.690  27.834  1.00  0.00     0.040 A 
HETATM   29  C27 UNL     1      26.670  18.413  29.132  1.00  0.00     0.031 A 
HETATM   30  C28 UNL     1      26.279  19.412  29.997  1.00  0.00     0.026 A 
HETATM   31  C29 UNL     1      26.237  20.740  29.612  1.00  0.00     0.066 A 
HETATM   32  C30 UNL     1      25.826  21.779  30.530  1.00  0.00     0.101 C 
HETATM   33  C31 UNL     1      26.604  21.021  28.315  1.00  0.00     0.057 A 
HETATM   34  N5  UNL     1      25.509  22.604  31.276  1.00  0.00    -0.191 NA
HETATM   35 CL2  UNL     1      26.563  22.686  27.788  1.00  0.00    -0.083 Cl
HETATM   36  C32 UNL     1      26.995  20.023  27.448  1.00  0.00     0.055 A 
ENDBRANCH  10  28
ENDBRANCH   6   7
ENDBRANCH   5   6
ENDBRANCH   1   5
BRANCH   1  37
HETATM   37  C20 UNL     1      26.830  12.159  22.809  1.00  0.00     0.325 C 
BRANCH  37  38
HETATM   38  N3  UNL     1      27.590  13.045  22.044  1.00  0.00     0.091 N 
BRANCH  38  39
HETATM   39  C21 UNL     1      26.728  13.685  21.037  1.00  0.00     0.268 C 
HETATM   40  C22 UNL     1      26.437  15.118  21.385  1.00  0.00     0.037 C 
ENDBRANCH  38  39
BRANCH  38  41
HETATM   41  C23 UNL     1      28.819  12.694  21.453  1.00  0.00     0.268 C 
HETATM   42  C24 UNL     1      29.958  13.450  22.171  1.00  0.00     0.037 C 
ENDBRANCH  38  41
ENDBRANCH  37  38
ENDBRANCH   1  37
TORSDOF 15
ENDMDL
MODEL 5
REMARK VINA RESULT: -6.230324388      5.218      8.876
REMARK  15 active torsions:
REMARK  status: ('A' for Active; 'I' for Inactive)
REMARK    1  A    between atoms: C2_2  and  N1_3 
REMARK    2  A    between atoms: N1_3  and  C3_4 
REMARK    3  A    between atoms: N1_3  and  C5_6 
REMARK    4  A    between atoms: C5_6  and  C6_7 
REMARK    5  A    between atoms: C6_7  and  S1_8 
REMARK    6  A    between atoms: S1_8  and  C7_9 
REMARK    7  A    between atoms: C8_10  and  C9_11 
REMARK    8  A    between atoms: C15_18  and  C16_19 
REMARK    9  A    between atoms: C16_19  and  O1_20 
REMARK   10  A    between atoms: O1_20  and  C17_21 
REMARK   11  A    between atoms: C17_21  and  C20_25 
REMARK   12  A    between atoms: C20_25  and  N3_26 
REMARK   13  A    between atoms: N3_26  and  C21_27 
REMARK   14  A    between atoms: N3_26  and  C23_29 
REMARK   15  A    between atoms: N4_33  and  C26_34 
ROOT
HETATM    1  C17 UNL     1      28.924  14.106  23.820  1.00  0.00     0.171 C 
HETATM    2  C18 UNL     1      29.882  15.023  23.150  1.00  0.00     0.064 C 
HETATM    3  C19 UNL     1      28.036  14.880  24.719  1.00  0.00     0.099 C 
HETATM    4  N2  UNL     1      27.348  15.481  25.430  1.00  0.00    -0.194 NA
ENDROOT
BRANCH   1   5
HETATM    5  O1  UNL     1      29.676  13.242  24.619  1.00  0.00    -0.363 OA
BRANCH   5   6
HETATM    6  C16 UNL     1      30.988  13.614  24.800  1.00  0.00     0.185 C 
BRANCH   6   7
HETATM    7  C15 UNL     1      31.815  12.357  24.709  1.00  0.00     0.113 C 
HETATM    8  C8  UNL     1      33.025  12.326  25.561  1.00  0.00     0.067 C 
HETATM    9  C7  UNL     1      33.837  11.241  24.887  1.00  0.00     0.164 C 
HETATM   10  N4  UNL     1      33.649  11.482  23.507  1.00  0.00    -0.303 N 
HETATM   11  C25 UNL     1      32.329  12.053  23.377  1.00  0.00     0.232 C 
HETATM   12  O2  UNL     1      31.713  12.259  22.289  1.00  0.00    -0.272 OA
BRANCH   8  13
HETATM   13  C9  UNL     1      33.734  13.589  25.751  1.00  0.00    -0.050 A 
HETATM   14  C10 UNL     1      34.297  14.323  24.713  1.00  0.00     0.009 A 
HETATM   15  C11 UNL     1      34.965  15.509  24.922  1.00  0.00     0.024 A 
HETATM   16  C12 UNL     1      35.096  16.016  26.204  1.00  0.00     0.034 A 
HETATM   17 CL1  UNL     1      35.955  17.534  26.462  1.00  0.00    -0.084 Cl
HETATM   18  C13 UNL     1      34.552  15.317  27.260  1.00  0.00     0.024 A 
HETATM   19  C14 UNL     1      33.893  14.136  27.007  1.00  0.00     0.009 A 
ENDBRANCH   8  13
BRANCH   9  20
HETATM   20  S1  UNL     1      35.497  11.104  25.489  1.00  0.00    -0.137 SA
BRANCH  20  21
HETATM   21  C6  UNL     1      35.862   9.365  25.835  1.00  0.00     0.121 C 
BRANCH  21  22
HETATM   22  C5  UNL     1      35.176   8.443  24.848  1.00  0.00     0.078 C 
BRANCH  22  23
HETATM   23  N1  UNL     1      34.723   7.289  25.505  1.00  0.00    -0.354 N 
BRANCH  23  24
HETATM   24  C2  UNL     1      34.088   7.415  26.744  1.00  0.00     0.064 C 
HETATM   25  C1  UNL     1      34.368   6.190  27.590  1.00  0.00     0.055 C 
ENDBRANCH  23  24
BRANCH  23  26
HETATM   26  C3  UNL     1      34.715   6.069  24.839  1.00  0.00     0.064 C 
HETATM   27  C4  UNL     1      34.699   6.108  23.338  1.00  0.00     0.055 C 
ENDBRANCH  23  26
ENDBRANCH  22  23
ENDBRANCH  21  22
ENDBRANCH  20  21
ENDBRANCH   9  20
BRANCH  10  28
HETATM   28  C26 UNL     1      34.489  11.255  22.370  1.00  0.00     0.040 A 
HETATM   29  C27 UNL     1      35.351  12.216  21.890  1.00  0.00     0.031 A 
HETATM   30  C28 UNL     1      36.152  11.981  20.794  1.00  0.00     0.026 A 
HETATM   31  C29 UNL     1      36.135  10.774  20.119  1.00  0.00     0.066 A 
HETATM   32  C30 UNL     1      36.981  10.540  18.970  1.00  0.00     0.101 C 
HETATM   33  C31 UNL     1      35.274   9.810  20.595  1.00  0.00     0.057 A 
HETATM   34  N5  UNL     1      37.673  10.357  18.061  1.00  0.00    -0.191 NA
HETATM   35 CL2  UNL     1      35.220   8.271  19.770  1.00  0.00    -0.083 Cl
HETATM   36  C32 UNL     1      34.472  10.044  21.691  1.00  0.00     0.055 A 
ENDBRANCH  10  28
ENDBRANCH   6   7
ENDBRANCH   5   6
ENDBRANCH   1   5
BRANCH   1  37
HETATM   37  C20 UNL     1      28.132  13.255  22.886  1.00  0.00     0.325 C 
BRANCH  37  38
HETATM   38  N3  UNL     1      26.746  13.404  22.810  1.00  0.00     0.091 N 
BRANCH  38  39
HETATM   39  C21 UNL     1      26.096  12.188  23.326  1.00  0.00     0.268 C 
HETATM   40  C22 UNL     1      24.791  12.502  24.005  1.00  0.00     0.037 C 
ENDBRANCH  38  39
BRANCH  38  41
HETATM   41  C23 UNL     1      26.080  13.834  21.648  1.00  0.00     0.268 C 
HETATM   42  C24 UNL     1      26.402  15.326  21.405  1.00  0.00     0.037 C 
ENDBRANCH  38  41
ENDBRANCH  37  38
ENDBRANCH   1  37
TORSDOF 15
ENDMDL
