MODEL 1
REMARK VINA RESULT: -8.358996230      0.000      0.000
REMARK  14 active torsions:
REMARK  status: ('A' for Active; 'I' for Inactive)
REMARK    1  A    between atoms: C3_3  and  N1_4 
REMARK    2  A    between atoms: N1_4  and  C4_5 
REMARK    3  A    between atoms: N1_4  and  C30_42 
REMARK    4  A    between atoms: C4_5  and  C5_6 
REMARK    5  A    between atoms: C6_7  and  N2_8 
REMARK    6  A    between atoms: N2_8  and  C7_9 
REMARK    7  A    between atoms: N2_8  and  C25_34 
REMARK    8  A    between atoms: C7_9  and  C8_10 
REMARK    9  A    between atoms: C8_10  and  N3_11 
REMARK   10  A    between atoms: N3_11  and  C10_13 
REMARK   11  A    between atoms: C10_13  and  C11_14 
REMARK   12  A    between atoms: C14_17  and  C15_18 
REMARK   13  A    between atoms: C17_22  and  C18_23 
REMARK   14  A    between atoms: N6_39  and  O2_40 
ROOT
HETATM    1  C1  UNL     1      26.099  10.696  23.163  1.00  0.00     0.014 C 
HETATM    2  C2  UNL     1      25.586  11.517  23.889  1.00  0.00    -0.097 C 
HETATM    3  C3  UNL     1      24.948  12.492  24.767  1.00  0.00     0.222 C 
ENDROOT
BRANCH   3   4
HETATM    4  N1  UNL     1      26.056  12.942  25.703  1.00  0.00    -0.332 N 
BRANCH   4   5
HETATM    5  C4  UNL     1      27.297  12.433  25.359  1.00  0.00     0.095 C 
BRANCH   5   6
HETATM    6  C5  UNL     1      28.626  12.860  25.749  1.00  0.00     0.034 C 
HETATM    7  C6  UNL     1      29.259  14.123  25.436  1.00  0.00     0.094 C 
BRANCH   7   8
HETATM    8  N2  UNL     1      29.553  14.747  24.223  1.00  0.00    -0.340 N 
BRANCH   8   9
HETATM    9  C7  UNL     1      30.599  15.740  24.078  1.00  0.00     0.160 C 
BRANCH   9  10
HETATM   10  C8  UNL     1      31.498  15.798  25.287  1.00  0.00     0.292 C 
BRANCH  10  11
HETATM   11  N3  UNL     1      32.424  14.777  25.497  1.00  0.00     0.089 N 
HETATM   12  C9  UNL     1      32.447  14.463  26.924  1.00  0.00     0.310 C 
BRANCH  11  13
HETATM   13  C10 UNL     1      33.787  15.004  25.082  1.00  0.00     0.310 C 
BRANCH  13  14
HETATM   14  C11 UNL     1      34.192  13.967  24.096  1.00  0.00    -0.030 A 
HETATM   15  C12 UNL     1      33.198  13.140  23.585  1.00  0.00     0.010 A 
HETATM   16  C13 UNL     1      33.500  12.171  22.655  1.00  0.00     0.016 A 
HETATM   17  C14 UNL     1      34.781  11.969  22.189  1.00  0.00     0.015 A 
HETATM   18  C23 UNL     1      35.744  12.812  22.722  1.00  0.00     0.016 A 
HETATM   19  C24 UNL     1      35.461  13.787  23.653  1.00  0.00     0.010 A 
BRANCH  17  20
HETATM   20  C15 UNL     1      35.090  10.940  21.199  1.00  0.00     0.158 A 
HETATM   21  N4  UNL     1      34.685   9.653  21.328  1.00  0.00    -0.343 N 
HETATM   22  C16 UNL     1      35.119   8.973  20.275  1.00  0.00     0.128 A 
ATOM     23  H4  UNL     1      34.140   9.272  22.102  1.00  0.00     0.167 HD
HETATM   24  C17 UNL     1      35.809   9.873  19.482  1.00  0.00     0.104 A 
HETATM   25  O1  UNL     1      35.755  11.032  20.089  1.00  0.00    -0.291 OA
BRANCH  24  26
HETATM   26  C18 UNL     1      36.451   9.535  18.223  1.00  0.00     0.015 A 
HETATM   27  C19 UNL     1      36.698  10.509  17.287  1.00  0.00     0.019 A 
HETATM   28  C20 UNL     1      37.307  10.183  16.096  1.00  0.00     0.043 A 
HETATM   29  C21 UNL     1      37.670   8.877  15.848  1.00  0.00     0.103 A 
HETATM   30 CL1  UNL     1      38.452   8.438  14.337  1.00  0.00    -0.065 Cl
HETATM   31  N5  UNL     1      37.420   7.936  16.782  1.00  0.00    -0.356 N 
HETATM   32  C22 UNL     1      36.832   8.242  17.933  1.00  0.00     0.103 A 
ATOM     33  H5  UNL     1      37.687   6.969  16.601  1.00  0.00     0.166 HD
ENDBRANCH  24  26
ENDBRANCH  17  20
ENDBRANCH  13  14
ENDBRANCH  11  13
ENDBRANCH  10  11
ENDBRANCH   9  10
ENDBRANCH   8   9
BRANCH   8  34
HETATM   34  C25 UNL     1      28.803  14.324  23.043  1.00  0.00     0.134 A 
HETATM   35  C26 UNL     1      29.427  13.477  22.136  1.00  0.00     0.051 A 
HETATM   36  C27 UNL     1      28.737  13.035  21.015  1.00  0.00     0.005 A 
HETATM   37  C28 UNL     1      27.445  13.431  20.801  1.00  0.00     0.020 A 
HETATM   38  C29 UNL     1      26.860  14.264  21.712  1.00  0.00     0.125 A 
HETATM   39  N6  UNL     1      27.541  14.698  22.815  1.00  0.00    -0.219 N 
BRANCH  39  40
HETATM   40  O2  UNL     1      26.836  15.530  23.634  1.00  0.00    -0.282 OA
ATOM     41  H2  UNL     1      25.890  15.620  23.611  1.00  0.00     0.245 HD
ENDBRANCH  39  40
ENDBRANCH   8  34
ENDBRANCH   7   8
ENDBRANCH   5   6
ENDBRANCH   4   5
BRANCH   4  42
HETATM   42  C30 UNL     1      25.673  13.849  26.691  1.00  0.00     0.107 A 
HETATM   43  C31 UNL     1      25.305  13.590  27.981  1.00  0.00     0.050 A 
HETATM   44  C32 UNL     1      24.955  14.580  28.903  1.00  0.00     0.029 A 
HETATM   45  C33 UNL     1      24.980  15.885  28.493  1.00  0.00     0.049 A 
HETATM   46 CL2  UNL     1      24.554  17.172  29.598  1.00  0.00    -0.083 Cl
HETATM   47  C34 UNL     1      25.345  16.148  27.207  1.00  0.00     0.113 A 
HETATM   48  N7  UNL     1      25.673  15.184  26.353  1.00  0.00    -0.351 N 
ATOM     49  H7  UNL     1      25.937  15.446  25.403  1.00  0.00     0.166 HD
ENDBRANCH   4  42
ENDBRANCH   3   4
TORSDOF 14
ENDMDL
MODEL 2
REMARK VINA RESULT: -8.166481840      4.868      9.035
REMARK  14 active torsions:
REMARK  status: ('A' for Active; 'I' for Inactive)
REMARK    1  A    between atoms: C3_3  and  N1_4 
REMARK    2  A    between atoms: N1_4  and  C4_5 
REMARK    3  A    between atoms: N1_4  and  C30_42 
REMARK    4  A    between atoms: C4_5  and  C5_6 
REMARK    5  A    between atoms: C6_7  and  N2_8 
REMARK    6  A    between atoms: N2_8  and  C7_9 
REMARK    7  A    between atoms: N2_8  and  C25_34 
REMARK    8  A    between atoms: C7_9  and  C8_10 
REMARK    9  A    between atoms: C8_10  and  N3_11 
REMARK   10  A    between atoms: N3_11  and  C10_13 
REMARK   11  A    between atoms: C10_13  and  C11_14 
REMARK   12  A    between atoms: C14_17  and  C15_18 
REMARK   13  A    between atoms: C17_22  and  C18_23 
REMARK   14  A    between atoms: N6_39  and  O2_40 
ROOT
HETATM    1  C1  UNL     1      26.087  10.651  23.337  1.00  0.00     0.014 C 
HETATM    2  C2  UNL     1      25.646  11.608  23.933  1.00  0.00    -0.097 C 
HETATM    3  C3  UNL     1      25.091  12.751  24.650  1.00  0.00     0.222 C 
ENDROOT
BRANCH   3   4
HETATM    4  N1  UNL     1      26.067  12.995  25.788  1.00  0.00    -0.332 N 
BRANCH   4   5
HETATM    5  C4  UNL     1      27.260  12.307  25.637  1.00  0.00     0.095 C 
BRANCH   5   6
HETATM    6  C5  UNL     1      28.626  12.742  25.849  1.00  0.00     0.034 C 
HETATM    7  C6  UNL     1      29.318  13.803  25.149  1.00  0.00     0.094 C 
BRANCH   7   8
HETATM    8  N2  UNL     1      29.600  14.002  23.797  1.00  0.00    -0.340 N 
BRANCH   8   9
HETATM    9  C7  UNL     1      30.949  14.105  23.277  1.00  0.00     0.160 C 
BRANCH   9  10
HETATM   10  C8  UNL     1      31.803  12.929  23.678  1.00  0.00     0.292 C 
BRANCH  10  11
HETATM   11  N3  UNL     1      33.156  13.130  23.949  1.00  0.00     0.089 N 
HETATM   12  C9  UNL     1      33.918  12.824  22.741  1.00  0.00     0.310 C 
BRANCH  11  13
HETATM   13  C10 UNL     1      33.747  12.385  25.034  1.00  0.00     0.310 C 
BRANCH  13  14
HETATM   14  C11 UNL     1      32.792  12.305  26.170  1.00  0.00    -0.030 A 
HETATM   15  C12 UNL     1      32.631  13.439  26.959  1.00  0.00     0.010 A 
HETATM   16  C13 UNL     1      31.749  13.441  28.016  1.00  0.00     0.016 A 
HETATM   17  C14 UNL     1      30.991  12.338  28.346  1.00  0.00     0.015 A 
HETATM   18  C23 UNL     1      31.178  11.228  27.537  1.00  0.00     0.016 A 
HETATM   19  C24 UNL     1      32.056  11.208  26.476  1.00  0.00     0.010 A 
BRANCH  17  20
HETATM   20  C15 UNL     1      30.055  12.352  29.468  1.00  0.00     0.158 A 
HETATM   21  N4  UNL     1      30.222  13.146  30.553  1.00  0.00    -0.343 N 
HETATM   22  C16 UNL     1      29.213  12.929  31.386  1.00  0.00     0.128 A 
ATOM     23  H4  UNL     1      30.992  13.798  30.704  1.00  0.00     0.167 HD
HETATM   24  C17 UNL     1      28.408  11.974  30.790  1.00  0.00     0.104 A 
HETATM   25  O1  UNL     1      28.966  11.671  29.645  1.00  0.00    -0.291 OA
BRANCH  24  26
HETATM   26  C18 UNL     1      27.187  11.448  31.375  1.00  0.00     0.015 A 
HETATM   27  C19 UNL     1      25.965  11.953  31.001  1.00  0.00     0.019 A 
HETATM   28  C20 UNL     1      24.811  11.451  31.558  1.00  0.00     0.043 A 
HETATM   29  C21 UNL     1      24.885  10.439  32.490  1.00  0.00     0.103 A 
HETATM   30 CL1  UNL     1      23.425   9.780  33.212  1.00  0.00    -0.065 Cl
HETATM   31  N5  UNL     1      26.095   9.957  32.843  1.00  0.00    -0.356 N 
HETATM   32  C22 UNL     1      27.214  10.436  32.311  1.00  0.00     0.103 A 
ATOM     33  H5  UNL     1      26.153   9.208  33.534  1.00  0.00     0.166 HD
ENDBRANCH  24  26
ENDBRANCH  17  20
ENDBRANCH  13  14
ENDBRANCH  11  13
ENDBRANCH  10  11
ENDBRANCH   9  10
ENDBRANCH   8   9
BRANCH   8  34
HETATM   34  C25 UNL     1      28.472  14.048  22.868  1.00  0.00     0.134 A 
HETATM   35  C26 UNL     1      27.565  15.093  22.988  1.00  0.00     0.051 A 
HETATM   36  C27 UNL     1      26.495  15.183  22.109  1.00  0.00     0.005 A 
HETATM   37  C28 UNL     1      26.331  14.246  21.124  1.00  0.00     0.020 A 
HETATM   38  C29 UNL     1      27.240  13.232  21.034  1.00  0.00     0.125 A 
HETATM   39  N6  UNL     1      28.294  13.144  21.901  1.00  0.00    -0.219 N 
BRANCH  39  40
HETATM   40  O2  UNL     1      29.118  12.077  21.697  1.00  0.00    -0.282 OA
ATOM     41  H2  UNL     1      29.071  11.509  20.937  1.00  0.00     0.245 HD
ENDBRANCH  39  40
ENDBRANCH   8  34
ENDBRANCH   7   8
ENDBRANCH   5   6
ENDBRANCH   4   5
BRANCH   4  42
HETATM   42  C30 UNL     1      25.652  13.923  26.743  1.00  0.00     0.107 A 
HETATM   43  C31 UNL     1      25.146  13.685  27.990  1.00  0.00     0.050 A 
HETATM   44  C32 UNL     1      24.775  14.692  28.884  1.00  0.00     0.029 A 
HETATM   45  C33 UNL     1      24.926  15.994  28.491  1.00  0.00     0.049 A 
HETATM   46 CL2  UNL     1      24.483  17.303  29.563  1.00  0.00    -0.083 Cl
HETATM   47  C34 UNL     1      25.429  16.237  27.248  1.00  0.00     0.113 A 
HETATM   48  N7  UNL     1      25.773  15.256  26.420  1.00  0.00    -0.351 N 
ATOM     49  H7  UNL     1      26.144  15.502  25.502  1.00  0.00     0.166 HD
ENDBRANCH   4  42
ENDBRANCH   3   4
TORSDOF 14
ENDMDL
MODEL 3
REMARK VINA RESULT: -8.096828489      3.025      5.645
REMARK  14 active torsions:
REMARK  status: ('A' for Active; 'I' for Inactive)
REMARK    1  A    between atoms: C3_3  and  N1_4 
REMARK    2  A    between atoms: N1_4  and  C4_5 
REMARK    3  A    between atoms: N1_4  and  C30_42 
REMARK    4  A    between atoms: C4_5  and  C5_6 
REMARK    5  A    between atoms: C6_7  and  N2_8 
REMARK    6  A    between atoms: N2_8  and  C7_9 
REMARK    7  A    between atoms: N2_8  and  C25_34 
REMARK    8  A    between atoms: C7_9  and  C8_10 
REMARK    9  A    between atoms: C8_10  and  N3_11 
REMARK   10  A    between atoms: N3_11  and  C10_13 
REMARK   11  A    between atoms: C10_13  and  C11_14 
REMARK   12  A    between atoms: C14_17  and  C15_18 
REMARK   13  A    between atoms: C17_22  and  C18_23 
REMARK   14  A    between atoms: N6_39  and  O2_40 
ROOT
HETATM    1  C1  UNL     1      26.207  15.499  21.463  1.00  0.00     0.014 C 
HETATM    2  C2  UNL     1      26.628  14.368  21.373  1.00  0.00    -0.097 C 
HETATM    3  C3  UNL     1      27.149  13.011  21.245  1.00  0.00     0.222 C 
ENDROOT
BRANCH   3   4
HETATM    4  N1  UNL     1      27.500  12.604  22.665  1.00  0.00    -0.332 N 
BRANCH   4   5
HETATM    5  C4  UNL     1      26.541  11.794  23.251  1.00  0.00     0.095 C 
BRANCH   5   6
HETATM    6  C5  UNL     1      25.407  12.136  24.084  1.00  0.00     0.034 C 
HETATM    7  C6  UNL     1      25.333  13.209  25.052  1.00  0.00     0.094 C 
BRANCH   7   8
HETATM    8  N2  UNL     1      26.091  13.498  26.188  1.00  0.00    -0.340 N 
BRANCH   8   9
HETATM    9  C7  UNL     1      26.883  12.504  26.884  1.00  0.00     0.160 C 
BRANCH   9  10
HETATM   10  C8  UNL     1      27.139  12.888  28.320  1.00  0.00     0.292 C 
BRANCH  10  11
HETATM   11  N3  UNL     1      28.062  12.156  29.066  1.00  0.00     0.089 N 
HETATM   12  C9  UNL     1      27.410  11.707  30.294  1.00  0.00     0.310 C 
BRANCH  11  13
HETATM   13  C10 UNL     1      29.294  12.806  29.445  1.00  0.00     0.310 C 
BRANCH  13  14
HETATM   14  C11 UNL     1      30.383  12.403  28.516  1.00  0.00    -0.030 A 
HETATM   15  C12 UNL     1      30.131  11.345  27.648  1.00  0.00     0.010 A 
HETATM   16  C13 UNL     1      31.088  10.932  26.750  1.00  0.00     0.016 A 
HETATM   17  C14 UNL     1      32.326  11.531  26.661  1.00  0.00     0.015 A 
HETATM   18  C23 UNL     1      32.539  12.580  27.542  1.00  0.00     0.016 A 
HETATM   19  C24 UNL     1      31.594  13.008  28.448  1.00  0.00     0.010 A 
BRANCH  17  20
HETATM   20  C15 UNL     1      33.333  11.086  25.700  1.00  0.00     0.158 A 
HETATM   21  N4  UNL     1      34.657  11.059  25.986  1.00  0.00    -0.343 N 
HETATM   22  C16 UNL     1      35.303  10.610  24.917  1.00  0.00     0.128 A 
ATOM     23  H4  UNL     1      35.085  11.336  26.869  1.00  0.00     0.167 HD
HETATM   24  C17 UNL     1      34.342  10.358  23.953  1.00  0.00     0.104 A 
HETATM   25  O1  UNL     1      33.185  10.662  24.484  1.00  0.00    -0.291 OA
BRANCH  24  26
HETATM   26  C18 UNL     1      34.628   9.851  22.622  1.00  0.00     0.015 A 
HETATM   27  C19 UNL     1      35.064  10.701  21.635  1.00  0.00     0.019 A 
HETATM   28  C20 UNL     1      35.334  10.216  20.375  1.00  0.00     0.043 A 
HETATM   29  C21 UNL     1      35.169   8.874  20.109  1.00  0.00     0.103 A 
HETATM   30 CL1  UNL     1      35.512   8.231  18.511  1.00  0.00    -0.065 Cl
HETATM   31  N5  UNL     1      34.742   8.056  21.094  1.00  0.00    -0.356 N 
HETATM   32  C22 UNL     1      34.478   8.516  22.311  1.00  0.00     0.103 A 
ATOM     33  H5  UNL     1      34.618   7.062  20.899  1.00  0.00     0.166 HD
ENDBRANCH  24  26
ENDBRANCH  17  20
ENDBRANCH  13  14
ENDBRANCH  11  13
ENDBRANCH  10  11
ENDBRANCH   9  10
ENDBRANCH   8   9
BRANCH   8  34
HETATM   34  C25 UNL     1      26.122  14.885  26.648  1.00  0.00     0.134 A 
HETATM   35  C26 UNL     1      27.044  15.748  26.069  1.00  0.00     0.051 A 
HETATM   36  C27 UNL     1      27.087  17.078  26.464  1.00  0.00     0.005 A 
HETATM   37  C28 UNL     1      26.225  17.542  27.420  1.00  0.00     0.020 A 
HETATM   38  C29 UNL     1      25.331  16.667  27.969  1.00  0.00     0.125 A 
HETATM   39  N6  UNL     1      25.289  15.357  27.580  1.00  0.00    -0.219 N 
BRANCH  39  40
HETATM   40  O2  UNL     1      24.353  14.598  28.216  1.00  0.00    -0.282 OA
ATOM     41  H2  UNL     1      23.494  14.918  28.468  1.00  0.00     0.245 HD
ENDBRANCH  39  40
ENDBRANCH   8  34
ENDBRANCH   7   8
ENDBRANCH   5   6
ENDBRANCH   4   5
BRANCH   4  42
HETATM   42  C30 UNL     1      28.749  13.030  23.118  1.00  0.00     0.107 A 
HETATM   43  C31 UNL     1      29.044  13.726  24.256  1.00  0.00     0.050 A 
HETATM   44  C32 UNL     1      30.340  14.090  24.631  1.00  0.00     0.029 A 
HETATM   45  C33 UNL     1      31.375  13.730  23.813  1.00  0.00     0.049 A 
HETATM   46 CL2  UNL     1      33.021  14.153  24.225  1.00  0.00    -0.083 Cl
HETATM   47  C34 UNL     1      31.086  13.037  22.676  1.00  0.00     0.113 A 
HETATM   48  N7  UNL     1      29.842  12.705  22.346  1.00  0.00    -0.351 N 
ATOM     49  H7  UNL     1      29.690  12.186  21.482  1.00  0.00     0.166 HD
ENDBRANCH   4  42
ENDBRANCH   3   4
TORSDOF 14
ENDMDL
MODEL 4
REMARK VINA RESULT: -7.877126830      1.536      2.027
REMARK  14 active torsions:
REMARK  status: ('A' for Active; 'I' for Inactive)
REMARK    1  A    between atoms: C3_3  and  N1_4 
REMARK    2  A    between atoms: N1_4  and  C4_5 
REMARK    3  A    between atoms: N1_4  and  C30_42 
REMARK    4  A    between atoms: C4_5  and  C5_6 
REMARK    5  A    between atoms: C6_7  and  N2_8 
REMARK    6  A    between atoms: N2_8  and  C7_9 
REMARK    7  A    between atoms: N2_8  and  C25_34 
REMARK    8  A    between atoms: C7_9  and  C8_10 
REMARK    9  A    between atoms: C8_10  and  N3_11 
REMARK   10  A    between atoms: N3_11  and  C10_13 
REMARK   11  A    between atoms: C10_13  and  C11_14 
REMARK   12  A    between atoms: C14_17  and  C15_18 
REMARK   13  A    between atoms: C17_22  and  C18_23 
REMARK   14  A    between atoms: N6_39  and  O2_40 
ROOT
HETATM    1  C1  UNL     1      26.132  10.850  23.182  1.00  0.00     0.014 C 
HETATM    2  C2  UNL     1      25.582  11.595  23.961  1.00  0.00    -0.097 C 
HETATM    3  C3  UNL     1      24.900  12.477  24.903  1.00  0.00     0.222 C 
ENDROOT
BRANCH   3   4
HETATM    4  N1  UNL     1      25.988  12.918  25.865  1.00  0.00    -0.332 N 
BRANCH   4   5
HETATM    5  C4  UNL     1      27.229  12.381  25.566  1.00  0.00     0.095 C 
BRANCH   5   6
HETATM    6  C5  UNL     1      28.559  12.849  25.899  1.00  0.00     0.034 C 
HETATM    7  C6  UNL     1      29.113  14.157  25.623  1.00  0.00     0.094 C 
BRANCH   7   8
HETATM    8  N2  UNL     1      29.304  14.860  24.433  1.00  0.00    -0.340 N 
BRANCH   8   9
HETATM    9  C7  UNL     1      30.287  15.915  24.285  1.00  0.00     0.160 C 
BRANCH   9  10
HETATM   10  C8  UNL     1      30.758  16.440  25.618  1.00  0.00     0.292 C 
BRANCH  10  11
HETATM   11  N3  UNL     1      31.734  15.736  26.321  1.00  0.00     0.089 N 
HETATM   12  C9  UNL     1      31.409  15.794  27.744  1.00  0.00     0.310 C 
BRANCH  11  13
HETATM   13  C10 UNL     1      33.108  16.152  26.175  1.00  0.00     0.310 C 
BRANCH  13  14
HETATM   14  C11 UNL     1      33.807  15.253  25.219  1.00  0.00    -0.030 A 
HETATM   15  C12 UNL     1      33.108  14.149  24.742  1.00  0.00     0.010 A 
HETATM   16  C13 UNL     1      33.688  13.286  23.841  1.00  0.00     0.016 A 
HETATM   17  C14 UNL     1      34.972  13.463  23.371  1.00  0.00     0.015 A 
HETATM   18  C23 UNL     1      35.636  14.573  23.869  1.00  0.00     0.016 A 
HETATM   19  C24 UNL     1      35.072  15.448  24.771  1.00  0.00     0.010 A 
BRANCH  17  20
HETATM   20  C15 UNL     1      35.577  12.542  22.411  1.00  0.00     0.158 A 
HETATM   21  N4  UNL     1      36.893  12.575  22.092  1.00  0.00    -0.343 N 
HETATM   22  C16 UNL     1      37.129  11.620  21.202  1.00  0.00     0.128 A 
ATOM     23  H4  UNL     1      37.584  13.222  22.471  1.00  0.00     0.167 HD
HETATM   24  C17 UNL     1      35.920  10.988  20.972  1.00  0.00     0.104 A 
HETATM   25  O1  UNL     1      35.031  11.585  21.726  1.00  0.00    -0.291 OA
BRANCH  24  26
HETATM   26  C18 UNL     1      35.736   9.876  20.055  1.00  0.00     0.015 A 
HETATM   27  C19 UNL     1      36.363   9.875  18.832  1.00  0.00     0.019 A 
HETATM   28  C20 UNL     1      36.186   8.819  17.967  1.00  0.00     0.043 A 
HETATM   29  C21 UNL     1      35.380   7.763  18.332  1.00  0.00     0.103 A 
HETATM   30 CL1  UNL     1      35.142   6.403  17.246  1.00  0.00    -0.065 Cl
HETATM   31  N5  UNL     1      34.774   7.784  19.538  1.00  0.00    -0.356 N 
HETATM   32  C22 UNL     1      34.939   8.799  20.379  1.00  0.00     0.103 A 
ATOM     33  H5  UNL     1      34.177   7.003  19.811  1.00  0.00     0.166 HD
ENDBRANCH  24  26
ENDBRANCH  17  20
ENDBRANCH  13  14
ENDBRANCH  11  13
ENDBRANCH  10  11
ENDBRANCH   9  10
ENDBRANCH   8   9
BRANCH   8  34
HETATM   34  C25 UNL     1      28.507  14.461  23.274  1.00  0.00     0.134 A 
HETATM   35  C26 UNL     1      27.279  15.079  23.078  1.00  0.00     0.051 A 
HETATM   36  C27 UNL     1      26.505  14.743  21.976  1.00  0.00     0.005 A 
HETATM   37  C28 UNL     1      26.947  13.805  21.082  1.00  0.00     0.020 A 
HETATM   38  C29 UNL     1      28.159  13.216  21.305  1.00  0.00     0.125 A 
HETATM   39  N6  UNL     1      28.921  13.548  22.391  1.00  0.00    -0.219 N 
BRANCH  39  40
HETATM   40  O2  UNL     1      30.103  12.877  22.490  1.00  0.00    -0.282 OA
ATOM     41  H2  UNL     1      30.926  13.199  22.141  1.00  0.00     0.245 HD
ENDBRANCH  39  40
ENDBRANCH   8  34
ENDBRANCH   7   8
ENDBRANCH   5   6
ENDBRANCH   4   5
BRANCH   4  42
HETATM   42  C30 UNL     1      25.594  13.847  26.829  1.00  0.00     0.107 A 
HETATM   43  C31 UNL     1      25.216  13.616  28.121  1.00  0.00     0.050 A 
HETATM   44  C32 UNL     1      24.855  14.625  29.018  1.00  0.00     0.029 A 
HETATM   45  C33 UNL     1      24.880  15.920  28.579  1.00  0.00     0.049 A 
HETATM   46 CL2  UNL     1      24.440  17.230  29.651  1.00  0.00    -0.083 Cl
HETATM   47  C34 UNL     1      25.254  16.155  27.290  1.00  0.00     0.113 A 
HETATM   48  N7  UNL     1      25.593  15.174  26.461  1.00  0.00    -0.351 N 
ATOM     49  H7  UNL     1      25.864  15.414  25.508  1.00  0.00     0.166 HD
ENDBRANCH   4  42
ENDBRANCH   3   4
TORSDOF 14
ENDMDL
MODEL 5
REMARK VINA RESULT: -7.845261564      6.032      9.507
REMARK  14 active torsions:
REMARK  status: ('A' for Active; 'I' for Inactive)
REMARK    1  A    between atoms: C3_3  and  N1_4 
REMARK    2  A    between atoms: N1_4  and  C4_5 
REMARK    3  A    between atoms: N1_4  and  C30_42 
REMARK    4  A    between atoms: C4_5  and  C5_6 
REMARK    5  A    between atoms: C6_7  and  N2_8 
REMARK    6  A    between atoms: N2_8  and  C7_9 
REMARK    7  A    between atoms: N2_8  and  C25_34 
REMARK    8  A    between atoms: C7_9  and  C8_10 
REMARK    9  A    between atoms: C8_10  and  N3_11 
REMARK   10  A    between atoms: N3_11  and  C10_13 
REMARK   11  A    between atoms: C10_13  and  C11_14 
REMARK   12  A    between atoms: C14_17  and  C15_18 
REMARK   13  A    between atoms: C17_22  and  C18_23 
REMARK   14  A    between atoms: N6_39  and  O2_40 
ROOT
HETATM    1  C1  UNL     1      26.098  10.704  23.150  1.00  0.00     0.014 C 
HETATM    2  C2  UNL     1      25.638  11.603  23.817  1.00  0.00    -0.097 C 
HETATM    3  C3  UNL     1      25.062  12.676  24.621  1.00  0.00     0.222 C 
ENDROOT
BRANCH   3   4
HETATM    4  N1  UNL     1      26.096  12.937  25.703  1.00  0.00    -0.332 N 
BRANCH   4   5
HETATM    5  C4  UNL     1      27.278  12.244  25.502  1.00  0.00     0.095 C 
BRANCH   5   6
HETATM    6  C5  UNL     1      28.647  12.624  25.786  1.00  0.00     0.034 C 
HETATM    7  C6  UNL     1      29.235  13.936  25.626  1.00  0.00     0.094 C 
BRANCH   7   8
HETATM    8  N2  UNL     1      29.368  14.772  24.517  1.00  0.00    -0.340 N 
BRANCH   8   9
HETATM    9  C7  UNL     1      30.166  15.983  24.529  1.00  0.00     0.160 C 
BRANCH   9  10
HETATM   10  C8  UNL     1      31.610  15.706  24.866  1.00  0.00     0.292 C 
BRANCH  10  11
HETATM   11  N3  UNL     1      32.128  16.168  26.075  1.00  0.00     0.089 N 
HETATM   12  C9  UNL     1      33.090  17.230  25.788  1.00  0.00     0.310 C 
BRANCH  11  13
HETATM   13  C10 UNL     1      32.781  15.215  26.940  1.00  0.00     0.310 C 
BRANCH  13  14
HETATM   14  C11 UNL     1      31.791  14.627  27.880  1.00  0.00    -0.030 A 
HETATM   15  C12 UNL     1      31.817  13.249  28.066  1.00  0.00     0.010 A 
HETATM   16  C13 UNL     1      30.942  12.641  28.935  1.00  0.00     0.016 A 
HETATM   17  C14 UNL     1      30.006  13.350  29.657  1.00  0.00     0.015 A 
HETATM   18  C23 UNL     1      30.011  14.720  29.446  1.00  0.00     0.016 A 
HETATM   19  C24 UNL     1      30.880  15.347  28.580  1.00  0.00     0.010 A 
BRANCH  17  20
HETATM   20  C15 UNL     1      29.083  12.694  30.581  1.00  0.00     0.158 A 
HETATM   21  N4  UNL     1      29.448  12.299  31.825  1.00  0.00    -0.343 N 
HETATM   22  C16 UNL     1      28.395  11.742  32.409  1.00  0.00     0.128 A 
ATOM     23  H4  UNL     1      30.372  12.410  32.241  1.00  0.00     0.167 HD
HETATM   24  C17 UNL     1      27.360  11.800  31.493  1.00  0.00     0.104 A 
HETATM   25  O1  UNL     1      27.835  12.381  30.420  1.00  0.00    -0.291 OA
BRANCH  24  26
HETATM   26  C18 UNL     1      26.020  11.294  31.735  1.00  0.00     0.015 A 
HETATM   27  C19 UNL     1      24.929  11.936  31.201  1.00  0.00     0.019 A 
HETATM   28  C20 UNL     1      23.661  11.451  31.433  1.00  0.00     0.043 A 
HETATM   29  C21 UNL     1      23.491  10.320  32.201  1.00  0.00     0.103 A 
HETATM   30 CL1  UNL     1      21.883   9.682  32.508  1.00  0.00    -0.065 Cl
HETATM   31  N5  UNL     1      24.576   9.705  32.716  1.00  0.00    -0.356 N 
HETATM   32  C22 UNL     1      25.802  10.165  32.497  1.00  0.00     0.103 A 
ATOM     33  H5  UNL     1      24.452   8.867  33.285  1.00  0.00     0.166 HD
ENDBRANCH  24  26
ENDBRANCH  17  20
ENDBRANCH  13  14
ENDBRANCH  11  13
ENDBRANCH  10  11
ENDBRANCH   9  10
ENDBRANCH   8   9
BRANCH   8  34
HETATM   34  C25 UNL     1      28.715  14.362  23.276  1.00  0.00     0.134 A 
HETATM   35  C26 UNL     1      29.383  13.473  22.444  1.00  0.00     0.051 A 
HETATM   36  C27 UNL     1      28.783  13.043  21.268  1.00  0.00     0.005 A 
HETATM   37  C28 UNL     1      27.536  13.492  20.926  1.00  0.00     0.020 A 
HETATM   38  C29 UNL     1      26.907  14.365  21.766  1.00  0.00     0.125 A 
HETATM   39  N6  UNL     1      27.498  14.789  22.924  1.00  0.00    -0.219 N 
BRANCH  39  40
HETATM   40  O2  UNL     1      26.758  15.665  23.660  1.00  0.00    -0.282 OA
ATOM     41  H2  UNL     1      26.439  16.497  23.330  1.00  0.00     0.245 HD
ENDBRANCH  39  40
ENDBRANCH   8  34
ENDBRANCH   7   8
ENDBRANCH   5   6
ENDBRANCH   4   5
BRANCH   4  42
HETATM   42  C30 UNL     1      25.732  13.882  26.662  1.00  0.00     0.107 A 
HETATM   43  C31 UNL     1      25.402  13.674  27.972  1.00  0.00     0.050 A 
HETATM   44  C32 UNL     1      25.069  14.699  28.861  1.00  0.00     0.029 A 
HETATM   45  C33 UNL     1      25.071  15.985  28.397  1.00  0.00     0.049 A 
HETATM   46 CL2  UNL     1      24.665  17.314  29.460  1.00  0.00    -0.083 Cl
HETATM   47  C34 UNL     1      25.398  16.198  27.092  1.00  0.00     0.113 A 
HETATM   48  N7  UNL     1      25.711  15.202  26.269  1.00  0.00    -0.351 N 
ATOM     49  H7  UNL     1      25.946  15.425  25.303  1.00  0.00     0.166 HD
ENDBRANCH   4  42
ENDBRANCH   3   4
TORSDOF 14
ENDMDL
