MODEL 1
REMARK VINA RESULT: -7.147168860      0.000      0.000
REMARK  14 active torsions:
REMARK  status: ('A' for Active; 'I' for Inactive)
REMARK    1  A    between atoms: C2_2  and  C3_3 
REMARK    2  A    between atoms: C3_3  and  C4_4 
REMARK    3  A    between atoms: C4_4  and  C5_5 
REMARK    4  A    between atoms: C5_5  and  C6_6 
REMARK    5  A    between atoms: C6_6  and  C7_7 
REMARK    6  A    between atoms: C7_7  and  C8_8 
REMARK    7  A    between atoms: C8_8  and  C9_9 
REMARK    8  A    between atoms: C9_9  and  C10_10 
REMARK    9  A    between atoms: C10_10  and  C11_11 
REMARK   10  A    between atoms: C11_11  and  C12_12 
REMARK   11  A    between atoms: C12_12  and  C13_13 
REMARK   12  A    between atoms: C13_13  and  C14_14 
REMARK   13  A    between atoms: C14_14  and  N1_15 
REMARK   14  A    between atoms: C17_19  and  C18_20 
ROOT
HETATM    1  N1  UNL     1      30.300  14.310  25.585  1.00  0.00    -0.280 N 
HETATM    2  C15 UNL     1      30.144  13.384  26.631  1.00  0.00     0.262 A 
HETATM    3  O1  UNL     1      30.825  12.340  26.614  1.00  0.00    -0.267 OA
HETATM    4  C16 UNL     1      29.196  13.588  27.774  1.00  0.00     0.051 A 
HETATM    5  C17 UNL     1      29.129  12.692  28.689  1.00  0.00     0.030 C 
HETATM    6  C24 UNL     1      28.432  14.820  27.742  1.00  0.00     0.030 A 
HETATM    7  C25 UNL     1      28.578  15.711  26.739  1.00  0.00     0.043 A 
HETATM    8  C26 UNL     1      27.856  17.009  26.588  1.00  0.00     0.203 C 
HETATM    9  S1  UNL     1      26.131  16.774  26.796  1.00  0.00     0.217 S 
HETATM   10  O2  UNL     1      25.739  15.434  26.246  1.00  0.00    -0.211 OA
HETATM   11  O3  UNL     1      25.402  17.825  26.005  1.00  0.00    -0.211 OA
HETATM   12  N2  UNL     1      25.646  16.934  28.444  1.00  0.00    -0.186 NA
HETATM   13  C27 UNL     1      24.631  15.917  28.775  1.00  0.00     0.182 C 
HETATM   14  S2  UNL     1      24.646  16.098  30.605  1.00  0.00    -0.151 SA
HETATM   15  C28 UNL     1      26.300  16.898  30.724  1.00  0.00     0.107 C 
HETATM   16  C29 UNL     1      26.787  16.656  29.311  1.00  0.00     0.150 C 
HETATM   17  S3  UNL     1      27.357  14.970  29.147  1.00  0.00    -0.106 SA
HETATM   18  C30 UNL     1      29.514  15.483  25.633  1.00  0.00     0.259 A 
HETATM   19  O4  UNL     1      29.620  16.333  24.723  1.00  0.00    -0.267 OA
ENDROOT
BRANCH   1  20
HETATM   20  C14 UNL     1      31.231  14.092  24.484  1.00  0.00     0.135 C 
BRANCH  20  21
HETATM   21  C13 UNL     1      30.570  13.171  23.479  1.00  0.00     0.020 C 
BRANCH  21  22
HETATM   22  C12 UNL     1      29.992  13.889  22.302  1.00  0.00     0.002 C 
BRANCH  22  23
HETATM   23  C11 UNL     1      29.531  12.860  21.275  1.00  0.00     0.000 C 
BRANCH  23  24
HETATM   24  C10 UNL     1      28.255  13.281  20.620  1.00  0.00     0.000 C 
BRANCH  24  25
HETATM   25  C9  UNL     1      28.060  14.760  20.701  1.00  0.00     0.000 C 
BRANCH  25  26
HETATM   26  C8  UNL     1      26.634  15.082  21.055  1.00  0.00     0.000 C 
BRANCH  26  27
HETATM   27  C7  UNL     1      26.125  14.038  22.040  1.00  0.00     0.000 C 
BRANCH  27  28
HETATM   28  C6  UNL     1      26.587  14.341  23.447  1.00  0.00     0.000 C 
BRANCH  28  29
HETATM   29  C5  UNL     1      27.042  13.065  24.154  1.00  0.00     0.000 C 
BRANCH  29  30
HETATM   30  C4  UNL     1      26.214  11.904  23.710  1.00  0.00     0.000 C 
BRANCH  30  31
HETATM   31  C3  UNL     1      26.168  10.856  24.790  1.00  0.00    -0.000 C 
BRANCH  31  32
HETATM   32  C2  UNL     1      26.889  11.384  26.009  1.00  0.00    -0.005 C 
HETATM   33  C1  UNL     1      27.713  10.219  26.567  1.00  0.00     0.005 C 
ENDBRANCH  31  32
ENDBRANCH  30  31
ENDBRANCH  29  30
ENDBRANCH  28  29
ENDBRANCH  27  28
ENDBRANCH  26  27
ENDBRANCH  25  26
ENDBRANCH  24  25
ENDBRANCH  23  24
ENDBRANCH  22  23
ENDBRANCH  21  22
ENDBRANCH  20  21
ENDBRANCH   1  20
BRANCH   5  34
HETATM   34  C18 UNL     1      28.359  12.556  29.888  1.00  0.00    -0.032 A 
HETATM   35  C19 UNL     1      28.829  12.970  31.141  1.00  0.00     0.014 A 
HETATM   36  C20 UNL     1      28.120  12.764  32.298  1.00  0.00     0.046 A 
HETATM   37  C21 UNL     1      26.900  12.129  32.268  1.00  0.00     0.154 A 
HETATM   38  F1  UNL     1      26.186  11.921  33.422  1.00  0.00    -0.203 F 
HETATM   39  C22 UNL     1      26.400  11.705  31.060  1.00  0.00     0.155 A 
HETATM   40  F2  UNL     1      25.198  11.083  31.054  1.00  0.00    -0.203 F 
HETATM   41  C23 UNL     1      27.113  11.914  29.905  1.00  0.00     0.057 A 
ENDBRANCH   5  34
TORSDOF 14
ENDMDL
MODEL 2
REMARK VINA RESULT: -6.939485845      1.938      3.569
REMARK  14 active torsions:
REMARK  status: ('A' for Active; 'I' for Inactive)
REMARK    1  A    between atoms: C2_2  and  C3_3 
REMARK    2  A    between atoms: C3_3  and  C4_4 
REMARK    3  A    between atoms: C4_4  and  C5_5 
REMARK    4  A    between atoms: C5_5  and  C6_6 
REMARK    5  A    between atoms: C6_6  and  C7_7 
REMARK    6  A    between atoms: C7_7  and  C8_8 
REMARK    7  A    between atoms: C8_8  and  C9_9 
REMARK    8  A    between atoms: C9_9  and  C10_10 
REMARK    9  A    between atoms: C10_10  and  C11_11 
REMARK   10  A    between atoms: C11_11  and  C12_12 
REMARK   11  A    between atoms: C12_12  and  C13_13 
REMARK   12  A    between atoms: C13_13  and  C14_14 
REMARK   13  A    between atoms: C14_14  and  N1_15 
REMARK   14  A    between atoms: C17_19  and  C18_20 
ROOT
HETATM    1  N1  UNL     1      26.604  12.876  24.099  1.00  0.00    -0.280 N 
HETATM    2  C15 UNL     1      26.880  12.098  25.238  1.00  0.00     0.262 A 
HETATM    3  O1  UNL     1      26.828  10.856  25.142  1.00  0.00    -0.267 OA
HETATM    4  C16 UNL     1      27.233  12.688  26.569  1.00  0.00     0.051 A 
HETATM    5  C17 UNL     1      27.478  11.898  27.551  1.00  0.00     0.030 C 
HETATM    6  C24 UNL     1      27.278  14.137  26.621  1.00  0.00     0.030 A 
HETATM    7  C25 UNL     1      27.013  14.887  25.531  1.00  0.00     0.043 A 
HETATM    8  C26 UNL     1      27.025  16.377  25.451  1.00  0.00     0.203 C 
HETATM    9  S1  UNL     1      26.090  17.065  26.765  1.00  0.00     0.217 S 
HETATM   10  O2  UNL     1      24.926  16.170  27.073  1.00  0.00    -0.211 OA
HETATM   11  O3  UNL     1      25.542  18.394  26.323  1.00  0.00    -0.211 OA
HETATM   12  N2  UNL     1      27.050  17.340  28.172  1.00  0.00    -0.186 NA
HETATM   13  C27 UNL     1      26.287  16.984  29.383  1.00  0.00     0.182 C 
HETATM   14  S2  UNL     1      27.671  17.003  30.595  1.00  0.00    -0.151 SA
HETATM   15  C28 UNL     1      29.028  16.811  29.367  1.00  0.00     0.107 C 
HETATM   16  C29 UNL     1      28.204  16.448  28.150  1.00  0.00     0.150 C 
HETATM   17  S3  UNL     1      27.723  14.729  28.235  1.00  0.00    -0.106 SA
HETATM   18  C30 UNL     1      26.670  14.280  24.240  1.00  0.00     0.259 A 
HETATM   19  O4  UNL     1      26.432  15.010  23.255  1.00  0.00    -0.267 OA
ENDROOT
BRANCH   1  20
HETATM   20  C14 UNL     1      26.266  12.281  22.813  1.00  0.00     0.135 C 
BRANCH  20  21
HETATM   21  C13 UNL     1      27.555  12.001  22.066  1.00  0.00     0.020 C 
BRANCH  21  22
HETATM   22  C12 UNL     1      27.668  12.745  20.774  1.00  0.00     0.002 C 
BRANCH  22  23
HETATM   23  C11 UNL     1      29.011  13.468  20.739  1.00  0.00     0.000 C 
BRANCH  23  24
HETATM   24  C10 UNL     1      29.682  13.434  22.074  1.00  0.00     0.000 C 
BRANCH  24  25
HETATM   25  C9  UNL     1      29.932  14.811  22.595  1.00  0.00     0.000 C 
BRANCH  25  26
HETATM   26  C8  UNL     1      30.458  14.750  24.004  1.00  0.00     0.000 C 
BRANCH  26  27
HETATM   27  C7  UNL     1      30.273  13.335  24.535  1.00  0.00     0.000 C 
BRANCH  27  28
HETATM   28  C6  UNL     1      30.822  13.202  25.938  1.00  0.00     0.000 C 
BRANCH  28  29
HETATM   29  C5  UNL     1      31.676  11.941  26.066  1.00  0.00     0.000 C 
BRANCH  29  30
HETATM   30  C4  UNL     1      32.997  12.140  25.399  1.00  0.00     0.000 C 
BRANCH  30  31
HETATM   31  C3  UNL     1      33.271  11.010  24.441  1.00  0.00    -0.000 C 
BRANCH  31  32
HETATM   32  C2  UNL     1      33.040  11.503  23.031  1.00  0.00    -0.005 C 
HETATM   33  C1  UNL     1      33.637  12.912  22.959  1.00  0.00     0.005 C 
ENDBRANCH  31  32
ENDBRANCH  30  31
ENDBRANCH  29  30
ENDBRANCH  28  29
ENDBRANCH  27  28
ENDBRANCH  26  27
ENDBRANCH  25  26
ENDBRANCH  24  25
ENDBRANCH  23  24
ENDBRANCH  22  23
ENDBRANCH  21  22
ENDBRANCH  20  21
ENDBRANCH   1  20
BRANCH   5  34
HETATM   34  C18 UNL     1      27.833  12.103  28.922  1.00  0.00    -0.032 A 
HETATM   35  C19 UNL     1      29.158  12.277  29.342  1.00  0.00     0.014 A 
HETATM   36  C20 UNL     1      29.501  12.392  30.666  1.00  0.00     0.046 A 
HETATM   37  C21 UNL     1      28.538  12.336  31.646  1.00  0.00     0.154 A 
HETATM   38  F1  UNL     1      28.875  12.451  32.972  1.00  0.00    -0.203 F 
HETATM   39  C22 UNL     1      27.224  12.166  31.279  1.00  0.00     0.155 A 
HETATM   40  F2  UNL     1      26.293  12.114  32.260  1.00  0.00    -0.203 F 
HETATM   41  C23 UNL     1      26.886  12.052  29.953  1.00  0.00     0.057 A 
ENDBRANCH   5  34
TORSDOF 14
ENDMDL
MODEL 3
REMARK VINA RESULT: -6.916954910      1.812      3.267
REMARK  14 active torsions:
REMARK  status: ('A' for Active; 'I' for Inactive)
REMARK    1  A    between atoms: C2_2  and  C3_3 
REMARK    2  A    between atoms: C3_3  and  C4_4 
REMARK    3  A    between atoms: C4_4  and  C5_5 
REMARK    4  A    between atoms: C5_5  and  C6_6 
REMARK    5  A    between atoms: C6_6  and  C7_7 
REMARK    6  A    between atoms: C7_7  and  C8_8 
REMARK    7  A    between atoms: C8_8  and  C9_9 
REMARK    8  A    between atoms: C9_9  and  C10_10 
REMARK    9  A    between atoms: C10_10  and  C11_11 
REMARK   10  A    between atoms: C11_11  and  C12_12 
REMARK   11  A    between atoms: C12_12  and  C13_13 
REMARK   12  A    between atoms: C13_13  and  C14_14 
REMARK   13  A    between atoms: C14_14  and  N1_15 
REMARK   14  A    between atoms: C17_19  and  C18_20 
ROOT
HETATM    1  N1  UNL     1      26.575  12.849  24.126  1.00  0.00    -0.280 N 
HETATM    2  C15 UNL     1      26.844  12.079  25.272  1.00  0.00     0.262 A 
HETATM    3  O1  UNL     1      26.782  10.837  25.188  1.00  0.00    -0.267 OA
HETATM    4  C16 UNL     1      27.202  12.679  26.598  1.00  0.00     0.051 A 
HETATM    5  C17 UNL     1      27.440  11.896  27.586  1.00  0.00     0.030 C 
HETATM    6  C24 UNL     1      27.259  14.128  26.636  1.00  0.00     0.030 A 
HETATM    7  C25 UNL     1      27.001  14.870  25.538  1.00  0.00     0.043 A 
HETATM    8  C26 UNL     1      27.026  16.359  25.444  1.00  0.00     0.203 C 
HETATM    9  S1  UNL     1      26.096  17.067  26.751  1.00  0.00     0.217 S 
HETATM   10  O2  UNL     1      24.925  16.184  27.068  1.00  0.00    -0.211 OA
HETATM   11  O3  UNL     1      25.559  18.396  26.297  1.00  0.00    -0.211 OA
HETATM   12  N2  UNL     1      27.058  17.347  28.157  1.00  0.00    -0.186 NA
HETATM   13  C27 UNL     1      26.292  17.009  29.370  1.00  0.00     0.182 C 
HETATM   14  S2  UNL     1      27.676  17.028  30.583  1.00  0.00    -0.151 SA
HETATM   15  C28 UNL     1      29.032  16.812  29.357  1.00  0.00     0.107 C 
HETATM   16  C29 UNL     1      28.205  16.445  28.144  1.00  0.00     0.150 C 
HETATM   17  S3  UNL     1      27.709  14.731  28.244  1.00  0.00    -0.106 SA
HETATM   18  C30 UNL     1      26.653  14.253  24.254  1.00  0.00     0.259 A 
HETATM   19  O4  UNL     1      26.421  14.976  23.261  1.00  0.00    -0.267 OA
ENDROOT
BRANCH   1  20
HETATM   20  C14 UNL     1      26.232  12.244  22.845  1.00  0.00     0.135 C 
BRANCH  20  21
HETATM   21  C13 UNL     1      27.519  11.925  22.111  1.00  0.00     0.020 C 
BRANCH  21  22
HETATM   22  C12 UNL     1      27.703  12.718  20.857  1.00  0.00     0.002 C 
BRANCH  22  23
HETATM   23  C11 UNL     1      29.024  13.474  20.942  1.00  0.00     0.000 C 
BRANCH  23  24
HETATM   24  C10 UNL     1      29.981  12.795  21.867  1.00  0.00     0.000 C 
BRANCH  24  25
HETATM   25  C9  UNL     1      30.701  13.780  22.730  1.00  0.00     0.000 C 
BRANCH  25  26
HETATM   26  C8  UNL     1      29.883  15.033  22.887  1.00  0.00     0.000 C 
BRANCH  26  27
HETATM   27  C7  UNL     1      30.485  15.874  24.005  1.00  0.00     0.000 C 
BRANCH  27  28
HETATM   28  C6  UNL     1      31.447  15.063  24.842  1.00  0.00     0.000 C 
BRANCH  28  29
HETATM   29  C5  UNL     1      31.044  15.097  26.315  1.00  0.00     0.000 C 
BRANCH  29  30
HETATM   30  C4  UNL     1      31.312  13.775  26.957  1.00  0.00     0.000 C 
BRANCH  30  31
HETATM   31  C3  UNL     1      30.793  12.661  26.087  1.00  0.00    -0.000 C 
BRANCH  31  32
HETATM   32  C2  UNL     1      31.721  11.475  26.212  1.00  0.00    -0.005 C 
HETATM   33  C1  UNL     1      32.663  11.528  25.004  1.00  0.00     0.005 C 
ENDBRANCH  31  32
ENDBRANCH  30  31
ENDBRANCH  29  30
ENDBRANCH  28  29
ENDBRANCH  27  28
ENDBRANCH  26  27
ENDBRANCH  25  26
ENDBRANCH  24  25
ENDBRANCH  23  24
ENDBRANCH  22  23
ENDBRANCH  21  22
ENDBRANCH  20  21
ENDBRANCH   1  20
BRANCH   5  34
HETATM   34  C18 UNL     1      27.797  12.110  28.956  1.00  0.00    -0.032 A 
HETATM   35  C19 UNL     1      29.126  12.233  29.381  1.00  0.00     0.014 A 
HETATM   36  C20 UNL     1      29.466  12.357  30.705  1.00  0.00     0.046 A 
HETATM   37  C21 UNL     1      28.496  12.364  31.680  1.00  0.00     0.154 A 
HETATM   38  F1  UNL     1      28.831  12.489  33.006  1.00  0.00    -0.203 F 
HETATM   39  C22 UNL     1      27.178  12.247  31.308  1.00  0.00     0.155 A 
HETATM   40  F2  UNL     1      26.240  12.256  32.283  1.00  0.00    -0.203 F 
HETATM   41  C23 UNL     1      26.843  12.123  29.982  1.00  0.00     0.057 A 
ENDBRANCH   5  34
TORSDOF 14
ENDMDL
MODEL 4
REMARK VINA RESULT: -6.909152876      2.235      4.068
REMARK  14 active torsions:
REMARK  status: ('A' for Active; 'I' for Inactive)
REMARK    1  A    between atoms: C2_2  and  C3_3 
REMARK    2  A    between atoms: C3_3  and  C4_4 
REMARK    3  A    between atoms: C4_4  and  C5_5 
REMARK    4  A    between atoms: C5_5  and  C6_6 
REMARK    5  A    between atoms: C6_6  and  C7_7 
REMARK    6  A    between atoms: C7_7  and  C8_8 
REMARK    7  A    between atoms: C8_8  and  C9_9 
REMARK    8  A    between atoms: C9_9  and  C10_10 
REMARK    9  A    between atoms: C10_10  and  C11_11 
REMARK   10  A    between atoms: C11_11  and  C12_12 
REMARK   11  A    between atoms: C12_12  and  C13_13 
REMARK   12  A    between atoms: C13_13  and  C14_14 
REMARK   13  A    between atoms: C14_14  and  N1_15 
REMARK   14  A    between atoms: C17_19  and  C18_20 
ROOT
HETATM    1  N1  UNL     1      30.406  14.099  25.243  1.00  0.00    -0.280 N 
HETATM    2  C15 UNL     1      29.135  14.677  25.414  1.00  0.00     0.262 A 
HETATM    3  O1  UNL     1      28.690  15.420  24.518  1.00  0.00    -0.267 OA
HETATM    4  C16 UNL     1      28.285  14.444  26.626  1.00  0.00     0.051 A 
HETATM    5  C17 UNL     1      27.133  15.007  26.690  1.00  0.00     0.030 C 
HETATM    6  C24 UNL     1      28.855  13.571  27.634  1.00  0.00     0.030 A 
HETATM    7  C25 UNL     1      30.074  13.015  27.474  1.00  0.00     0.043 A 
HETATM    8  C26 UNL     1      30.770  12.105  28.429  1.00  0.00     0.203 C 
HETATM    9  S1  UNL     1      30.742  12.782  30.046  1.00  0.00     0.217 S 
HETATM   10  O2  UNL     1      30.839  14.277  29.964  1.00  0.00    -0.211 OA
HETATM   11  O3  UNL     1      31.947  12.286  30.798  1.00  0.00    -0.211 OA
HETATM   12  N2  UNL     1      29.341  12.300  30.930  1.00  0.00    -0.186 NA
HETATM   13  C27 UNL     1      28.825  13.433  31.720  1.00  0.00     0.182 C 
HETATM   14  S2  UNL     1      27.192  12.726  32.182  1.00  0.00    -0.151 SA
HETATM   15  C28 UNL     1      27.125  11.462  30.845  1.00  0.00     0.107 C 
HETATM   16  C29 UNL     1      28.278  11.948  29.994  1.00  0.00     0.150 C 
HETATM   17  S3  UNL     1      27.760  13.349  29.014  1.00  0.00    -0.106 SA
HETATM   18  C30 UNL     1      30.884  13.262  26.276  1.00  0.00     0.259 A 
HETATM   19  O4  UNL     1      32.008  12.728  26.166  1.00  0.00    -0.267 OA
ENDROOT
BRANCH   1  20
HETATM   20  C14 UNL     1      31.216  14.336  24.054  1.00  0.00     0.135 C 
BRANCH  20  21
HETATM   21  C13 UNL     1      30.895  13.257  23.039  1.00  0.00     0.020 C 
BRANCH  21  22
HETATM   22  C12 UNL     1      30.046  13.738  21.907  1.00  0.00     0.002 C 
BRANCH  22  23
HETATM   23  C11 UNL     1      29.123  12.606  21.468  1.00  0.00     0.000 C 
BRANCH  23  24
HETATM   24  C10 UNL     1      27.982  13.120  20.651  1.00  0.00     0.000 C 
BRANCH  24  25
HETATM   25  C9  UNL     1      27.948  14.613  20.640  1.00  0.00     0.000 C 
BRANCH  25  26
HETATM   26  C8  UNL     1      26.706  15.114  21.326  1.00  0.00     0.000 C 
BRANCH  26  27
HETATM   27  C7  UNL     1      25.824  13.922  21.674  1.00  0.00     0.000 C 
BRANCH  27  28
HETATM   28  C6  UNL     1      25.842  13.644  23.160  1.00  0.00     0.000 C 
BRANCH  28  29
HETATM   29  C5  UNL     1      24.786  12.603  23.527  1.00  0.00     0.000 C 
BRANCH  29  30
HETATM   30  C4  UNL     1      25.026  12.086  24.908  1.00  0.00     0.000 C 
BRANCH  30  31
HETATM   31  C3  UNL     1      25.995  10.933  24.869  1.00  0.00    -0.000 C 
BRANCH  31  32
HETATM   32  C2  UNL     1      27.274  11.351  25.556  1.00  0.00    -0.005 C 
HETATM   33  C1  UNL     1      27.565  10.289  26.622  1.00  0.00     0.005 C 
ENDBRANCH  31  32
ENDBRANCH  30  31
ENDBRANCH  29  30
ENDBRANCH  28  29
ENDBRANCH  27  28
ENDBRANCH  26  27
ENDBRANCH  25  26
ENDBRANCH  24  25
ENDBRANCH  23  24
ENDBRANCH  22  23
ENDBRANCH  21  22
ENDBRANCH  20  21
ENDBRANCH   1  20
BRANCH   5  34
HETATM   34  C18 UNL     1      26.086  15.012  27.666  1.00  0.00    -0.032 A 
HETATM   35  C19 UNL     1      25.272  13.899  27.908  1.00  0.00     0.014 A 
HETATM   36  C20 UNL     1      24.218  13.935  28.786  1.00  0.00     0.046 A 
HETATM   37  C21 UNL     1      23.918  15.088  29.472  1.00  0.00     0.154 A 
HETATM   38  F1  UNL     1      22.865  15.130  30.353  1.00  0.00    -0.203 F 
HETATM   39  C22 UNL     1      24.690  16.206  29.266  1.00  0.00     0.155 A 
HETATM   40  F2  UNL     1      24.377  17.330  29.951  1.00  0.00    -0.203 F 
HETATM   41  C23 UNL     1      25.744  16.165  28.386  1.00  0.00     0.057 A 
ENDBRANCH   5  34
TORSDOF 14
ENDMDL
MODEL 5
REMARK VINA RESULT: -6.851937927      3.793      5.544
REMARK  14 active torsions:
REMARK  status: ('A' for Active; 'I' for Inactive)
REMARK    1  A    between atoms: C2_2  and  C3_3 
REMARK    2  A    between atoms: C3_3  and  C4_4 
REMARK    3  A    between atoms: C4_4  and  C5_5 
REMARK    4  A    between atoms: C5_5  and  C6_6 
REMARK    5  A    between atoms: C6_6  and  C7_7 
REMARK    6  A    between atoms: C7_7  and  C8_8 
REMARK    7  A    between atoms: C8_8  and  C9_9 
REMARK    8  A    between atoms: C9_9  and  C10_10 
REMARK    9  A    between atoms: C10_10  and  C11_11 
REMARK   10  A    between atoms: C11_11  and  C12_12 
REMARK   11  A    between atoms: C12_12  and  C13_13 
REMARK   12  A    between atoms: C13_13  and  C14_14 
REMARK   13  A    between atoms: C14_14  and  N1_15 
REMARK   14  A    between atoms: C17_19  and  C18_20 
ROOT
HETATM    1  N1  UNL     1      27.186  12.813  26.111  1.00  0.00    -0.280 N 
HETATM    2  C15 UNL     1      28.486  13.300  25.881  1.00  0.00     0.262 A 
HETATM    3  O1  UNL     1      29.357  12.510  25.467  1.00  0.00    -0.267 OA
HETATM    4  C16 UNL     1      28.880  14.727  26.109  1.00  0.00     0.051 A 
HETATM    5  C17 UNL     1      30.088  15.082  25.862  1.00  0.00     0.030 C 
HETATM    6  C24 UNL     1      27.826  15.600  26.591  1.00  0.00     0.030 A 
HETATM    7  C25 UNL     1      26.578  15.137  26.814  1.00  0.00     0.043 A 
HETATM    8  C26 UNL     1      25.411  15.925  27.305  1.00  0.00     0.203 C 
HETATM    9  S1  UNL     1      25.857  16.853  28.724  1.00  0.00     0.217 S 
HETATM   10  O2  UNL     1      26.851  16.077  29.538  1.00  0.00    -0.211 OA
HETATM   11  O3  UNL     1      24.631  17.057  29.572  1.00  0.00    -0.211 OA
HETATM   12  N2  UNL     1      26.472  18.412  28.316  1.00  0.00    -0.186 NA
HETATM   13  C27 UNL     1      27.613  18.751  29.186  1.00  0.00     0.182 C 
HETATM   14  S2  UNL     1      28.247  20.206  28.256  1.00  0.00    -0.151 SA
HETATM   15  C28 UNL     1      27.443  19.796  26.652  1.00  0.00     0.107 C 
HETATM   16  C29 UNL     1      27.003  18.380  26.956  1.00  0.00     0.150 C 
HETATM   17  S3  UNL     1      28.394  17.268  26.809  1.00  0.00    -0.106 SA
HETATM   18  C30 UNL     1      26.223  13.733  26.581  1.00  0.00     0.259 A 
HETATM   19  O4  UNL     1      25.056  13.344  26.800  1.00  0.00    -0.267 OA
ENDROOT
BRANCH   1  20
HETATM   20  C14 UNL     1      26.824  11.421  25.879  1.00  0.00     0.135 C 
BRANCH  20  21
HETATM   21  C13 UNL     1      25.854  11.371  24.715  1.00  0.00     0.020 C 
BRANCH  21  22
HETATM   22  C12 UNL     1      26.427  11.902  23.440  1.00  0.00     0.002 C 
BRANCH  22  23
HETATM   23  C11 UNL     1      25.569  13.069  22.963  1.00  0.00     0.000 C 
BRANCH  23  24
HETATM   24  C10 UNL     1      26.386  14.308  22.788  1.00  0.00     0.000 C 
BRANCH  24  25
HETATM   25  C9  UNL     1      26.422  14.741  21.358  1.00  0.00     0.000 C 
BRANCH  25  26
HETATM   26  C8  UNL     1      27.840  14.776  20.857  1.00  0.00     0.000 C 
BRANCH  26  27
HETATM   27  C7  UNL     1      28.288  13.354  20.551  1.00  0.00     0.000 C 
BRANCH  27  28
HETATM   28  C6  UNL     1      29.474  12.959  21.401  1.00  0.00     0.000 C 
BRANCH  28  29
HETATM   29  C5  UNL     1      29.911  14.120  22.293  1.00  0.00     0.000 C 
BRANCH  29  30
HETATM   30  C4  UNL     1      31.256  13.844  22.881  1.00  0.00     0.000 C 
BRANCH  30  31
HETATM   31  C3  UNL     1      31.592  12.382  22.744  1.00  0.00    -0.000 C 
BRANCH  31  32
HETATM   32  C2  UNL     1      32.901  12.118  23.452  1.00  0.00    -0.005 C 
HETATM   33  C1  UNL     1      32.839  12.874  24.782  1.00  0.00     0.005 C 
ENDBRANCH  31  32
ENDBRANCH  30  31
ENDBRANCH  29  30
ENDBRANCH  28  29
ENDBRANCH  27  28
ENDBRANCH  26  27
ENDBRANCH  25  26
ENDBRANCH  24  25
ENDBRANCH  23  24
ENDBRANCH  22  23
ENDBRANCH  21  22
ENDBRANCH  20  21
ENDBRANCH   1  20
BRANCH   5  34
HETATM   34  C18 UNL     1      30.797  16.322  25.963  1.00  0.00    -0.032 A 
HETATM   35  C19 UNL     1      31.394  16.757  27.153  1.00  0.00     0.014 A 
HETATM   36  C20 UNL     1      32.002  17.983  27.265  1.00  0.00     0.046 A 
HETATM   37  C21 UNL     1      32.047  18.843  26.194  1.00  0.00     0.154 A 
HETATM   38  F1  UNL     1      32.655  20.069  26.301  1.00  0.00    -0.203 F 
HETATM   39  C22 UNL     1      31.474  18.457  25.006  1.00  0.00     0.155 A 
HETATM   40  F2  UNL     1      31.530  19.319  23.964  1.00  0.00    -0.203 F 
HETATM   41  C23 UNL     1      30.867  17.230  24.898  1.00  0.00     0.057 A 
ENDBRANCH   5  34
TORSDOF 14
ENDMDL
