MODEL 1
REMARK VINA RESULT: -5.618374919      0.000      0.000
REMARK  17 active torsions:
REMARK  status: ('A' for Active; 'I' for Inactive)
REMARK    1  A    between atoms: C2_2  and  C3_3 
REMARK    2  A    between atoms: C3_3  and  C4_4 
REMARK    3  A    between atoms: C4_4  and  C5_5 
REMARK    4  A    between atoms: C5_5  and  C6_6 
REMARK    5  A    between atoms: C6_6  and  C7_7 
REMARK    6  A    between atoms: C7_7  and  C8_8 
REMARK    7  A    between atoms: C8_8  and  N1_9 
REMARK    8  A    between atoms: N1_9  and  C9_10 
REMARK    9  A    between atoms: N1_9  and  C11_12 
REMARK   10  A    between atoms: C11_12  and  C12_13 
REMARK   11  A    between atoms: C15_17  and  O1_18 
REMARK   12  A    between atoms: O1_18  and  C16_19 
REMARK   13  A    between atoms: C16_19  and  C17_20 
REMARK   14  A    between atoms: C17_20  and  N2_21 
REMARK   15  A    between atoms: C22_29  and  C23_30 
REMARK   16  A    between atoms: C23_30  and  O5_32 
REMARK   17  A    between atoms: O5_32  and  C24_33 
ROOT
HETATM    1  C12 UNL     1      27.214  13.979  25.920  1.00  0.00    -0.022 A 
HETATM    2  C13 UNL     1      27.827  15.203  25.875  1.00  0.00     0.031 A 
HETATM    3  C14 UNL     1      29.007  15.534  26.578  1.00  0.00     0.046 A 
HETATM    4 BR1  UNL     1      29.785  17.261  26.448  1.00  0.00    -0.048 Br
HETATM    5  C15 UNL     1      29.543  14.553  27.340  1.00  0.00     0.103 A 
HETATM    6  C22 UNL     1      28.954  13.316  27.415  1.00  0.00     0.080 A 
HETATM    7  C26 UNL     1      27.823  12.992  26.728  1.00  0.00    -0.035 A 
HETATM    8  C27 UNL     1      27.320  11.624  26.831  1.00  0.00     0.050 C 
ENDROOT
BRANCH   1   9
HETATM    9  C11 UNL     1      26.033  13.564  25.143  1.00  0.00     0.311 C 
BRANCH   9  10
HETATM   10  N1  UNL     1      26.307  13.352  23.717  1.00  0.00     0.092 N 
BRANCH  10  11
HETATM   11  C8  UNL     1      26.082  14.347  22.772  1.00  0.00     0.272 C 
BRANCH  11  12
HETATM   12  C7  UNL     1      26.401  14.013  21.359  1.00  0.00     0.030 C 
BRANCH  12  13
HETATM   13  C6  UNL     1      27.662  14.688  20.795  1.00  0.00     0.002 C 
BRANCH  13  14
HETATM   14  C5  UNL     1      28.611  13.602  20.416  1.00  0.00     0.000 C 
BRANCH  14  15
HETATM   15  C4  UNL     1      28.867  12.517  21.400  1.00  0.00     0.000 C 
BRANCH  15  16
HETATM   16  C3  UNL     1      30.175  12.967  22.088  1.00  0.00    -0.000 C 
BRANCH  16  17
HETATM   17  C2  UNL     1      29.990  13.672  23.365  1.00  0.00    -0.005 C 
HETATM   18  C1  UNL     1      30.550  15.054  23.329  1.00  0.00     0.005 C 
ENDBRANCH  16  17
ENDBRANCH  15  16
ENDBRANCH  14  15
ENDBRANCH  13  14
ENDBRANCH  12  13
ENDBRANCH  11  12
ENDBRANCH  10  11
BRANCH  10  19
HETATM   19  C9  UNL     1      25.480  12.145  23.479  1.00  0.00     0.268 C 
HETATM   20  C10 UNL     1      26.085  10.832  23.472  1.00  0.00     0.037 C 
ENDBRANCH  10  19
ENDBRANCH   9  10
ENDBRANCH   1   9
BRANCH   6  21
HETATM   21  C23 UNL     1      29.373  12.430  28.551  1.00  0.00     0.296 C 
HETATM   22  O4  UNL     1      30.164  11.543  28.584  1.00  0.00    -0.259 OA
BRANCH  21  23
HETATM   23  O5  UNL     1      28.648  12.813  29.699  1.00  0.00    -0.318 OA
BRANCH  23  24
HETATM   24  C24 UNL     1      27.994  11.951  30.532  1.00  0.00     0.174 C 
HETATM   25  C25 UNL     1      26.485  12.213  30.377  1.00  0.00     0.034 C 
ENDBRANCH  23  24
ENDBRANCH  21  23
ENDBRANCH   6  21
BRANCH   5  26
HETATM   26  O1  UNL     1      30.743  14.684  28.101  1.00  0.00    -0.347 OA
BRANCH  26  27
HETATM   27  C16 UNL     1      31.845  14.584  27.214  1.00  0.00     0.196 C 
BRANCH  27  28
HETATM   28  C17 UNL     1      32.775  13.443  27.382  1.00  0.00     0.162 C 
BRANCH  28  29
HETATM   29  N2  UNL     1      32.992  12.967  25.998  1.00  0.00    -0.283 N 
HETATM   30  C18 UNL     1      33.808  13.430  25.061  1.00  0.00     0.116 A 
HETATM   31 BR2  UNL     1      34.994  14.882  25.208  1.00  0.00    -0.028 Br
HETATM   32  C19 UNL     1      33.648  12.669  23.891  1.00  0.00     0.089 A 
HETATM   33  C20 UNL     1      34.364  12.850  22.602  1.00  0.00     0.080 C 
HETATM   34  O2  UNL     1      32.733  11.775  24.194  1.00  0.00    -0.263 OA
HETATM   35  C21 UNL     1      32.321  11.927  25.442  1.00  0.00     0.373 A 
HETATM   36  O3  UNL     1      31.453  11.213  26.002  1.00  0.00    -0.237 OA
ENDBRANCH  28  29
ENDBRANCH  27  28
ENDBRANCH  26  27
ENDBRANCH   5  26
TORSDOF 17
ENDMDL
MODEL 2
REMARK VINA RESULT: -5.530341097      3.615      6.356
REMARK  17 active torsions:
REMARK  status: ('A' for Active; 'I' for Inactive)
REMARK    1  A    between atoms: C2_2  and  C3_3 
REMARK    2  A    between atoms: C3_3  and  C4_4 
REMARK    3  A    between atoms: C4_4  and  C5_5 
REMARK    4  A    between atoms: C5_5  and  C6_6 
REMARK    5  A    between atoms: C6_6  and  C7_7 
REMARK    6  A    between atoms: C7_7  and  C8_8 
REMARK    7  A    between atoms: C8_8  and  N1_9 
REMARK    8  A    between atoms: N1_9  and  C9_10 
REMARK    9  A    between atoms: N1_9  and  C11_12 
REMARK   10  A    between atoms: C11_12  and  C12_13 
REMARK   11  A    between atoms: C15_17  and  O1_18 
REMARK   12  A    between atoms: O1_18  and  C16_19 
REMARK   13  A    between atoms: C16_19  and  C17_20 
REMARK   14  A    between atoms: C17_20  and  N2_21 
REMARK   15  A    between atoms: C22_29  and  C23_30 
REMARK   16  A    between atoms: C23_30  and  O5_32 
REMARK   17  A    between atoms: O5_32  and  C24_33 
ROOT
HETATM    1  C12 UNL     1      30.511  14.642  24.821  1.00  0.00    -0.022 A 
HETATM    2  C13 UNL     1      31.173  15.841  24.791  1.00  0.00     0.031 A 
HETATM    3  C14 UNL     1      30.648  17.058  25.279  1.00  0.00     0.046 A 
HETATM    4 BR1  UNL     1      31.646  18.671  25.195  1.00  0.00    -0.048 Br
HETATM    5  C15 UNL     1      29.403  17.003  25.805  1.00  0.00     0.103 A 
HETATM    6  C22 UNL     1      28.707  15.822  25.848  1.00  0.00     0.080 A 
HETATM    7  C26 UNL     1      29.217  14.645  25.388  1.00  0.00    -0.035 A 
HETATM    8  C27 UNL     1      28.412  13.435  25.544  1.00  0.00     0.050 C 
ENDROOT
BRANCH   1   9
HETATM    9  C11 UNL     1      31.048  13.337  24.400  1.00  0.00     0.311 C 
BRANCH   9  10
HETATM   10  N1  UNL     1      31.110  13.164  22.944  1.00  0.00     0.092 N 
BRANCH  10  11
HETATM   11  C8  UNL     1      30.050  12.623  22.225  1.00  0.00     0.272 C 
BRANCH  11  12
HETATM   12  C7  UNL     1      29.385  13.515  21.238  1.00  0.00     0.030 C 
BRANCH  12  13
HETATM   13  C6  UNL     1      28.477  14.598  21.844  1.00  0.00     0.002 C 
BRANCH  13  14
HETATM   14  C5  UNL     1      27.327  14.780  20.912  1.00  0.00     0.000 C 
BRANCH  14  15
HETATM   15  C4  UNL     1      25.965  14.439  21.403  1.00  0.00     0.000 C 
BRANCH  15  16
HETATM   16  C3  UNL     1      26.224  13.922  22.834  1.00  0.00    -0.000 C 
BRANCH  16  17
HETATM   17  C2  UNL     1      25.721  12.566  23.102  1.00  0.00    -0.005 C 
HETATM   18  C1  UNL     1      24.765  12.539  24.247  1.00  0.00     0.005 C 
ENDBRANCH  16  17
ENDBRANCH  15  16
ENDBRANCH  14  15
ENDBRANCH  13  14
ENDBRANCH  12  13
ENDBRANCH  11  12
ENDBRANCH  10  11
BRANCH  10  19
HETATM   19  C9  UNL     1      32.342  12.345  22.840  1.00  0.00     0.268 C 
HETATM   20  C10 UNL     1      32.802  11.568  23.969  1.00  0.00     0.037 C 
ENDBRANCH  10  19
ENDBRANCH   9  10
ENDBRANCH   1   9
BRANCH   6  21
HETATM   21  C23 UNL     1      27.227  15.911  26.080  1.00  0.00     0.296 C 
HETATM   22  O4  UNL     1      26.348  16.203  25.334  1.00  0.00    -0.259 OA
BRANCH  21  23
HETATM   23  O5  UNL     1      26.969  15.571  27.424  1.00  0.00    -0.318 OA
BRANCH  23  24
HETATM   24  C24 UNL     1      25.732  15.314  27.941  1.00  0.00     0.174 C 
HETATM   25  C25 UNL     1      25.458  13.810  27.760  1.00  0.00     0.034 C 
ENDBRANCH  23  24
ENDBRANCH  21  23
ENDBRANCH   6  21
BRANCH   5  26
HETATM   26  O1  UNL     1      28.714  18.117  26.372  1.00  0.00    -0.347 OA
BRANCH  26  27
HETATM   27  C16 UNL     1      29.144  18.268  27.715  1.00  0.00     0.196 C 
BRANCH  27  28
HETATM   28  C17 UNL     1      28.751  19.499  28.439  1.00  0.00     0.162 C 
BRANCH  28  29
HETATM   29  N2  UNL     1      27.399  19.792  27.916  1.00  0.00    -0.283 N 
HETATM   30  C18 UNL     1      27.029  20.587  26.921  1.00  0.00     0.116 A 
HETATM   31 BR2  UNL     1      28.150  21.619  25.819  1.00  0.00    -0.028 Br
HETATM   32  C19 UNL     1      25.629  20.564  26.807  1.00  0.00     0.089 A 
HETATM   33  C20 UNL     1      24.800  21.313  25.828  1.00  0.00     0.080 C 
HETATM   34  O2  UNL     1      25.228  19.744  27.753  1.00  0.00    -0.263 OA
HETATM   35  C21 UNL     1      26.259  19.267  28.432  1.00  0.00     0.373 A 
HETATM   36  O3  UNL     1      26.174  18.461  29.390  1.00  0.00    -0.237 OA
ENDBRANCH  28  29
ENDBRANCH  27  28
ENDBRANCH  26  27
ENDBRANCH   5  26
TORSDOF 17
ENDMDL
MODEL 3
REMARK VINA RESULT: -5.523511280      4.176      7.111
REMARK  17 active torsions:
REMARK  status: ('A' for Active; 'I' for Inactive)
REMARK    1  A    between atoms: C2_2  and  C3_3 
REMARK    2  A    between atoms: C3_3  and  C4_4 
REMARK    3  A    between atoms: C4_4  and  C5_5 
REMARK    4  A    between atoms: C5_5  and  C6_6 
REMARK    5  A    between atoms: C6_6  and  C7_7 
REMARK    6  A    between atoms: C7_7  and  C8_8 
REMARK    7  A    between atoms: C8_8  and  N1_9 
REMARK    8  A    between atoms: N1_9  and  C9_10 
REMARK    9  A    between atoms: N1_9  and  C11_12 
REMARK   10  A    between atoms: C11_12  and  C12_13 
REMARK   11  A    between atoms: C15_17  and  O1_18 
REMARK   12  A    between atoms: O1_18  and  C16_19 
REMARK   13  A    between atoms: C16_19  and  C17_20 
REMARK   14  A    between atoms: C17_20  and  N2_21 
REMARK   15  A    between atoms: C22_29  and  C23_30 
REMARK   16  A    between atoms: C23_30  and  O5_32 
REMARK   17  A    between atoms: O5_32  and  C24_33 
ROOT
HETATM    1  C12 UNL     1      28.068  15.006  24.272  1.00  0.00    -0.022 A 
HETATM    2  C13 UNL     1      27.066  15.346  25.141  1.00  0.00     0.031 A 
HETATM    3  C14 UNL     1      27.206  16.262  26.207  1.00  0.00     0.046 A 
HETATM    4 BR1  UNL     1      25.753  16.670  27.359  1.00  0.00    -0.048 Br
HETATM    5  C15 UNL     1      28.428  16.823  26.355  1.00  0.00     0.103 A 
HETATM    6  C22 UNL     1      29.458  16.504  25.508  1.00  0.00     0.080 A 
HETATM    7  C26 UNL     1      29.321  15.631  24.472  1.00  0.00    -0.035 A 
HETATM    8  C27 UNL     1      30.469  15.415  23.593  1.00  0.00     0.050 C 
ENDROOT
BRANCH   1   9
HETATM    9  C11 UNL     1      27.947  14.123  23.100  1.00  0.00     0.311 C 
BRANCH   9  10
HETATM   10  N1  UNL     1      26.561  13.876  22.685  1.00  0.00     0.092 N 
BRANCH  10  11
HETATM   11  C8  UNL     1      25.956  12.636  22.855  1.00  0.00     0.272 C 
BRANCH  11  12
HETATM   12  C7  UNL     1      24.832  12.567  23.827  1.00  0.00     0.030 C 
BRANCH  12  13
HETATM   13  C6  UNL     1      25.232  12.180  25.261  1.00  0.00     0.002 C 
BRANCH  13  14
HETATM   14  C5  UNL     1      26.412  11.273  25.160  1.00  0.00     0.000 C 
BRANCH  14  15
HETATM   15  C4  UNL     1      27.362  11.227  26.303  1.00  0.00     0.000 C 
BRANCH  15  16
HETATM   16  C3  UNL     1      27.006  12.494  27.109  1.00  0.00    -0.000 C 
BRANCH  16  17
HETATM   17  C2  UNL     1      28.111  13.050  27.905  1.00  0.00    -0.005 C 
HETATM   18  C1  UNL     1      29.394  13.071  27.146  1.00  0.00     0.005 C 
ENDBRANCH  16  17
ENDBRANCH  15  16
ENDBRANCH  14  15
ENDBRANCH  13  14
ENDBRANCH  12  13
ENDBRANCH  11  12
ENDBRANCH  10  11
BRANCH  10  19
HETATM   19  C9  UNL     1      26.651  14.274  21.259  1.00  0.00     0.268 C 
HETATM   20  C10 UNL     1      27.934  14.568  20.660  1.00  0.00     0.037 C 
ENDBRANCH  10  19
ENDBRANCH   9  10
ENDBRANCH   1   9
BRANCH   6  21
HETATM   21  C23 UNL     1      30.845  16.858  25.959  1.00  0.00     0.296 C 
HETATM   22  O4  UNL     1      31.590  16.277  26.682  1.00  0.00    -0.259 OA
BRANCH  21  23
HETATM   23  O5  UNL     1      31.205  18.084  25.362  1.00  0.00    -0.318 OA
BRANCH  23  24
HETATM   24  C24 UNL     1      32.381  18.319  24.710  1.00  0.00     0.174 C 
HETATM   25  C25 UNL     1      32.049  19.081  23.415  1.00  0.00     0.034 C 
ENDBRANCH  23  24
ENDBRANCH  21  23
ENDBRANCH   6  21
BRANCH   5  26
HETATM   26  O1  UNL     1      28.759  17.788  27.353  1.00  0.00    -0.347 OA
BRANCH  26  27
HETATM   27  C16 UNL     1      28.403  19.071  26.866  1.00  0.00     0.196 C 
BRANCH  27  28
HETATM   28  C17 UNL     1      27.553  19.932  27.721  1.00  0.00     0.162 C 
BRANCH  28  29
HETATM   29  N2  UNL     1      27.042  20.954  26.782  1.00  0.00    -0.283 N 
HETATM   30  C18 UNL     1      27.614  22.070  26.349  1.00  0.00     0.116 A 
HETATM   31 BR2  UNL     1      29.321  22.717  26.803  1.00  0.00    -0.028 Br
HETATM   32  C19 UNL     1      26.732  22.737  25.484  1.00  0.00     0.089 A 
HETATM   33  C20 UNL     1      26.972  24.024  24.782  1.00  0.00     0.080 C 
HETATM   34  O2  UNL     1      25.662  21.975  25.441  1.00  0.00    -0.263 OA
HETATM   35  C21 UNL     1      25.815  20.905  26.204  1.00  0.00     0.373 A 
HETATM   36  O3  UNL     1      24.955  20.003  26.354  1.00  0.00    -0.237 OA
ENDBRANCH  28  29
ENDBRANCH  27  28
ENDBRANCH  26  27
ENDBRANCH   5  26
TORSDOF 17
ENDMDL
MODEL 4
REMARK VINA RESULT: -5.423294768      2.585      4.520
REMARK  17 active torsions:
REMARK  status: ('A' for Active; 'I' for Inactive)
REMARK    1  A    between atoms: C2_2  and  C3_3 
REMARK    2  A    between atoms: C3_3  and  C4_4 
REMARK    3  A    between atoms: C4_4  and  C5_5 
REMARK    4  A    between atoms: C5_5  and  C6_6 
REMARK    5  A    between atoms: C6_6  and  C7_7 
REMARK    6  A    between atoms: C7_7  and  C8_8 
REMARK    7  A    between atoms: C8_8  and  N1_9 
REMARK    8  A    between atoms: N1_9  and  C9_10 
REMARK    9  A    between atoms: N1_9  and  C11_12 
REMARK   10  A    between atoms: C11_12  and  C12_13 
REMARK   11  A    between atoms: C15_17  and  O1_18 
REMARK   12  A    between atoms: O1_18  and  C16_19 
REMARK   13  A    between atoms: C16_19  and  C17_20 
REMARK   14  A    between atoms: C17_20  and  N2_21 
REMARK   15  A    between atoms: C22_29  and  C23_30 
REMARK   16  A    between atoms: C23_30  and  O5_32 
REMARK   17  A    between atoms: O5_32  and  C24_33 
ROOT
HETATM    1  C12 UNL     1      28.527  14.900  24.897  1.00  0.00    -0.022 A 
HETATM    2  C13 UNL     1      29.266  14.016  24.157  1.00  0.00     0.031 A 
HETATM    3  C14 UNL     1      30.677  14.009  24.091  1.00  0.00     0.046 A 
HETATM    4 BR1  UNL     1      31.612  12.737  23.036  1.00  0.00    -0.048 Br
HETATM    5  C15 UNL     1      31.313  14.954  24.820  1.00  0.00     0.103 A 
HETATM    6  C22 UNL     1      30.608  15.861  25.569  1.00  0.00     0.080 A 
HETATM    7  C26 UNL     1      29.248  15.861  25.643  1.00  0.00    -0.035 A 
HETATM    8  C27 UNL     1      28.603  16.832  26.525  1.00  0.00     0.050 C 
ENDROOT
BRANCH   1   9
HETATM    9  C11 UNL     1      27.063  14.895  25.060  1.00  0.00     0.311 C 
BRANCH   9  10
HETATM   10  N1  UNL     1      26.497  13.558  25.277  1.00  0.00     0.092 N 
BRANCH  10  11
HETATM   11  C8  UNL     1      25.272  13.185  24.735  1.00  0.00     0.272 C 
BRANCH  11  12
HETATM   12  C7  UNL     1      25.305  12.214  23.610  1.00  0.00     0.030 C 
BRANCH  12  13
HETATM   13  C6  UNL     1      26.579  11.359  23.522  1.00  0.00     0.002 C 
BRANCH  13  14
HETATM   14  C5  UNL     1      26.964  11.288  22.083  1.00  0.00     0.000 C 
BRANCH  14  15
HETATM   15  C4  UNL     1      28.090  12.138  21.614  1.00  0.00     0.000 C 
BRANCH  15  16
HETATM   16  C3  UNL     1      27.408  13.123  20.640  1.00  0.00    -0.000 C 
BRANCH  16  17
HETATM   17  C2  UNL     1      27.621  14.545  20.949  1.00  0.00    -0.005 C 
HETATM   18  C1  UNL     1      26.379  15.202  21.449  1.00  0.00     0.005 C 
ENDBRANCH  16  17
ENDBRANCH  15  16
ENDBRANCH  14  15
ENDBRANCH  13  14
ENDBRANCH  12  13
ENDBRANCH  11  12
ENDBRANCH  10  11
BRANCH  10  19
HETATM   19  C9  UNL     1      26.497  13.522  26.759  1.00  0.00     0.268 C 
HETATM   20  C10 UNL     1      27.238  12.501  27.467  1.00  0.00     0.037 C 
ENDBRANCH  10  19
ENDBRANCH   9  10
ENDBRANCH   1   9
BRANCH   6  21
HETATM   21  C23 UNL     1      31.343  17.087  26.025  1.00  0.00     0.296 C 
HETATM   22  O4  UNL     1      31.879  17.321  27.061  1.00  0.00    -0.259 OA
BRANCH  21  23
HETATM   23  O5  UNL     1      31.330  18.026  24.974  1.00  0.00    -0.318 OA
BRANCH  23  24
HETATM   24  C24 UNL     1      32.433  18.659  24.478  1.00  0.00     0.174 C 
HETATM   25  C25 UNL     1      32.034  19.305  23.139  1.00  0.00     0.034 C 
ENDBRANCH  23  24
ENDBRANCH  21  23
ENDBRANCH   6  21
BRANCH   5  26
HETATM   26  O1  UNL     1      32.731  15.092  24.904  1.00  0.00    -0.347 OA
BRANCH  26  27
HETATM   27  C16 UNL     1      33.203  14.215  25.913  1.00  0.00     0.196 C 
BRANCH  27  28
HETATM   28  C17 UNL     1      34.648  13.889  25.935  1.00  0.00     0.162 C 
BRANCH  28  29
HETATM   29  N2  UNL     1      34.747  12.700  25.060  1.00  0.00    -0.283 N 
HETATM   30  C18 UNL     1      34.457  11.432  25.317  1.00  0.00     0.116 A 
HETATM   31 BR2  UNL     1      33.795  10.725  26.929  1.00  0.00    -0.028 Br
HETATM   32  C19 UNL     1      34.738  10.654  24.181  1.00  0.00     0.089 A 
HETATM   33  C20 UNL     1      34.562   9.186  24.038  1.00  0.00     0.080 C 
HETATM   34  O2  UNL     1      35.186  11.509  23.290  1.00  0.00    -0.263 OA
HETATM   35  C21 UNL     1      35.204  12.738  23.782  1.00  0.00     0.373 A 
HETATM   36  O3  UNL     1      35.583  13.756  23.154  1.00  0.00    -0.237 OA
ENDBRANCH  28  29
ENDBRANCH  27  28
ENDBRANCH  26  27
ENDBRANCH   5  26
TORSDOF 17
ENDMDL
MODEL 5
REMARK VINA RESULT: -5.414495779      4.096      6.475
REMARK  17 active torsions:
REMARK  status: ('A' for Active; 'I' for Inactive)
REMARK    1  A    between atoms: C2_2  and  C3_3 
REMARK    2  A    between atoms: C3_3  and  C4_4 
REMARK    3  A    between atoms: C4_4  and  C5_5 
REMARK    4  A    between atoms: C5_5  and  C6_6 
REMARK    5  A    between atoms: C6_6  and  C7_7 
REMARK    6  A    between atoms: C7_7  and  C8_8 
REMARK    7  A    between atoms: C8_8  and  N1_9 
REMARK    8  A    between atoms: N1_9  and  C9_10 
REMARK    9  A    between atoms: N1_9  and  C11_12 
REMARK   10  A    between atoms: C11_12  and  C12_13 
REMARK   11  A    between atoms: C15_17  and  O1_18 
REMARK   12  A    between atoms: O1_18  and  C16_19 
REMARK   13  A    between atoms: C16_19  and  C17_20 
REMARK   14  A    between atoms: C17_20  and  N2_21 
REMARK   15  A    between atoms: C22_29  and  C23_30 
REMARK   16  A    between atoms: C23_30  and  O5_32 
REMARK   17  A    between atoms: O5_32  and  C24_33 
ROOT
HETATM    1  C12 UNL     1      27.088  13.702  26.993  1.00  0.00    -0.022 A 
HETATM    2  C13 UNL     1      26.044  14.156  27.753  1.00  0.00     0.031 A 
HETATM    3  C14 UNL     1      25.969  15.446  28.323  1.00  0.00     0.046 A 
HETATM    4 BR1  UNL     1      24.473  15.985  29.362  1.00  0.00    -0.048 Br
HETATM    5  C15 UNL     1      27.019  16.266  28.085  1.00  0.00     0.103 A 
HETATM    6  C22 UNL     1      28.086  15.845  27.333  1.00  0.00     0.080 A 
HETATM    7  C26 UNL     1      28.154  14.606  26.773  1.00  0.00    -0.035 A 
HETATM    8  C27 UNL     1      29.309  14.287  25.936  1.00  0.00     0.050 C 
ENDROOT
BRANCH   1   9
HETATM    9  C11 UNL     1      27.172  12.399  26.312  1.00  0.00     0.311 C 
BRANCH   9  10
HETATM   10  N1  UNL     1      26.821  12.451  24.888  1.00  0.00     0.092 N 
BRANCH  10  11
HETATM   11  C8  UNL     1      25.916  13.383  24.391  1.00  0.00     0.272 C 
BRANCH  11  12
HETATM   12  C7  UNL     1      26.435  14.353  23.391  1.00  0.00     0.030 C 
BRANCH  12  13
HETATM   13  C6  UNL     1      25.984  14.104  21.942  1.00  0.00     0.002 C 
BRANCH  13  14
HETATM   14  C5  UNL     1      26.720  15.072  21.079  1.00  0.00     0.000 C 
BRANCH  14  15
HETATM   15  C4  UNL     1      28.110  14.734  20.671  1.00  0.00     0.000 C 
BRANCH  15  16
HETATM   16  C3  UNL     1      28.098  13.190  20.624  1.00  0.00    -0.000 C 
BRANCH  16  17
HETATM   17  C2  UNL     1      29.158  12.541  21.410  1.00  0.00    -0.005 C 
HETATM   18  C1  UNL     1      29.943  13.522  22.213  1.00  0.00     0.005 C 
ENDBRANCH  16  17
ENDBRANCH  15  16
ENDBRANCH  14  15
ENDBRANCH  13  14
ENDBRANCH  12  13
ENDBRANCH  11  12
ENDBRANCH  10  11
BRANCH  10  19
HETATM   19  C9  UNL     1      26.365  11.054  24.690  1.00  0.00     0.268 C 
HETATM   20  C10 UNL     1      26.099  10.553  23.360  1.00  0.00     0.037 C 
ENDBRANCH  10  19
ENDBRANCH   9  10
ENDBRANCH   1   9
BRANCH   6  21
HETATM   21  C23 UNL     1      29.350  16.647  27.437  1.00  0.00     0.296 C 
HETATM   22  O4  UNL     1      30.190  16.654  28.280  1.00  0.00    -0.259 OA
BRANCH  21  23
HETATM   23  O5  UNL     1      29.442  17.476  26.299  1.00  0.00    -0.318 OA
BRANCH  23  24
HETATM   24  C24 UNL     1      30.589  18.067  25.855  1.00  0.00     0.174 C 
HETATM   25  C25 UNL     1      31.126  17.217  24.689  1.00  0.00     0.034 C 
ENDBRANCH  23  24
ENDBRANCH  21  23
ENDBRANCH   6  21
BRANCH   5  26
HETATM   26  O1  UNL     1      27.117  17.611  28.552  1.00  0.00    -0.347 OA
BRANCH  26  27
HETATM   27  C16 UNL     1      26.352  18.437  27.689  1.00  0.00     0.196 C 
BRANCH  27  28
HETATM   28  C17 UNL     1      25.967  19.784  28.171  1.00  0.00     0.162 C 
BRANCH  28  29
HETATM   29  N2  UNL     1      26.259  20.660  27.016  1.00  0.00    -0.283 N 
HETATM   30  C18 UNL     1      27.392  21.257  26.670  1.00  0.00     0.116 A 
HETATM   31 BR2  UNL     1      29.043  21.162  27.566  1.00  0.00    -0.028 Br
HETATM   32  C19 UNL     1      27.179  22.013  25.505  1.00  0.00     0.089 A 
HETATM   33  C20 UNL     1      28.179  22.840  24.781  1.00  0.00     0.080 C 
HETATM   34  O2  UNL     1      25.913  21.826  25.209  1.00  0.00    -0.263 OA
HETATM   35  C21 UNL     1      25.336  21.024  26.091  1.00  0.00     0.373 A 
HETATM   36  O3  UNL     1      24.132  20.670  26.057  1.00  0.00    -0.237 OA
ENDBRANCH  28  29
ENDBRANCH  27  28
ENDBRANCH  26  27
ENDBRANCH   5  26
TORSDOF 17
ENDMDL
