MODEL 1
REMARK VINA RESULT: -7.309361038      0.000      0.000
REMARK  17 active torsions:
REMARK  status: ('A' for Active; 'I' for Inactive)
REMARK    1  A    between atoms: C2_2  and  C3_4 
REMARK    2  A    between atoms: C5_8  and  N1_9 
REMARK    3  A    between atoms: N1_9  and  C7_11 
REMARK    4  A    between atoms: C7_11  and  C8_12 
REMARK    5  A    between atoms: C8_12  and  C9_13 
REMARK    6  A    between atoms: C9_13  and  C10_14 
REMARK    7  A    between atoms: C10_14  and  C11_15 
REMARK    8  A    between atoms: C11_15  and  C12_16 
REMARK    9  A    between atoms: C12_16  and  C13_17 
REMARK   10  A    between atoms: C13_17  and  N2_18 
REMARK   11  A    between atoms: N2_18  and  N3_20 
REMARK   12  A    between atoms: C15_26  and  C16_27 
REMARK   13  A    between atoms: C16_27  and  C17_28 
REMARK   14  A    between atoms: C21_34  and  C22_35 
REMARK   15  A    between atoms: C22_35  and  C23_36 
REMARK   16  A    between atoms: C23_36  and  C24_37 
REMARK   17  A    between atoms: C27_40  and  N5_41 
ROOT
HETATM    1  C3  UNL     1      28.517  12.798  27.363  1.00  0.00     0.188 C 
HETATM    2  C4  UNL     1      27.964  13.705  28.454  1.00  0.00     0.276 C 
HETATM    3  O2  UNL     1      27.493  13.302  29.559  1.00  0.00    -0.264 OA
HETATM    4  O3  UNL     1      28.074  15.007  27.995  1.00  0.00    -0.291 OA
HETATM    5  C5  UNL     1      28.922  15.136  26.867  1.00  0.00     0.260 C 
HETATM    6  C14 UNL     1      29.334  13.724  26.596  1.00  0.00    -0.003 C 
HETATM    7  C15 UNL     1      29.956  13.361  25.372  1.00  0.00     0.065 C 
ENDROOT
BRANCH   1   8
HETATM    8  C2  UNL     1      27.488  11.975  26.782  1.00  0.00     0.141 C 
HETATM    9  C1  UNL     1      27.748  10.450  26.691  1.00  0.00     0.092 C 
HETATM   10  O1  UNL     1      26.428  12.276  26.335  1.00  0.00    -0.297 OA
ENDBRANCH   1   8
BRANCH   5  11
HETATM   11  N1  UNL     1      28.120  15.832  25.887  1.00  0.00    -0.388 N 
HETATM   12  C6  UNL     1      27.542  17.018  26.370  1.00  0.00     0.146 C 
BRANCH  11  13
HETATM   13  C7  UNL     1      27.373  14.989  25.013  1.00  0.00     0.119 C 
BRANCH  13  14
HETATM   14  C8  UNL     1      27.564  15.169  23.555  1.00  0.00     0.019 C 
BRANCH  14  15
HETATM   15  C9  UNL     1      26.523  15.344  22.582  1.00  0.00     0.002 C 
BRANCH  15  16
HETATM   16  C10 UNL     1      26.723  14.962  21.142  1.00  0.00     0.000 C 
BRANCH  16  17
HETATM   17  C11 UNL     1      28.191  14.773  20.746  1.00  0.00     0.002 C 
BRANCH  17  18
HETATM   18  C12 UNL     1      28.384  13.289  20.366  1.00  0.00     0.021 C 
BRANCH  18  19
HETATM   19  C13 UNL     1      28.883  12.500  21.495  1.00  0.00     0.141 C 
BRANCH  19  20
HETATM   20  N2  UNL     1      27.918  11.478  21.846  1.00  0.00    -0.323 N 
ATOM     21  H2  UNL     1      27.854  10.598  21.336  1.00  0.00     0.181 HD
BRANCH  20  22
HETATM   22  N3  UNL     1      27.164  11.741  22.817  1.00  0.00    -0.254 N 
HETATM   23  N4  UNL     1      26.090  11.679  23.390  1.00  0.00    -0.331 N 
ATOM     24  H42 UNL     1      25.534  11.131  22.734  1.00  0.00     0.178 HD
ATOM     25  H41 UNL     1      25.479  11.892  24.177  1.00  0.00     0.178 HD
ATOM     26  H3  UNL     1      27.752  12.286  23.448  1.00  0.00     0.207 HD
ENDBRANCH  20  22
ENDBRANCH  19  20
ENDBRANCH  18  19
ENDBRANCH  17  18
ENDBRANCH  16  17
ENDBRANCH  15  16
ENDBRANCH  14  15
ENDBRANCH  13  14
ENDBRANCH  11  13
ENDBRANCH   5  11
BRANCH   7  27
HETATM   27  C16 UNL     1      30.991  12.741  25.035  1.00  0.00    -0.110 C 
BRANCH  27  28
HETATM   28  C17 UNL     1      32.143  12.060  24.643  1.00  0.00     0.086 A 
HETATM   29  C18 UNL     1      32.632  11.305  25.707  1.00  0.00     0.106 A 
HETATM   30 CL1  UNL     1      31.791  11.342  27.234  1.00  0.00    -0.078 Cl
HETATM   31  C19 UNL     1      33.807  10.522  25.527  1.00  0.00     0.196 A 
HETATM   32  O4  UNL     1      34.209   9.812  26.517  1.00  0.00    -0.287 OA
HETATM   33  C20 UNL     1      34.539  10.489  24.286  1.00  0.00     0.072 A 
HETATM   34  C21 UNL     1      34.115  11.248  23.252  1.00  0.00     0.027 A 
HETATM   35  C32 UNL     1      32.894  12.048  23.402  1.00  0.00     0.202 A 
HETATM   36  O5  UNL     1      32.506  12.745  22.400  1.00  0.00    -0.286 OA
BRANCH  34  37
HETATM   37  C22 UNL     1      34.894  11.151  22.054  1.00  0.00     0.072 C 
BRANCH  37  38
HETATM   38  C23 UNL     1      35.074  10.458  21.045  1.00  0.00    -0.116 C 
BRANCH  38  39
HETATM   39  C24 UNL     1      35.334   9.716  19.906  1.00  0.00     0.009 A 
HETATM   40  C25 UNL     1      36.205  10.323  18.939  1.00  0.00     0.022 A 
HETATM   41  C26 UNL     1      36.720   9.620  17.875  1.00  0.00     0.031 A 
HETATM   42  C27 UNL     1      36.422   8.287  17.682  1.00  0.00     0.029 A 
HETATM   43  C30 UNL     1      35.593   7.682  18.582  1.00  0.00     0.031 A 
HETATM   44  C31 UNL     1      35.049   8.358  19.684  1.00  0.00     0.022 A 
BRANCH  42  45
HETATM   45  N5  UNL     1      37.008   7.578  16.609  1.00  0.00    -0.390 N 
HETATM   46  C28 UNL     1      37.859   8.360  15.728  1.00  0.00     0.149 C 
HETATM   47  C29 UNL     1      36.783   6.155  16.337  1.00  0.00     0.149 C 
ENDBRANCH  42  45
ENDBRANCH  38  39
ENDBRANCH  37  38
ENDBRANCH  34  37
ENDBRANCH  27  28
ENDBRANCH   7  27
TORSDOF 17
ENDMDL
MODEL 2
REMARK VINA RESULT: -7.074614213      1.636      2.156
REMARK  17 active torsions:
REMARK  status: ('A' for Active; 'I' for Inactive)
REMARK    1  A    between atoms: C2_2  and  C3_4 
REMARK    2  A    between atoms: C5_8  and  N1_9 
REMARK    3  A    between atoms: N1_9  and  C7_11 
REMARK    4  A    between atoms: C7_11  and  C8_12 
REMARK    5  A    between atoms: C8_12  and  C9_13 
REMARK    6  A    between atoms: C9_13  and  C10_14 
REMARK    7  A    between atoms: C10_14  and  C11_15 
REMARK    8  A    between atoms: C11_15  and  C12_16 
REMARK    9  A    between atoms: C12_16  and  C13_17 
REMARK   10  A    between atoms: C13_17  and  N2_18 
REMARK   11  A    between atoms: N2_18  and  N3_20 
REMARK   12  A    between atoms: C15_26  and  C16_27 
REMARK   13  A    between atoms: C16_27  and  C17_28 
REMARK   14  A    between atoms: C21_34  and  C22_35 
REMARK   15  A    between atoms: C22_35  and  C23_36 
REMARK   16  A    between atoms: C23_36  and  C24_37 
REMARK   17  A    between atoms: C27_40  and  N5_41 
ROOT
HETATM    1  C3  UNL     1      28.681  12.733  27.285  1.00  0.00     0.188 C 
HETATM    2  C4  UNL     1      27.945  13.365  28.458  1.00  0.00     0.276 C 
HETATM    3  O2  UNL     1      27.710  12.788  29.560  1.00  0.00    -0.264 OA
HETATM    4  O3  UNL     1      27.594  14.649  28.073  1.00  0.00    -0.291 OA
HETATM    5  C5  UNL     1      28.271  15.092  26.909  1.00  0.00     0.260 C 
HETATM    6  C14 UNL     1      29.096  13.904  26.531  1.00  0.00    -0.003 C 
HETATM    7  C15 UNL     1      29.713  13.813  25.254  1.00  0.00     0.065 C 
ENDROOT
BRANCH   1   8
HETATM    8  C2  UNL     1      27.934  11.642  26.712  1.00  0.00     0.141 C 
HETATM    9  C1  UNL     1      28.417  10.200  27.012  1.00  0.00     0.092 C 
HETATM   10  O1  UNL     1      26.972  11.656  26.015  1.00  0.00    -0.297 OA
ENDBRANCH   1   8
BRANCH   5  11
HETATM   11  N1  UNL     1      27.219  15.526  26.019  1.00  0.00    -0.388 N 
HETATM   12  C6  UNL     1      26.119  16.097  26.681  1.00  0.00     0.146 C 
BRANCH  11  13
HETATM   13  C7  UNL     1      27.001  14.683  24.890  1.00  0.00     0.119 C 
BRANCH  13  14
HETATM   14  C8  UNL     1      27.302  15.238  23.550  1.00  0.00     0.019 C 
BRANCH  14  15
HETATM   15  C9  UNL     1      26.366  15.407  22.474  1.00  0.00     0.002 C 
BRANCH  15  16
HETATM   16  C10 UNL     1      26.615  14.812  21.117  1.00  0.00     0.000 C 
BRANCH  16  17
HETATM   17  C11 UNL     1      28.095  14.757  20.724  1.00  0.00     0.002 C 
BRANCH  17  18
HETATM   18  C12 UNL     1      28.439  13.285  20.405  1.00  0.00     0.021 C 
BRANCH  18  19
HETATM   19  C13 UNL     1      28.858  12.555  21.604  1.00  0.00     0.141 C 
BRANCH  19  20
HETATM   20  N2  UNL     1      27.931  11.474  21.871  1.00  0.00    -0.323 N 
ATOM     21  H2  UNL     1      27.939  10.609  21.330  1.00  0.00     0.181 HD
BRANCH  20  22
HETATM   22  N3  UNL     1      27.115  11.665  22.808  1.00  0.00    -0.254 N 
HETATM   23  N4  UNL     1      25.998  11.592  23.292  1.00  0.00    -0.331 N 
ATOM     24  H42 UNL     1      25.473  11.147  22.539  1.00  0.00     0.178 HD
ATOM     25  H41 UNL     1      25.337  11.747  24.052  1.00  0.00     0.178 HD
ATOM     26  H3  UNL     1      27.673  12.109  23.537  1.00  0.00     0.207 HD
ENDBRANCH  20  22
ENDBRANCH  19  20
ENDBRANCH  18  19
ENDBRANCH  17  18
ENDBRANCH  16  17
ENDBRANCH  15  16
ENDBRANCH  14  15
ENDBRANCH  13  14
ENDBRANCH  11  13
ENDBRANCH   5  11
BRANCH   7  27
HETATM   27  C16 UNL     1      30.866  13.579  24.824  1.00  0.00    -0.110 C 
BRANCH  27  28
HETATM   28  C17 UNL     1      32.147  13.332  24.332  1.00  0.00     0.086 A 
HETATM   29  C18 UNL     1      33.026  14.313  24.786  1.00  0.00     0.106 A 
HETATM   30 CL1  UNL     1      32.422  15.589  25.809  1.00  0.00    -0.078 Cl
HETATM   31  C19 UNL     1      34.396  14.254  24.406  1.00  0.00     0.196 A 
HETATM   32  O4  UNL     1      35.185  15.153  24.872  1.00  0.00    -0.287 OA
HETATM   33  C20 UNL     1      34.922  13.226  23.542  1.00  0.00     0.072 A 
HETATM   34  C21 UNL     1      34.084  12.291  23.048  1.00  0.00     0.027 A 
HETATM   35  C32 UNL     1      32.670  12.313  23.441  1.00  0.00     0.202 A 
HETATM   36  O5  UNL     1      31.901  11.404  22.970  1.00  0.00    -0.286 OA
BRANCH  34  37
HETATM   37  C22 UNL     1      34.688  11.303  22.205  1.00  0.00     0.072 C 
BRANCH  37  38
HETATM   38  C23 UNL     1      35.388  11.158  21.196  1.00  0.00    -0.116 C 
BRANCH  38  39
HETATM   39  C24 UNL     1      36.221  11.029  20.098  1.00  0.00     0.009 A 
HETATM   40  C25 UNL     1      35.840  10.043  19.126  1.00  0.00     0.022 A 
HETATM   41  C26 UNL     1      36.444   9.959  17.893  1.00  0.00     0.031 A 
HETATM   42  C27 UNL     1      37.453  10.824  17.526  1.00  0.00     0.029 A 
HETATM   43  C30 UNL     1      37.841  11.771  18.430  1.00  0.00     0.031 A 
HETATM   44  C31 UNL     1      37.250  11.897  19.695  1.00  0.00     0.022 A 
BRANCH  42  45
HETATM   45  N5  UNL     1      38.019  10.747  16.233  1.00  0.00    -0.390 N 
HETATM   46  C28 UNL     1      37.749   9.521  15.501  1.00  0.00     0.149 C 
HETATM   47  C29 UNL     1      38.854  11.791  15.632  1.00  0.00     0.149 C 
ENDBRANCH  42  45
ENDBRANCH  38  39
ENDBRANCH  37  38
ENDBRANCH  34  37
ENDBRANCH  27  28
ENDBRANCH   7  27
TORSDOF 17
ENDMDL
MODEL 3
REMARK VINA RESULT: -6.817826726      2.143      3.826
REMARK  17 active torsions:
REMARK  status: ('A' for Active; 'I' for Inactive)
REMARK    1  A    between atoms: C2_2  and  C3_4 
REMARK    2  A    between atoms: C5_8  and  N1_9 
REMARK    3  A    between atoms: N1_9  and  C7_11 
REMARK    4  A    between atoms: C7_11  and  C8_12 
REMARK    5  A    between atoms: C8_12  and  C9_13 
REMARK    6  A    between atoms: C9_13  and  C10_14 
REMARK    7  A    between atoms: C10_14  and  C11_15 
REMARK    8  A    between atoms: C11_15  and  C12_16 
REMARK    9  A    between atoms: C12_16  and  C13_17 
REMARK   10  A    between atoms: C13_17  and  N2_18 
REMARK   11  A    between atoms: N2_18  and  N3_20 
REMARK   12  A    between atoms: C15_26  and  C16_27 
REMARK   13  A    between atoms: C16_27  and  C17_28 
REMARK   14  A    between atoms: C21_34  and  C22_35 
REMARK   15  A    between atoms: C22_35  and  C23_36 
REMARK   16  A    between atoms: C23_36  and  C24_37 
REMARK   17  A    between atoms: C27_40  and  N5_41 
ROOT
HETATM    1  C3  UNL     1      26.992  13.496  24.355  1.00  0.00     0.188 C 
HETATM    2  C4  UNL     1      25.559  13.190  24.771  1.00  0.00     0.276 C 
HETATM    3  O2  UNL     1      24.624  12.886  23.972  1.00  0.00    -0.264 OA
HETATM    4  O3  UNL     1      25.499  13.317  26.148  1.00  0.00    -0.291 OA
HETATM    5  C5  UNL     1      26.775  13.358  26.766  1.00  0.00     0.260 C 
HETATM    6  C14 UNL     1      27.711  13.289  25.602  1.00  0.00    -0.003 C 
HETATM    7  C15 UNL     1      29.091  13.593  25.748  1.00  0.00     0.065 C 
ENDROOT
BRANCH   1   8
HETATM    8  C2  UNL     1      27.075  14.707  23.581  1.00  0.00     0.141 C 
HETATM    9  C1  UNL     1      28.084  14.745  22.404  1.00  0.00     0.092 C 
HETATM   10  O1  UNL     1      26.481  15.731  23.695  1.00  0.00    -0.297 OA
ENDBRANCH   1   8
BRANCH   5  11
HETATM   11  N1  UNL     1      26.750  14.555  27.574  1.00  0.00    -0.388 N 
HETATM   12  C6  UNL     1      27.156  14.347  28.903  1.00  0.00     0.146 C 
BRANCH  11  13
HETATM   13  C7  UNL     1      25.669  15.444  27.298  1.00  0.00     0.119 C 
BRANCH  13  14
HETATM   14  C8  UNL     1      26.001  16.773  26.734  1.00  0.00     0.019 C 
BRANCH  14  15
HETATM   15  C9  UNL     1      27.187  17.535  27.006  1.00  0.00     0.002 C 
BRANCH  15  16
HETATM   16  C10 UNL     1      28.484  17.245  26.304  1.00  0.00     0.000 C 
BRANCH  16  17
HETATM   17  C11 UNL     1      29.632  16.869  27.247  1.00  0.00     0.002 C 
BRANCH  17  18
HETATM   18  C12 UNL     1      30.921  16.786  26.401  1.00  0.00     0.021 C 
BRANCH  18  19
HETATM   19  C13 UNL     1      30.640  16.918  24.970  1.00  0.00     0.141 C 
BRANCH  19  20
HETATM   20  N2  UNL     1      31.575  16.114  24.208  1.00  0.00    -0.323 N 
ATOM     21  H2  UNL     1      31.329  15.710  23.305  1.00  0.00     0.181 HD
BRANCH  20  22
HETATM   22  N3  UNL     1      32.707  15.945  24.728  1.00  0.00    -0.254 N 
HETATM   23  N4  UNL     1      33.857  15.542  24.688  1.00  0.00    -0.331 N 
ATOM     24  H42 UNL     1      33.908  15.143  23.751  1.00  0.00     0.178 HD
ATOM     25  H41 UNL     1      34.775  15.405  25.109  1.00  0.00     0.178 HD
ATOM     26  H3  UNL     1      32.618  16.354  25.657  1.00  0.00     0.207 HD
ENDBRANCH  20  22
ENDBRANCH  19  20
ENDBRANCH  18  19
ENDBRANCH  17  18
ENDBRANCH  16  17
ENDBRANCH  15  16
ENDBRANCH  14  15
ENDBRANCH  13  14
ENDBRANCH  11  13
ENDBRANCH   5  11
BRANCH   7  27
HETATM   27  C16 UNL     1      30.174  13.035  25.455  1.00  0.00    -0.110 C 
BRANCH  27  28
HETATM   28  C17 UNL     1      31.373  12.398  25.138  1.00  0.00     0.086 A 
HETATM   29  C18 UNL     1      31.726  11.519  26.159  1.00  0.00     0.106 A 
HETATM   30 CL1  UNL     1      30.694  11.378  27.557  1.00  0.00    -0.078 Cl
HETATM   31  C19 UNL     1      32.923  10.756  26.040  1.00  0.00     0.196 A 
HETATM   32  O4  UNL     1      33.199   9.929  26.983  1.00  0.00    -0.287 OA
HETATM   33  C20 UNL     1      33.809  10.867  24.910  1.00  0.00     0.072 A 
HETATM   34  C21 UNL     1      33.517  11.746  23.928  1.00  0.00     0.027 A 
HETATM   35  C32 UNL     1      32.279  12.530  24.012  1.00  0.00     0.202 A 
HETATM   36  O5  UNL     1      32.018  13.345  23.059  1.00  0.00    -0.286 OA
BRANCH  34  37
HETATM   37  C22 UNL     1      34.445  11.788  22.839  1.00  0.00     0.072 C 
BRANCH  37  38
HETATM   38  C23 UNL     1      34.907  11.119  21.907  1.00  0.00    -0.116 C 
BRANCH  38  39
HETATM   39  C24 UNL     1      35.481  10.363  20.899  1.00  0.00     0.009 A 
HETATM   40  C25 UNL     1      35.016   9.010  20.779  1.00  0.00     0.022 A 
HETATM   41  C26 UNL     1      35.332   8.220  19.699  1.00  0.00     0.031 A 
HETATM   42  C27 UNL     1      36.119   8.693  18.669  1.00  0.00     0.029 A 
HETATM   43  C30 UNL     1      36.581   9.974  18.755  1.00  0.00     0.031 A 
HETATM   44  C31 UNL     1      36.278  10.817  19.835  1.00  0.00     0.022 A 
BRANCH  42  45
HETATM   45  N5  UNL     1      36.384   7.875  17.547  1.00  0.00    -0.390 N 
HETATM   46  C28 UNL     1      37.362   8.395  16.606  1.00  0.00     0.149 C 
HETATM   47  C29 UNL     1      35.727   6.591  17.285  1.00  0.00     0.149 C 
ENDBRANCH  42  45
ENDBRANCH  38  39
ENDBRANCH  37  38
ENDBRANCH  34  37
ENDBRANCH  27  28
ENDBRANCH   7  27
TORSDOF 17
ENDMDL
MODEL 4
REMARK VINA RESULT: -6.806388694      2.120      2.949
REMARK  17 active torsions:
REMARK  status: ('A' for Active; 'I' for Inactive)
REMARK    1  A    between atoms: C2_2  and  C3_4 
REMARK    2  A    between atoms: C5_8  and  N1_9 
REMARK    3  A    between atoms: N1_9  and  C7_11 
REMARK    4  A    between atoms: C7_11  and  C8_12 
REMARK    5  A    between atoms: C8_12  and  C9_13 
REMARK    6  A    between atoms: C9_13  and  C10_14 
REMARK    7  A    between atoms: C10_14  and  C11_15 
REMARK    8  A    between atoms: C11_15  and  C12_16 
REMARK    9  A    between atoms: C12_16  and  C13_17 
REMARK   10  A    between atoms: C13_17  and  N2_18 
REMARK   11  A    between atoms: N2_18  and  N3_20 
REMARK   12  A    between atoms: C15_26  and  C16_27 
REMARK   13  A    between atoms: C16_27  and  C17_28 
REMARK   14  A    between atoms: C21_34  and  C22_35 
REMARK   15  A    between atoms: C22_35  and  C23_36 
REMARK   16  A    between atoms: C23_36  and  C24_37 
REMARK   17  A    between atoms: C27_40  and  N5_41 
ROOT
HETATM    1  C3  UNL     1      29.104  16.006  26.767  1.00  0.00     0.188 C 
HETATM    2  C4  UNL     1      28.014  17.067  26.683  1.00  0.00     0.276 C 
HETATM    3  O2  UNL     1      28.008  18.150  27.340  1.00  0.00    -0.264 OA
HETATM    4  O3  UNL     1      27.069  16.608  25.781  1.00  0.00    -0.291 OA
HETATM    5  C5  UNL     1      27.523  15.520  24.994  1.00  0.00     0.260 C 
HETATM    6  C14 UNL     1      28.898  15.274  25.528  1.00  0.00    -0.003 C 
HETATM    7  C15 UNL     1      29.605  14.081  25.218  1.00  0.00     0.065 C 
ENDROOT
BRANCH   1   8
HETATM    8  C2  UNL     1      29.140  15.380  28.063  1.00  0.00     0.141 C 
HETATM    9  C1  UNL     1      30.502  14.834  28.565  1.00  0.00     0.092 C 
HETATM   10  O1  UNL     1      28.268  15.197  28.850  1.00  0.00    -0.297 OA
ENDBRANCH   1   8
BRANCH   5  11
HETATM   11  N1  UNL     1      26.513  14.501  25.165  1.00  0.00    -0.388 N 
HETATM   12  C6  UNL     1      26.179  14.255  26.508  1.00  0.00     0.146 C 
BRANCH  11  13
HETATM   13  C7  UNL     1      26.598  13.411  24.250  1.00  0.00     0.119 C 
BRANCH  13  14
HETATM   14  C8  UNL     1      25.571  13.327  23.185  1.00  0.00     0.019 C 
BRANCH  14  15
HETATM   15  C9  UNL     1      25.680  13.871  21.860  1.00  0.00     0.002 C 
BRANCH  15  16
HETATM   16  C10 UNL     1      26.364  15.184  21.605  1.00  0.00     0.000 C 
BRANCH  16  17
HETATM   17  C11 UNL     1      27.616  15.074  20.728  1.00  0.00     0.002 C 
BRANCH  17  18
HETATM   18  C12 UNL     1      28.750  14.499  21.604  1.00  0.00     0.021 C 
BRANCH  18  19
HETATM   19  C13 UNL     1      29.323  13.284  21.020  1.00  0.00     0.141 C 
BRANCH  19  20
HETATM   20  N2  UNL     1      29.114  12.162  21.914  1.00  0.00    -0.323 N 
ATOM     21  H2  UNL     1      29.718  11.992  22.717  1.00  0.00     0.181 HD
BRANCH  20  22
HETATM   22  N3  UNL     1      28.143  11.413  21.639  1.00  0.00    -0.254 N 
HETATM   23  N4  UNL     1      27.267  10.629  21.962  1.00  0.00    -0.331 N 
ATOM     24  H42 UNL     1      27.409  10.558  22.969  1.00  0.00     0.178 HD
ATOM     25  H41 UNL     1      26.480  10.021  21.739  1.00  0.00     0.178 HD
ATOM     26  H3  UNL     1      28.032  11.509  20.630  1.00  0.00     0.207 HD
ENDBRANCH  20  22
ENDBRANCH  19  20
ENDBRANCH  18  19
ENDBRANCH  17  18
ENDBRANCH  16  17
ENDBRANCH  15  16
ENDBRANCH  14  15
ENDBRANCH  13  14
ENDBRANCH  11  13
ENDBRANCH   5  11
BRANCH   7  27
HETATM   27  C16 UNL     1      30.740  13.796  24.771  1.00  0.00    -0.110 C 
BRANCH  27  28
HETATM   28  C17 UNL     1      32.009  13.495  24.277  1.00  0.00     0.086 A 
HETATM   29  C18 UNL     1      32.930  14.432  24.738  1.00  0.00     0.106 A 
HETATM   30 CL1  UNL     1      32.384  15.728  25.769  1.00  0.00    -0.078 Cl
HETATM   31  C19 UNL     1      34.297  14.314  24.356  1.00  0.00     0.196 A 
HETATM   32  O4  UNL     1      35.125  15.174  24.828  1.00  0.00    -0.287 OA
HETATM   33  C20 UNL     1      34.776  13.270  23.486  1.00  0.00     0.072 A 
HETATM   34  C21 UNL     1      33.897  12.376  22.986  1.00  0.00     0.027 A 
HETATM   35  C32 UNL     1      32.485  12.459  23.379  1.00  0.00     0.202 A 
HETATM   36  O5  UNL     1      31.676  11.588  22.903  1.00  0.00    -0.286 OA
BRANCH  34  37
HETATM   37  C22 UNL     1      34.456  11.367  22.137  1.00  0.00     0.072 C 
BRANCH  37  38
HETATM   38  C23 UNL     1      35.264  11.184  21.218  1.00  0.00    -0.116 C 
BRANCH  38  39
HETATM   39  C24 UNL     1      36.142  11.033  20.159  1.00  0.00     0.009 A 
HETATM   40  C25 UNL     1      35.807  10.020  19.198  1.00  0.00     0.022 A 
HETATM   41  C26 UNL     1      36.462   9.908  17.994  1.00  0.00     0.031 A 
HETATM   42  C27 UNL     1      37.481  10.771  17.647  1.00  0.00     0.029 A 
HETATM   43  C30 UNL     1      37.826  11.743  18.541  1.00  0.00     0.031 A 
HETATM   44  C31 UNL     1      37.182  11.897  19.777  1.00  0.00     0.022 A 
BRANCH  42  45
HETATM   45  N5  UNL     1      38.100  10.664  16.380  1.00  0.00    -0.390 N 
HETATM   46  C28 UNL     1      37.705   9.516  15.582  1.00  0.00     0.149 C 
HETATM   47  C29 UNL     1      39.102  11.603  15.868  1.00  0.00     0.149 C 
ENDBRANCH  42  45
ENDBRANCH  38  39
ENDBRANCH  37  38
ENDBRANCH  34  37
ENDBRANCH  27  28
ENDBRANCH   7  27
TORSDOF 17
ENDMDL
MODEL 5
REMARK VINA RESULT: -6.800486647      3.082      5.162
REMARK  17 active torsions:
REMARK  status: ('A' for Active; 'I' for Inactive)
REMARK    1  A    between atoms: C2_2  and  C3_4 
REMARK    2  A    between atoms: C5_8  and  N1_9 
REMARK    3  A    between atoms: N1_9  and  C7_11 
REMARK    4  A    between atoms: C7_11  and  C8_12 
REMARK    5  A    between atoms: C8_12  and  C9_13 
REMARK    6  A    between atoms: C9_13  and  C10_14 
REMARK    7  A    between atoms: C10_14  and  C11_15 
REMARK    8  A    between atoms: C11_15  and  C12_16 
REMARK    9  A    between atoms: C12_16  and  C13_17 
REMARK   10  A    between atoms: C13_17  and  N2_18 
REMARK   11  A    between atoms: N2_18  and  N3_20 
REMARK   12  A    between atoms: C15_26  and  C16_27 
REMARK   13  A    between atoms: C16_27  and  C17_28 
REMARK   14  A    between atoms: C21_34  and  C22_35 
REMARK   15  A    between atoms: C22_35  and  C23_36 
REMARK   16  A    between atoms: C23_36  and  C24_37 
REMARK   17  A    between atoms: C27_40  and  N5_41 
ROOT
HETATM    1  C3  UNL     1      27.351  14.128  23.661  1.00  0.00     0.188 C 
HETATM    2  C4  UNL     1      26.074  13.999  24.480  1.00  0.00     0.276 C 
HETATM    3  O2  UNL     1      25.079  13.284  24.160  1.00  0.00    -0.264 OA
HETATM    4  O3  UNL     1      26.223  14.805  25.596  1.00  0.00    -0.291 OA
HETATM    5  C5  UNL     1      27.561  15.221  25.815  1.00  0.00     0.260 C 
HETATM    6  C14 UNL     1      28.290  14.621  24.656  1.00  0.00    -0.003 C 
HETATM    7  C15 UNL     1      29.609  15.030  24.324  1.00  0.00     0.065 C 
ENDROOT
BRANCH   1   8
HETATM    8  C2  UNL     1      27.112  14.782  22.400  1.00  0.00     0.141 C 
HETATM    9  C1  UNL     1      27.905  14.282  21.165  1.00  0.00     0.092 C 
HETATM   10  O1  UNL     1      26.384  15.682  22.130  1.00  0.00    -0.297 OA
ENDBRANCH   1   8
BRANCH   5  11
HETATM   11  N1  UNL     1      27.481  16.659  25.924  1.00  0.00    -0.388 N 
HETATM   12  C6  UNL     1      28.517  17.226  26.685  1.00  0.00     0.146 C 
BRANCH  11  13
HETATM   13  C7  UNL     1      26.159  17.181  26.034  1.00  0.00     0.119 C 
BRANCH  13  14
HETATM   14  C8  UNL     1      25.934  18.283  26.998  1.00  0.00     0.019 C 
BRANCH  14  15
HETATM   15  C9  UNL     1      26.064  19.686  26.724  1.00  0.00     0.002 C 
BRANCH  15  16
HETATM   16  C10 UNL     1      25.005  20.440  25.969  1.00  0.00     0.000 C 
BRANCH  16  17
HETATM   17  C11 UNL     1      25.313  21.930  25.786  1.00  0.00     0.002 C 
BRANCH  17  18
HETATM   18  C12 UNL     1      26.834  22.067  25.554  1.00  0.00     0.021 C 
BRANCH  18  19
HETATM   19  C13 UNL     1      27.159  23.277  24.795  1.00  0.00     0.141 C 
BRANCH  19  20
HETATM   20  N2  UNL     1      28.556  23.255  24.410  1.00  0.00    -0.323 N 
ATOM     21  H2  UNL     1      29.058  24.103  24.149  1.00  0.00     0.181 HD
BRANCH  20  22
HETATM   22  N3  UNL     1      29.112  22.127  24.415  1.00  0.00    -0.254 N 
HETATM   23  N4  UNL     1      30.103  21.419  24.375  1.00  0.00    -0.331 N 
ATOM     24  H42 UNL     1      30.851  22.108  24.296  1.00  0.00     0.178 HD
ATOM     25  H41 UNL     1      30.554  20.504  24.379  1.00  0.00     0.178 HD
ATOM     26  H3  UNL     1      28.338  21.469  24.495  1.00  0.00     0.207 HD
ENDBRANCH  20  22
ENDBRANCH  19  20
ENDBRANCH  18  19
ENDBRANCH  17  18
ENDBRANCH  16  17
ENDBRANCH  15  16
ENDBRANCH  14  15
ENDBRANCH  13  14
ENDBRANCH  11  13
ENDBRANCH   5  11
BRANCH   7  27
HETATM   27  C16 UNL     1      30.703  14.460  24.106  1.00  0.00    -0.110 C 
BRANCH  27  28
HETATM   28  C17 UNL     1      31.919  13.816  23.881  1.00  0.00     0.086 A 
HETATM   29  C18 UNL     1      32.937  14.471  24.569  1.00  0.00     0.106 A 
HETATM   30 CL1  UNL     1      32.552  15.882  25.518  1.00  0.00    -0.078 Cl
HETATM   31  C19 UNL     1      34.270  13.978  24.482  1.00  0.00     0.196 A 
HETATM   32  O4  UNL     1      35.177  14.585  25.158  1.00  0.00    -0.287 OA
HETATM   33  C20 UNL     1      34.626  12.829  23.688  1.00  0.00     0.072 A 
HETATM   34  C21 UNL     1      33.668  12.203  22.972  1.00  0.00     0.027 A 
HETATM   35  C32 UNL     1      32.281  12.675  23.059  1.00  0.00     0.202 A 
HETATM   36  O5  UNL     1      31.390  12.052  22.382  1.00  0.00    -0.286 OA
BRANCH  34  37
HETATM   37  C22 UNL     1      34.104  11.067  22.216  1.00  0.00     0.072 C 
BRANCH  37  38
HETATM   38  C23 UNL     1      34.856  10.720  21.296  1.00  0.00    -0.116 C 
BRANCH  38  39
HETATM   39  C24 UNL     1      35.656  10.363  20.225  1.00  0.00     0.009 A 
HETATM   40  C25 UNL     1      35.315   9.137  19.561  1.00  0.00     0.022 A 
HETATM   41  C26 UNL     1      35.879   8.774  18.360  1.00  0.00     0.031 A 
HETATM   42  C27 UNL     1      36.807   9.577  17.730  1.00  0.00     0.029 A 
HETATM   43  C30 UNL     1      37.156  10.748  18.338  1.00  0.00     0.031 A 
HETATM   44  C31 UNL     1      36.603  11.160  19.560  1.00  0.00     0.022 A 
BRANCH  42  45
HETATM   45  N5  UNL     1      37.331   9.202  16.471  1.00  0.00    -0.390 N 
HETATM   46  C28 UNL     1      37.440  10.270  15.492  1.00  0.00     0.149 C 
HETATM   47  C29 UNL     1      37.727   7.836  16.114  1.00  0.00     0.149 C 
ENDBRANCH  42  45
ENDBRANCH  38  39
ENDBRANCH  37  38
ENDBRANCH  34  37
ENDBRANCH  27  28
ENDBRANCH   7  27
TORSDOF 17
ENDMDL
