MODEL 1
REMARK VINA RESULT: -6.535092090      0.000      0.000
REMARK  17 active torsions:
REMARK  status: ('A' for Active; 'I' for Inactive)
REMARK    1  A    between atoms: O1_2  and  C2_3 
REMARK    2  A    between atoms: C2_3  and  C3_5 
REMARK    3  A    between atoms: C3_5  and  C5_7 
REMARK    4  A    between atoms: C5_7  and  C6_8 
REMARK    5  A    between atoms: C6_8  and  C7_9 
REMARK    6  A    between atoms: C7_9  and  C8_10 
REMARK    7  A    between atoms: C8_10  and  O7_35 
REMARK    8  A    between atoms: C9_11  and  C10_12 
REMARK    9  A    between atoms: C10_12  and  C11_13 
REMARK   10  A    between atoms: C11_13  and  C12_14 
REMARK   11  A    between atoms: C12_14  and  C13_16 
REMARK   12  A    between atoms: C13_16  and  C14_17 
REMARK   13  A    between atoms: C14_17  and  C16_19 
REMARK   14  A    between atoms: C17_20  and  C18_21 
REMARK   15  A    between atoms: C18_21  and  C19_22 
REMARK   16  A    between atoms: C19_22  and  C20_23 
REMARK   17  A    between atoms: C25_32  and  O6_33 
ROOT
HETATM    1  C13 UNL     1      27.585  13.359  20.748  1.00  0.00     0.086 C 
ENDROOT
BRANCH   1   2
HETATM    2  C12 UNL     1      27.316  12.344  21.783  1.00  0.00     0.127 C 
HETATM    3  O3  UNL     1      28.153  11.431  21.864  1.00  0.00    -0.298 OA
BRANCH   2   4
HETATM    4  C11 UNL     1      26.181  12.327  22.692  1.00  0.00     0.082 C 
BRANCH   4   5
HETATM    5  C10 UNL     1      26.289  11.415  23.887  1.00  0.00     0.037 C 
BRANCH   5   6
HETATM    6  C9  UNL     1      25.694  12.005  25.085  1.00  0.00     0.006 C 
HETATM    7  C8  UNL     1      26.164  12.965  25.830  1.00  0.00     0.042 C 
BRANCH   7   8
HETATM    8  C7  UNL     1      27.430  13.670  25.606  1.00  0.00     0.064 C 
BRANCH   8   9
HETATM    9  C6  UNL     1      28.544  12.659  25.817  1.00  0.00     0.007 C 
BRANCH   9  10
HETATM   10  C5  UNL     1      29.186  12.809  27.147  1.00  0.00     0.014 C 
BRANCH  10  11
HETATM   11  C3  UNL     1      29.160  11.567  27.953  1.00  0.00     0.081 C 
HETATM   12  C4  UNL     1      28.618  10.380  27.160  1.00  0.00     0.020 C 
BRANCH  11  13
HETATM   13  C2  UNL     1      28.412  11.755  29.204  1.00  0.00     0.262 C 
HETATM   14  O2  UNL     1      27.165  11.872  29.280  1.00  0.00    -0.265 OA
BRANCH  13  15
HETATM   15  O1  UNL     1      29.077  11.817  30.450  1.00  0.00    -0.326 OA
HETATM   16  C1  UNL     1      29.478  13.068  30.999  1.00  0.00     0.213 C 
ENDBRANCH  13  15
ENDBRANCH  11  13
ENDBRANCH  10  11
ENDBRANCH   9  10
ENDBRANCH   8   9
ENDBRANCH   7   8
BRANCH   7  17
HETATM   17  O7  UNL     1      25.425  13.393  26.952  1.00  0.00    -0.361 OA
HETATM   18  C26 UNL     1      25.571  14.695  27.485  1.00  0.00     0.209 C 
ENDBRANCH   7  17
ENDBRANCH   5   6
ENDBRANCH   4   5
ENDBRANCH   2   4
ENDBRANCH   1   2
BRANCH   1  19
HETATM   19  C14 UNL     1      27.793  14.746  21.238  1.00  0.00     0.011 C 
HETATM   20  C15 UNL     1      26.442  15.405  21.469  1.00  0.00     0.014 C 
BRANCH  19  21
HETATM   21  C16 UNL     1      28.595  14.801  22.494  1.00  0.00    -0.021 C 
HETATM   22  C17 UNL     1      29.908  14.872  22.508  1.00  0.00     0.006 C 
BRANCH  22  23
HETATM   23  C18 UNL     1      30.646  14.924  23.784  1.00  0.00    -0.020 C 
HETATM   24  C21 UNL     1      31.412  13.932  24.205  1.00  0.00     0.118 A 
HETATM   25  O4  UNL     1      32.084  14.021  25.421  1.00  0.00    -0.275 OA
HETATM   26  C25 UNL     1      31.633  12.691  23.486  1.00  0.00     0.096 A 
HETATM   27  C22 UNL     1      32.894  13.041  25.935  1.00  0.00     0.267 A 
HETATM   28  O5  UNL     1      33.484  13.183  27.067  1.00  0.00    -0.265 OA
HETATM   29  C23 UNL     1      33.126  11.788  25.227  1.00  0.00     0.141 A 
HETATM   30  C24 UNL     1      32.418  11.718  23.962  1.00  0.00     0.022 A 
BRANCH  23  31
HETATM   31  C19 UNL     1      30.493  16.194  24.505  1.00  0.00     0.068 C 
BRANCH  31  32
HETATM   32  C20 UNL     1      31.658  16.988  24.920  1.00  0.00     0.134 C 
HETATM   33 BR1  UNL     1      31.800  18.654  23.930  1.00  0.00    -0.079 Br
HETATM   34 BR2  UNL     1      31.273  17.534  26.778  1.00  0.00    -0.079 Br
ENDBRANCH  31  32
ENDBRANCH  23  31
BRANCH  26  35
HETATM   35  O6  UNL     1      31.062  12.398  22.258  1.00  0.00    -0.358 OA
ATOM     36  H6  UNL     1      30.886  13.048  21.587  1.00  0.00     0.217 HD
ENDBRANCH  26  35
ENDBRANCH  22  23
ENDBRANCH  19  21
ENDBRANCH   1  19
TORSDOF 17
ENDMDL
MODEL 2
REMARK VINA RESULT: -6.476418529      4.802      7.828
REMARK  17 active torsions:
REMARK  status: ('A' for Active; 'I' for Inactive)
REMARK    1  A    between atoms: O1_2  and  C2_3 
REMARK    2  A    between atoms: C2_3  and  C3_5 
REMARK    3  A    between atoms: C3_5  and  C5_7 
REMARK    4  A    between atoms: C5_7  and  C6_8 
REMARK    5  A    between atoms: C6_8  and  C7_9 
REMARK    6  A    between atoms: C7_9  and  C8_10 
REMARK    7  A    between atoms: C8_10  and  O7_35 
REMARK    8  A    between atoms: C9_11  and  C10_12 
REMARK    9  A    between atoms: C10_12  and  C11_13 
REMARK   10  A    between atoms: C11_13  and  C12_14 
REMARK   11  A    between atoms: C12_14  and  C13_16 
REMARK   12  A    between atoms: C13_16  and  C14_17 
REMARK   13  A    between atoms: C14_17  and  C16_19 
REMARK   14  A    between atoms: C17_20  and  C18_21 
REMARK   15  A    between atoms: C18_21  and  C19_22 
REMARK   16  A    between atoms: C19_22  and  C20_23 
REMARK   17  A    between atoms: C25_32  and  O6_33 
ROOT
HETATM    1  C13 UNL     1      34.931  13.621  23.433  1.00  0.00     0.086 C 
ENDROOT
BRANCH   1   2
HETATM    2  C12 UNL     1      34.036  13.193  24.524  1.00  0.00     0.127 C 
HETATM    3  O3  UNL     1      34.147  13.827  25.585  1.00  0.00    -0.298 OA
BRANCH   2   4
HETATM    4  C11 UNL     1      33.060  12.116  24.458  1.00  0.00     0.082 C 
BRANCH   4   5
HETATM    5  C10 UNL     1      32.069  12.174  23.325  1.00  0.00     0.037 C 
BRANCH   5   6
HETATM    6  C9  UNL     1      31.215  13.358  23.401  1.00  0.00     0.006 C 
HETATM    7  C8  UNL     1      30.215  13.683  22.630  1.00  0.00     0.042 C 
BRANCH   7   8
HETATM    8  C7  UNL     1      29.733  12.897  21.490  1.00  0.00     0.064 C 
BRANCH   8   9
HETATM    9  C6  UNL     1      28.651  13.719  20.810  1.00  0.00     0.007 C 
BRANCH   9  10
HETATM   10  C5  UNL     1      27.353  12.999  20.765  1.00  0.00     0.014 C 
BRANCH  10  11
HETATM   11  C3  UNL     1      26.275  13.688  21.509  1.00  0.00     0.081 C 
HETATM   12  C4  UNL     1      26.407  15.207  21.436  1.00  0.00     0.020 C 
BRANCH  11  13
HETATM   13  C2  UNL     1      26.209  13.228  22.904  1.00  0.00     0.262 C 
HETATM   14  O2  UNL     1      25.683  13.870  23.845  1.00  0.00    -0.265 OA
BRANCH  13  15
HETATM   15  O1  UNL     1      26.754  11.981  23.288  1.00  0.00    -0.326 OA
HETATM   16  C1  UNL     1      26.065  11.137  24.205  1.00  0.00     0.213 C 
ENDBRANCH  13  15
ENDBRANCH  11  13
ENDBRANCH  10  11
ENDBRANCH   9  10
ENDBRANCH   8   9
ENDBRANCH   7   8
BRANCH   7  17
HETATM   17  O7  UNL     1      29.513  14.881  22.878  1.00  0.00    -0.361 OA
HETATM   18  C26 UNL     1      29.089  15.236  24.180  1.00  0.00     0.209 C 
ENDBRANCH   7  17
ENDBRANCH   5   6
ENDBRANCH   4   5
ENDBRANCH   2   4
ENDBRANCH   1   2
BRANCH   1  19
HETATM   19  C14 UNL     1      36.188  12.842  23.284  1.00  0.00     0.011 C 
HETATM   20  C15 UNL     1      36.927  12.820  24.612  1.00  0.00     0.014 C 
BRANCH  19  21
HETATM   21  C16 UNL     1      35.950  11.444  22.822  1.00  0.00    -0.021 C 
HETATM   22  C17 UNL     1      35.205  11.146  21.780  1.00  0.00     0.006 C 
BRANCH  22  23
HETATM   23  C18 UNL     1      35.009   9.742  21.373  1.00  0.00    -0.020 C 
HETATM   24  C21 UNL     1      35.396   9.281  20.196  1.00  0.00     0.118 A 
HETATM   25  O4  UNL     1      35.183   7.949  19.850  1.00  0.00    -0.275 OA
HETATM   26  C25 UNL     1      36.055  10.070  19.171  1.00  0.00     0.096 A 
HETATM   27  C22 UNL     1      35.547   7.389  18.653  1.00  0.00     0.267 A 
HETATM   28  O5  UNL     1      35.319   6.152  18.393  1.00  0.00    -0.265 OA
HETATM   29  C23 UNL     1      36.209   8.166  17.612  1.00  0.00     0.141 A 
HETATM   30  C24 UNL     1      36.423   9.550  17.994  1.00  0.00     0.022 A 
BRANCH  23  31
HETATM   31  C19 UNL     1      34.401   8.903  22.414  1.00  0.00     0.068 C 
BRANCH  31  32
HETATM   32  C20 UNL     1      35.219   8.217  23.424  1.00  0.00     0.134 C 
HETATM   33 BR1  UNL     1      34.719   8.716  25.234  1.00  0.00    -0.079 Br
HETATM   34 BR2  UNL     1      34.733   6.310  23.271  1.00  0.00    -0.079 Br
ENDBRANCH  31  32
ENDBRANCH  23  31
BRANCH  26  35
HETATM   35  O6  UNL     1      36.363  11.413  19.310  1.00  0.00    -0.358 OA
ATOM     36  H6  UNL     1      35.869  12.016  19.853  1.00  0.00     0.217 HD
ENDBRANCH  26  35
ENDBRANCH  22  23
ENDBRANCH  19  21
ENDBRANCH   1  19
TORSDOF 17
ENDMDL
MODEL 3
REMARK VINA RESULT: -6.397586486      2.709      5.863
REMARK  17 active torsions:
REMARK  status: ('A' for Active; 'I' for Inactive)
REMARK    1  A    between atoms: O1_2  and  C2_3 
REMARK    2  A    between atoms: C2_3  and  C3_5 
REMARK    3  A    between atoms: C3_5  and  C5_7 
REMARK    4  A    between atoms: C5_7  and  C6_8 
REMARK    5  A    between atoms: C6_8  and  C7_9 
REMARK    6  A    between atoms: C7_9  and  C8_10 
REMARK    7  A    between atoms: C8_10  and  O7_35 
REMARK    8  A    between atoms: C9_11  and  C10_12 
REMARK    9  A    between atoms: C10_12  and  C11_13 
REMARK   10  A    between atoms: C11_13  and  C12_14 
REMARK   11  A    between atoms: C12_14  and  C13_16 
REMARK   12  A    between atoms: C13_16  and  C14_17 
REMARK   13  A    between atoms: C14_17  and  C16_19 
REMARK   14  A    between atoms: C17_20  and  C18_21 
REMARK   15  A    between atoms: C18_21  and  C19_22 
REMARK   16  A    between atoms: C19_22  and  C20_23 
REMARK   17  A    between atoms: C25_32  and  O6_33 
ROOT
HETATM    1  C13 UNL     1      27.926  14.660  20.772  1.00  0.00     0.086 C 
ENDROOT
BRANCH   1   2
HETATM    2  C12 UNL     1      28.308  13.244  20.925  1.00  0.00     0.127 C 
HETATM    3  O3  UNL     1      27.554  12.427  20.373  1.00  0.00    -0.298 OA
BRANCH   2   4
HETATM    4  C11 UNL     1      29.463  12.742  21.651  1.00  0.00     0.082 C 
BRANCH   4   5
HETATM    5  C10 UNL     1      30.389  13.775  22.241  1.00  0.00     0.037 C 
BRANCH   5   6
HETATM    6  C9  UNL     1      30.565  13.598  23.681  1.00  0.00     0.006 C 
HETATM    7  C8  UNL     1      30.660  14.516  24.601  1.00  0.00     0.042 C 
BRANCH   7   8
HETATM    8  C7  UNL     1      30.611  15.963  24.364  1.00  0.00     0.064 C 
BRANCH   8   9
HETATM    9  C6  UNL     1      31.437  16.621  25.456  1.00  0.00     0.007 C 
BRANCH   9  10
HETATM   10  C5  UNL     1      32.272  17.729  24.928  1.00  0.00     0.014 C 
BRANCH  10  11
HETATM   11  C3  UNL     1      31.477  18.835  24.348  1.00  0.00     0.081 C 
HETATM   12  C4  UNL     1      32.072  19.343  23.036  1.00  0.00     0.020 C 
BRANCH  11  13
HETATM   13  C2  UNL     1      31.304  19.933  25.311  1.00  0.00     0.262 C 
HETATM   14  O2  UNL     1      32.236  20.640  25.764  1.00  0.00    -0.265 OA
BRANCH  13  15
HETATM   15  O1  UNL     1      30.024  20.275  25.805  1.00  0.00    -0.326 OA
HETATM   16  C1  UNL     1      29.353  21.443  25.341  1.00  0.00     0.213 C 
ENDBRANCH  13  15
ENDBRANCH  11  13
ENDBRANCH  10  11
ENDBRANCH   9  10
ENDBRANCH   8   9
ENDBRANCH   7   8
BRANCH   7  17
HETATM   17  O7  UNL     1      30.826  14.131  25.947  1.00  0.00    -0.361 OA
HETATM   18  C26 UNL     1      31.184  12.809  26.302  1.00  0.00     0.209 C 
ENDBRANCH   7  17
ENDBRANCH   5   6
ENDBRANCH   4   5
ENDBRANCH   2   4
ENDBRANCH   1   2
BRANCH   1  19
HETATM   19  C14 UNL     1      26.834  15.137  21.661  1.00  0.00     0.011 C 
HETATM   20  C15 UNL     1      25.624  14.232  21.499  1.00  0.00     0.014 C 
BRANCH  19  21
HETATM   21  C16 UNL     1      27.236  15.181  23.096  1.00  0.00    -0.021 C 
HETATM   22  C17 UNL     1      26.670  14.443  24.026  1.00  0.00     0.006 C 
BRANCH  22  23
HETATM   23  C18 UNL     1      27.114  14.532  25.430  1.00  0.00    -0.020 C 
HETATM   24  C21 UNL     1      27.394  13.464  26.157  1.00  0.00     0.118 A 
HETATM   25  O4  UNL     1      27.802  13.594  27.482  1.00  0.00    -0.275 OA
HETATM   26  C25 UNL     1      27.312  12.093  25.686  1.00  0.00     0.096 A 
HETATM   27  C22 UNL     1      28.108  12.543  28.308  1.00  0.00     0.267 A 
HETATM   28  O5  UNL     1      28.475  12.730  29.524  1.00  0.00    -0.265 OA
HETATM   29  C23 UNL     1      28.031  11.160  27.852  1.00  0.00     0.141 A 
HETATM   30  C24 UNL     1      27.606  11.049  26.469  1.00  0.00     0.022 A 
BRANCH  23  31
HETATM   31  C19 UNL     1      27.267  15.908  25.917  1.00  0.00     0.068 C 
BRANCH  31  32
HETATM   32  C20 UNL     1      26.105  16.725  26.293  1.00  0.00     0.134 C 
HETATM   33 BR1  UNL     1      25.295  16.126  27.955  1.00  0.00    -0.079 Br
HETATM   34 BR2  UNL     1      26.842  18.510  26.704  1.00  0.00    -0.079 Br
ENDBRANCH  31  32
ENDBRANCH  23  31
BRANCH  26  35
HETATM   35  O6  UNL     1      26.930  11.740  24.402  1.00  0.00    -0.358 OA
ATOM     36  H6  UNL     1      26.174  11.200  24.204  1.00  0.00     0.217 HD
ENDBRANCH  26  35
ENDBRANCH  22  23
ENDBRANCH  19  21
ENDBRANCH   1  19
TORSDOF 17
ENDMDL
MODEL 4
REMARK VINA RESULT: -6.394172635      4.742      6.832
REMARK  17 active torsions:
REMARK  status: ('A' for Active; 'I' for Inactive)
REMARK    1  A    between atoms: O1_2  and  C2_3 
REMARK    2  A    between atoms: C2_3  and  C3_5 
REMARK    3  A    between atoms: C3_5  and  C5_7 
REMARK    4  A    between atoms: C5_7  and  C6_8 
REMARK    5  A    between atoms: C6_8  and  C7_9 
REMARK    6  A    between atoms: C7_9  and  C8_10 
REMARK    7  A    between atoms: C8_10  and  O7_35 
REMARK    8  A    between atoms: C9_11  and  C10_12 
REMARK    9  A    between atoms: C10_12  and  C11_13 
REMARK   10  A    between atoms: C11_13  and  C12_14 
REMARK   11  A    between atoms: C12_14  and  C13_16 
REMARK   12  A    between atoms: C13_16  and  C14_17 
REMARK   13  A    between atoms: C14_17  and  C16_19 
REMARK   14  A    between atoms: C17_20  and  C18_21 
REMARK   15  A    between atoms: C18_21  and  C19_22 
REMARK   16  A    between atoms: C19_22  and  C20_23 
REMARK   17  A    between atoms: C25_32  and  O6_33 
ROOT
HETATM    1  C13 UNL     1      32.846  12.685  24.363  1.00  0.00     0.086 C 
ENDROOT
BRANCH   1   2
HETATM    2  C12 UNL     1      31.479  13.239  24.364  1.00  0.00     0.127 C 
HETATM    3  O3  UNL     1      30.608  12.508  24.862  1.00  0.00    -0.298 OA
BRANCH   2   4
HETATM    4  C11 UNL     1      31.081  14.537  23.842  1.00  0.00     0.082 C 
BRANCH   4   5
HETATM    5  C10 UNL     1      29.815  14.574  23.025  1.00  0.00     0.037 C 
BRANCH   5   6
HETATM    6  C9  UNL     1      28.679  15.079  23.793  1.00  0.00     0.006 C 
HETATM    7  C8  UNL     1      27.420  15.094  23.456  1.00  0.00     0.042 C 
BRANCH   7   8
HETATM    8  C7  UNL     1      26.874  14.591  22.191  1.00  0.00     0.064 C 
BRANCH   8   9
HETATM    9  C6  UNL     1      25.897  13.482  22.538  1.00  0.00     0.007 C 
BRANCH   9  10
HETATM   10  C5  UNL     1      26.590  12.266  23.032  1.00  0.00     0.014 C 
BRANCH  10  11
HETATM   11  C3  UNL     1      25.944  11.665  24.221  1.00  0.00     0.081 C 
HETATM   12  C4  UNL     1      24.584  12.295  24.515  1.00  0.00     0.020 C 
BRANCH  11  13
HETATM   13  C2  UNL     1      26.823  11.729  25.398  1.00  0.00     0.262 C 
HETATM   14  O2  UNL     1      27.107  12.779  26.022  1.00  0.00    -0.265 OA
BRANCH  13  15
HETATM   15  O1  UNL     1      27.426  10.562  25.923  1.00  0.00    -0.326 OA
HETATM   16  C1  UNL     1      28.240  10.626  27.088  1.00  0.00     0.213 C 
ENDBRANCH  13  15
ENDBRANCH  11  13
ENDBRANCH  10  11
ENDBRANCH   9  10
ENDBRANCH   8   9
ENDBRANCH   7   8
BRANCH   7  17
HETATM   17  O7  UNL     1      26.472  15.629  24.352  1.00  0.00    -0.361 OA
HETATM   18  C26 UNL     1      26.861  16.234  25.570  1.00  0.00     0.209 C 
ENDBRANCH   7  17
ENDBRANCH   5   6
ENDBRANCH   4   5
ENDBRANCH   2   4
ENDBRANCH   1   2
BRANCH   1  19
HETATM   19  C14 UNL     1      33.519  12.623  23.040  1.00  0.00     0.011 C 
HETATM   20  C15 UNL     1      34.895  13.260  23.146  1.00  0.00     0.014 C 
BRANCH  19  21
HETATM   21  C16 UNL     1      33.653  11.229  22.525  1.00  0.00    -0.021 C 
HETATM   22  C17 UNL     1      34.743  10.776  21.946  1.00  0.00     0.006 C 
BRANCH  22  23
HETATM   23  C18 UNL     1      34.814   9.386  21.458  1.00  0.00    -0.020 C 
HETATM   24  C21 UNL     1      35.325   9.070  20.281  1.00  0.00     0.118 A 
HETATM   25  O4  UNL     1      35.364   7.744  19.857  1.00  0.00    -0.275 OA
HETATM   26  C25 UNL     1      35.878  10.020  19.333  1.00  0.00     0.096 A 
HETATM   27  C22 UNL     1      35.871   7.327  18.653  1.00  0.00     0.267 A 
HETATM   28  O5  UNL     1      35.876   6.087  18.319  1.00  0.00    -0.265 OA
HETATM   29  C23 UNL     1      36.430   8.267  17.689  1.00  0.00     0.141 A 
HETATM   30  C24 UNL     1      36.380   9.642  18.152  1.00  0.00     0.022 A 
BRANCH  23  31
HETATM   31  C19 UNL     1      34.320   8.395  22.422  1.00  0.00     0.068 C 
BRANCH  31  32
HETATM   32  C20 UNL     1      35.154   7.923  23.536  1.00  0.00     0.134 C 
HETATM   33 BR1  UNL     1      34.592   8.669  25.240  1.00  0.00    -0.079 Br
HETATM   34 BR2  UNL     1      34.778   5.991  23.680  1.00  0.00    -0.079 Br
ENDBRANCH  31  32
ENDBRANCH  23  31
BRANCH  26  35
HETATM   35  O6  UNL     1      35.939  11.386  19.556  1.00  0.00    -0.358 OA
ATOM     36  H6  UNL     1      36.741  11.893  19.520  1.00  0.00     0.217 HD
ENDBRANCH  26  35
ENDBRANCH  22  23
ENDBRANCH  19  21
ENDBRANCH   1  19
TORSDOF 17
ENDMDL
MODEL 5
REMARK VINA RESULT: -6.359064307      1.944      3.524
REMARK  17 active torsions:
REMARK  status: ('A' for Active; 'I' for Inactive)
REMARK    1  A    between atoms: O1_2  and  C2_3 
REMARK    2  A    between atoms: C2_3  and  C3_5 
REMARK    3  A    between atoms: C3_5  and  C5_7 
REMARK    4  A    between atoms: C5_7  and  C6_8 
REMARK    5  A    between atoms: C6_8  and  C7_9 
REMARK    6  A    between atoms: C7_9  and  C8_10 
REMARK    7  A    between atoms: C8_10  and  O7_35 
REMARK    8  A    between atoms: C9_11  and  C10_12 
REMARK    9  A    between atoms: C10_12  and  C11_13 
REMARK   10  A    between atoms: C11_13  and  C12_14 
REMARK   11  A    between atoms: C12_14  and  C13_16 
REMARK   12  A    between atoms: C13_16  and  C14_17 
REMARK   13  A    between atoms: C14_17  and  C16_19 
REMARK   14  A    between atoms: C17_20  and  C18_21 
REMARK   15  A    between atoms: C18_21  and  C19_22 
REMARK   16  A    between atoms: C19_22  and  C20_23 
REMARK   17  A    between atoms: C25_32  and  O6_33 
ROOT
HETATM    1  C13 UNL     1      26.450  13.314  22.685  1.00  0.00     0.086 C 
ENDROOT
BRANCH   1   2
HETATM    2  C12 UNL     1      26.748  11.874  22.571  1.00  0.00     0.127 C 
HETATM    3  O3  UNL     1      27.646  11.578  21.766  1.00  0.00    -0.298 OA
BRANCH   2   4
HETATM    4  C11 UNL     1      26.093  10.803  23.306  1.00  0.00     0.082 C 
BRANCH   4   5
HETATM    5  C10 UNL     1      25.700  11.105  24.729  1.00  0.00     0.037 C 
BRANCH   5   6
HETATM    6  C9  UNL     1      26.861  11.205  25.611  1.00  0.00     0.006 C 
HETATM    7  C8  UNL     1      27.249  12.227  26.322  1.00  0.00     0.042 C 
BRANCH   7   8
HETATM    8  C7  UNL     1      26.574  13.527  26.376  1.00  0.00     0.064 C 
BRANCH   8   9
HETATM    9  C6  UNL     1      26.187  13.767  27.826  1.00  0.00     0.007 C 
BRANCH   9  10
HETATM   10  C5  UNL     1      26.677  15.077  28.322  1.00  0.00     0.014 C 
BRANCH  10  11
HETATM   11  C3  UNL     1      25.590  16.050  28.578  1.00  0.00     0.081 C 
HETATM   12  C4  UNL     1      24.255  15.360  28.848  1.00  0.00     0.020 C 
BRANCH  11  13
HETATM   13  C2  UNL     1      25.472  17.022  27.480  1.00  0.00     0.262 C 
HETATM   14  O2  UNL     1      25.441  16.724  26.262  1.00  0.00    -0.265 OA
BRANCH  13  15
HETATM   15  O1  UNL     1      25.379  18.409  27.741  1.00  0.00    -0.326 OA
HETATM   16  C1  UNL     1      25.768  19.361  26.756  1.00  0.00     0.213 C 
ENDBRANCH  13  15
ENDBRANCH  11  13
ENDBRANCH  10  11
ENDBRANCH   9  10
ENDBRANCH   8   9
ENDBRANCH   7   8
BRANCH   7  17
HETATM   17  O7  UNL     1      28.408  12.115  27.117  1.00  0.00    -0.361 OA
HETATM   18  C26 UNL     1      28.981  10.857  27.420  1.00  0.00     0.209 C 
ENDBRANCH   7  17
ENDBRANCH   5   6
ENDBRANCH   4   5
ENDBRANCH   2   4
ENDBRANCH   1   2
BRANCH   1  19
HETATM   19  C14 UNL     1      27.241  14.211  21.802  1.00  0.00     0.011 C 
HETATM   20  C15 UNL     1      26.390  15.407  21.409  1.00  0.00     0.014 C 
BRANCH  19  21
HETATM   21  C16 UNL     1      28.502  14.685  22.442  1.00  0.00    -0.021 C 
HETATM   22  C17 UNL     1      29.074  14.068  23.453  1.00  0.00     0.006 C 
BRANCH  22  23
HETATM   23  C18 UNL     1      30.323  14.586  24.042  1.00  0.00    -0.020 C 
HETATM   24  C21 UNL     1      31.500  14.026  23.823  1.00  0.00     0.118 A 
HETATM   25  O4  UNL     1      32.653  14.545  24.406  1.00  0.00    -0.275 OA
HETATM   26  C25 UNL     1      31.722  12.858  22.990  1.00  0.00     0.096 A 
HETATM   27  C22 UNL     1      33.911  14.026  24.237  1.00  0.00     0.267 A 
HETATM   28  O5  UNL     1      34.936  14.550  24.806  1.00  0.00    -0.265 OA
HETATM   29  C23 UNL     1      34.152  12.853  23.405  1.00  0.00     0.141 A 
HETATM   30  C24 UNL     1      32.938  12.331  22.805  1.00  0.00     0.022 A 
BRANCH  23  31
HETATM   31  C19 UNL     1      30.140  15.806  24.838  1.00  0.00     0.068 C 
BRANCH  31  32
HETATM   32  C20 UNL     1      29.449  15.781  26.135  1.00  0.00     0.134 C 
HETATM   33 BR1  UNL     1      30.566  15.053  27.548  1.00  0.00    -0.079 Br
HETATM   34 BR2  UNL     1      29.193  17.678  26.618  1.00  0.00    -0.079 Br
ENDBRANCH  31  32
ENDBRANCH  23  31
BRANCH  26  35
HETATM   35  O6  UNL     1      30.714  12.188  22.316  1.00  0.00    -0.358 OA
ATOM     36  H6  UNL     1      30.856  11.660  21.539  1.00  0.00     0.217 HD
ENDBRANCH  26  35
ENDBRANCH  22  23
ENDBRANCH  19  21
ENDBRANCH   1  19
TORSDOF 17
ENDMDL
