MODEL 1
REMARK VINA RESULT: -6.178360119      0.000      0.000
REMARK  4 active torsions:
REMARK  status: ('A' for Active; 'I' for Inactive)
REMARK    1  A    between atoms: C4_6  and  C5_7 
REMARK    2  A    between atoms: C5_7  and  N2_8 
REMARK    3  A    between atoms: C5_7  and  C6_12 
REMARK    4  A    between atoms: C8_19  and  N5_20 
ROOT
HETATM    1  C1  UNL     1      -5.802  67.035  14.449  1.00  0.00     0.047 C 
HETATM    2  C2  UNL     1      -4.964  67.794  13.744  1.00  0.00     0.067 A 
HETATM    3  N1  UNL     1      -4.821  67.566  12.407  1.00  0.00    -0.350 N 
ATOM      4  H1  UNL     1      -5.356  66.819  11.965  1.00  0.00     0.166 HD
HETATM    5  C3  UNL     1      -3.986  68.311  11.666  1.00  0.00     0.100 A 
HETATM    6  C4  UNL     1      -3.862  68.076  10.380  1.00  0.00     0.050 C 
HETATM    7  C7  UNL     1      -3.280  69.310  12.295  1.00  0.00     0.273 A 
HETATM    8  O2  UNL     1      -2.477  70.052  11.676  1.00  0.00    -0.266 OA
HETATM    9  N4  UNL     1      -3.421  69.535  13.617  1.00  0.00    -0.306 N 
ATOM     10  H4  UNL     1      -2.887  70.280  14.064  1.00  0.00     0.170 HD
HETATM   11  C8  UNL     1      -4.260  68.784  14.353  1.00  0.00     0.128 A 
ENDROOT
BRANCH   6  12
HETATM   12  C5  UNL     1      -4.609  67.011   9.684  1.00  0.00     0.297 C 
BRANCH  12  13
HETATM   13  N2  UNL     1      -5.137  67.518   8.454  1.00  0.00    -0.064 N 
ATOM     14  H23 UNL     1      -6.140  67.352   8.370  1.00  0.00     0.275 HD
ATOM     15  H22 UNL     1      -5.155  68.538   8.434  1.00  0.00     0.275 HD
ATOM     16  H21 UNL     1      -4.615  67.127   7.670  1.00  0.00     0.275 HD
ENDBRANCH  12  13
BRANCH  12  17
HETATM   17  C6  UNL     1      -3.772  65.815   9.428  1.00  0.00     0.265 C 
HETATM   18  N3  UNL     1      -4.409  64.623   9.006  1.00  0.00    -0.060 NA
HETATM   19  O1  UNL     1      -2.528  65.800   9.562  1.00  0.00    -0.274 OA
ENDBRANCH  12  17
ENDBRANCH   6  12
BRANCH  11  20
HETATM   20  N5  UNL     1      -4.361  69.043  15.630  1.00  0.00    -0.384 N 
ATOM     21  H52 UNL     1      -3.540  69.406  16.114  1.00  0.00     0.157 HD
ATOM     22  H51 UNL     1      -5.221  68.896  16.157  1.00  0.00     0.157 HD
ENDBRANCH  11  20
TORSDOF 4
ENDMDL
MODEL 2
REMARK VINA RESULT: -6.024986526      1.111      1.111
REMARK  4 active torsions:
REMARK  status: ('A' for Active; 'I' for Inactive)
REMARK    1  A    between atoms: C4_6  and  C5_7 
REMARK    2  A    between atoms: C5_7  and  N2_8 
REMARK    3  A    between atoms: C5_7  and  C6_12 
REMARK    4  A    between atoms: C8_19  and  N5_20 
ROOT
HETATM    1  C1  UNL     1      -5.995  66.735  14.632  1.00  0.00     0.047 C 
HETATM    2  C2  UNL     1      -5.150  67.625  14.114  1.00  0.00     0.067 A 
HETATM    3  N1  UNL     1      -4.832  67.550  12.789  1.00  0.00    -0.350 N 
ATOM      4  H1  UNL     1      -5.245  66.815  12.214  1.00  0.00     0.166 HD
HETATM    5  C3  UNL     1      -3.984  68.429  12.233  1.00  0.00     0.100 A 
HETATM    6  C4  UNL     1      -3.691  68.341  10.956  1.00  0.00     0.050 C 
HETATM    7  C7  UNL     1      -3.447  69.407  13.038  1.00  0.00     0.273 A 
HETATM    8  O2  UNL     1      -2.645  70.268  12.597  1.00  0.00    -0.266 OA
HETATM    9  N4  UNL     1      -3.761  69.480  14.347  1.00  0.00    -0.306 N 
ATOM     10  H4  UNL     1      -3.351  70.212  14.926  1.00  0.00     0.170 HD
HETATM   11  C8  UNL     1      -4.612  68.595  14.897  1.00  0.00     0.128 A 
ENDROOT
BRANCH   6  12
HETATM   12  C5  UNL     1      -4.255  67.301  10.074  1.00  0.00     0.297 C 
BRANCH  12  13
HETATM   13  N2  UNL     1      -4.856  67.916   8.929  1.00  0.00    -0.064 N 
ATOM     14  H23 UNL     1      -5.855  67.720   8.869  1.00  0.00     0.275 HD
ATOM     15  H22 UNL     1      -4.911  68.931   9.021  1.00  0.00     0.275 HD
ATOM     16  H21 UNL     1      -4.357  67.633   8.086  1.00  0.00     0.275 HD
ENDBRANCH  12  13
BRANCH  12  17
HETATM   17  C6  UNL     1      -3.236  66.313   9.649  1.00  0.00     0.265 C 
HETATM   18  N3  UNL     1      -1.896  66.504  10.063  1.00  0.00    -0.060 NA
HETATM   19  O1  UNL     1      -3.495  65.314   8.942  1.00  0.00    -0.274 OA
ENDBRANCH  12  17
ENDBRANCH   6  12
BRANCH  11  20
HETATM   20  N5  UNL     1      -4.883  68.710  16.170  1.00  0.00    -0.384 N 
ATOM     21  H52 UNL     1      -5.727  68.259  16.525  1.00  0.00     0.157 HD
ATOM     22  H51 UNL     1      -4.290  69.228  16.817  1.00  0.00     0.157 HD
ENDBRANCH  11  20
TORSDOF 4
ENDMDL
MODEL 3
REMARK VINA RESULT: -5.895036263      1.220      1.301
REMARK  4 active torsions:
REMARK  status: ('A' for Active; 'I' for Inactive)
REMARK    1  A    between atoms: C4_6  and  C5_7 
REMARK    2  A    between atoms: C5_7  and  N2_8 
REMARK    3  A    between atoms: C5_7  and  C6_12 
REMARK    4  A    between atoms: C8_19  and  N5_20 
ROOT
HETATM    1  C1  UNL     1      -5.963  66.825  14.538  1.00  0.00     0.047 C 
HETATM    2  C2  UNL     1      -5.073  67.763  14.218  1.00  0.00     0.067 A 
HETATM    3  N1  UNL     1      -4.580  67.810  12.947  1.00  0.00    -0.350 N 
ATOM      4  H1  UNL     1      -4.898  67.127  12.260  1.00  0.00     0.166 HD
HETATM    5  C3  UNL     1      -3.683  68.742  12.589  1.00  0.00     0.100 A 
HETATM    6  C4  UNL     1      -3.220  68.770  11.360  1.00  0.00     0.050 C 
HETATM    7  C7  UNL     1      -3.276  69.647  13.542  1.00  0.00     0.273 A 
HETATM    8  O2  UNL     1      -2.440  70.550  13.290  1.00  0.00    -0.266 OA
HETATM    9  N4  UNL     1      -3.764  69.600  14.798  1.00  0.00    -0.306 N 
ATOM     10  H4  UNL     1      -3.448  70.281  15.489  1.00  0.00     0.170 HD
HETATM   11  C8  UNL     1      -4.663  68.663  15.149  1.00  0.00     0.128 A 
ENDROOT
BRANCH   6  12
HETATM   12  C5  UNL     1      -3.641  67.810  10.323  1.00  0.00     0.297 C 
BRANCH  12  13
HETATM   13  N2  UNL     1      -3.695  68.467   9.052  1.00  0.00    -0.064 N 
ATOM     14  H23 UNL     1      -2.799  68.439   8.567  1.00  0.00     0.275 HD
ATOM     15  H22 UNL     1      -4.247  67.944   8.371  1.00  0.00     0.275 HD
ATOM     16  H21 UNL     1      -4.038  69.420   9.174  1.00  0.00     0.275 HD
ENDBRANCH  12  13
BRANCH  12  17
HETATM   17  C6  UNL     1      -2.746  66.631  10.252  1.00  0.00     0.265 C 
HETATM   18  N3  UNL     1      -3.086  65.576   9.372  1.00  0.00    -0.060 NA
HETATM   19  O1  UNL     1      -1.701  66.516  10.930  1.00  0.00    -0.274 OA
ENDBRANCH  12  17
ENDBRANCH   6  12
BRANCH  11  20
HETATM   20  N5  UNL     1      -5.104  68.662  16.379  1.00  0.00    -0.384 N 
ATOM     21  H52 UNL     1      -5.508  67.799  16.744  1.00  0.00     0.157 HD
ATOM     22  H51 UNL     1      -5.061  69.482  16.983  1.00  0.00     0.157 HD
ENDBRANCH  11  20
TORSDOF 4
ENDMDL
MODEL 4
REMARK VINA RESULT: -5.824998499      1.904      2.486
REMARK  4 active torsions:
REMARK  status: ('A' for Active; 'I' for Inactive)
REMARK    1  A    between atoms: C4_6  and  C5_7 
REMARK    2  A    between atoms: C5_7  and  N2_8 
REMARK    3  A    between atoms: C5_7  and  C6_12 
REMARK    4  A    between atoms: C8_19  and  N5_20 
ROOT
HETATM    1  C1  UNL     1      -5.230  68.525  12.741  1.00  0.00     0.047 C 
HETATM    2  C2  UNL     1      -4.281  68.313  11.830  1.00  0.00     0.067 A 
HETATM    3  N1  UNL     1      -4.588  67.623  10.694  1.00  0.00    -0.350 N 
ATOM      4  H1  UNL     1      -5.539  67.278  10.558  1.00  0.00     0.166 HD
HETATM    5  C3  UNL     1      -3.658  67.390   9.755  1.00  0.00     0.100 A 
HETATM    6  C4  UNL     1      -3.974  66.724   8.668  1.00  0.00     0.050 C 
HETATM    7  C7  UNL     1      -2.387  67.868   9.973  1.00  0.00     0.273 A 
HETATM    8  O2  UNL     1      -1.458  67.694   9.145  1.00  0.00    -0.266 OA
HETATM    9  N4  UNL     1      -2.083  68.550  11.096  1.00  0.00    -0.306 N 
ATOM     10  H4  UNL     1      -1.134  68.895  11.237  1.00  0.00     0.170 HD
HETATM   11  C8  UNL     1      -3.021  68.779  12.032  1.00  0.00     0.128 A 
ENDROOT
BRANCH   6  12
HETATM   12  C5  UNL     1      -5.330  66.201   8.414  1.00  0.00     0.297 C 
BRANCH  12  13
HETATM   13  N2  UNL     1      -5.768  66.611   7.114  1.00  0.00    -0.064 N 
ATOM     14  H23 UNL     1      -6.453  67.365   7.160  1.00  0.00     0.275 HD
ATOM     15  H22 UNL     1      -5.038  67.106   6.601  1.00  0.00     0.275 HD
ATOM     16  H21 UNL     1      -6.118  65.803   6.600  1.00  0.00     0.275 HD
ENDBRANCH  12  13
BRANCH  12  17
HETATM   17  C6  UNL     1      -5.395  64.726   8.535  1.00  0.00     0.265 C 
HETATM   18  N3  UNL     1      -6.313  64.021   7.720  1.00  0.00    -0.060 NA
HETATM   19  O1  UNL     1      -4.681  64.065   9.321  1.00  0.00    -0.274 OA
ENDBRANCH  12  17
ENDBRANCH   6  12
BRANCH  11  20
HETATM   20  N5  UNL     1      -2.675  69.445  13.102  1.00  0.00    -0.384 N 
ATOM     21  H52 UNL     1      -3.270  69.372  13.928  1.00  0.00     0.157 HD
ATOM     22  H51 UNL     1      -1.841  70.029  13.143  1.00  0.00     0.157 HD
ENDBRANCH  11  20
TORSDOF 4
ENDMDL
MODEL 5
REMARK VINA RESULT: -5.819881619      2.146      2.872
REMARK  4 active torsions:
REMARK  status: ('A' for Active; 'I' for Inactive)
REMARK    1  A    between atoms: C4_6  and  C5_7 
REMARK    2  A    between atoms: C5_7  and  N2_8 
REMARK    3  A    between atoms: C5_7  and  C6_12 
REMARK    4  A    between atoms: C8_19  and  N5_20 
ROOT
HETATM    1  C1  UNL     1      -2.035  71.283  12.089  1.00  0.00     0.047 C 
HETATM    2  C2  UNL     1      -2.763  70.184  12.277  1.00  0.00     0.067 A 
HETATM    3  N1  UNL     1      -3.135  69.438  11.197  1.00  0.00    -0.350 N 
ATOM      4  H1  UNL     1      -2.852  69.732  10.262  1.00  0.00     0.166 HD
HETATM    5  C3  UNL     1      -3.868  68.324  11.347  1.00  0.00     0.100 A 
HETATM    6  C4  UNL     1      -4.217  67.619  10.295  1.00  0.00     0.050 C 
HETATM    7  C7  UNL     1      -4.232  67.957  12.622  1.00  0.00     0.273 A 
HETATM    8  O2  UNL     1      -4.918  66.930  12.851  1.00  0.00    -0.266 OA
HETATM    9  N4  UNL     1      -3.864  68.695  13.690  1.00  0.00    -0.306 N 
ATOM     10  H4  UNL     1      -4.146  68.405  14.626  1.00  0.00     0.170 HD
HETATM   11  C8  UNL     1      -3.130  69.810  13.530  1.00  0.00     0.128 A 
ENDROOT
BRANCH   6  12
HETATM   12  C5  UNL     1      -3.838  67.993   8.919  1.00  0.00     0.297 C 
BRANCH  12  13
HETATM   13  N2  UNL     1      -2.449  67.719   8.711  1.00  0.00    -0.064 N 
ATOM     14  H23 UNL     1      -2.251  66.718   8.709  1.00  0.00     0.275 HD
ATOM     15  H22 UNL     1      -2.153  67.929   7.757  1.00  0.00     0.275 HD
ATOM     16  H21 UNL     1      -1.893  68.219   9.405  1.00  0.00     0.275 HD
ENDBRANCH  12  13
BRANCH  12  17
HETATM   17  C6  UNL     1      -4.657  67.293   7.901  1.00  0.00     0.265 C 
HETATM   18  N3  UNL     1      -5.055  65.958   8.157  1.00  0.00    -0.060 NA
HETATM   19  O1  UNL     1      -5.018  67.817   6.825  1.00  0.00    -0.274 OA
ENDBRANCH  12  17
ENDBRANCH   6  12
BRANCH  11  20
HETATM   20  N5  UNL     1      -2.799  70.489  14.597  1.00  0.00    -0.384 N 
ATOM     21  H52 UNL     1      -1.894  70.960  14.607  1.00  0.00     0.157 HD
ATOM     22  H51 UNL     1      -3.406  70.565  15.413  1.00  0.00     0.157 HD
ENDBRANCH  11  20
TORSDOF 4
ENDMDL
