MODEL 1
REMARK VINA RESULT: -7.867767515      0.000      0.000
REMARK  3 active torsions:
REMARK  status: ('A' for Active; 'I' for Inactive)
REMARK    1  A    between atoms: N1_1  and  N2_4 
REMARK    2  A    between atoms: C1_6  and  N3_7 
REMARK    3  A    between atoms: C1_6  and  C3_12 
ROOT
HETATM    1  N2  UNL     1      -2.414  67.643  10.758  1.00  0.00    -0.290 N 
ATOM      2  H2  UNL     1      -2.029  67.919  11.661  1.00  0.00     0.188 HD
HETATM    3  C1  UNL     1      -3.612  67.223  10.790  1.00  0.00     0.149 C 
ENDROOT
BRANCH   3   4
HETATM    4  N3  UNL     1      -4.224  67.207  12.090  1.00  0.00    -0.316 N 
HETATM    5  C2  UNL     1      -4.295  68.273  12.816  1.00  0.00     0.202 C 
HETATM    6  N4  UNL     1      -4.911  68.185  14.088  1.00  0.00    -0.066 NA
HETATM    7  N5  UNL     1      -3.795  69.525  12.420  1.00  0.00    -0.066 NA
ATOM      8  H3  UNL     1      -4.611  66.334  12.448  1.00  0.00     0.169 HD
ENDBRANCH   3   4
BRANCH   3   9
HETATM    9  C3  UNL     1      -4.317  66.806   9.609  1.00  0.00     0.087 A 
HETATM   10  C4  UNL     1      -4.497  67.624   8.525  1.00  0.00     0.108 A 
HETATM   11  C5  UNL     1      -5.186  67.149   7.395  1.00  0.00     0.251 A 
HETATM   12  O1  UNL     1      -5.346  67.916   6.397  1.00  0.00    -0.268 OA
HETATM   13  N6  UNL     1      -5.675  65.900   7.361  1.00  0.00    -0.275 N 
HETATM   14  C6  UNL     1      -5.483  65.118   8.443  1.00  0.00     0.327 A 
ATOM     15  H6  UNL     1      -6.176  65.553   6.543  1.00  0.00     0.173 HD
HETATM   16  O2  UNL     1      -5.923  63.932   8.464  1.00  0.00    -0.247 OA
HETATM   17  N7  UNL     1      -4.825  65.566   9.526  1.00  0.00    -0.305 N 
ATOM     18  H7  UNL     1      -4.706  64.936  10.320  1.00  0.00     0.171 HD
ENDBRANCH   3   9
BRANCH   1  19
HETATM   19  N1  UNL     1      -1.558  67.781   9.695  1.00  0.00    -0.344 N 
ATOM     20  H12 UNL     1      -0.575  67.661   9.939  1.00  0.00     0.176 HD
ATOM     21  H11 UNL     1      -1.758  67.983   8.715  1.00  0.00     0.176 HD
ENDBRANCH   1  19
TORSDOF 3
ENDMDL
MODEL 2
REMARK VINA RESULT: -7.818021565      0.682      2.035
REMARK  3 active torsions:
REMARK  status: ('A' for Active; 'I' for Inactive)
REMARK    1  A    between atoms: N1_1  and  N2_4 
REMARK    2  A    between atoms: C1_6  and  N3_7 
REMARK    3  A    between atoms: C1_6  and  C3_12 
ROOT
HETATM    1  N2  UNL     1      -2.449  67.632  10.701  1.00  0.00    -0.290 N 
ATOM      2  H2  UNL     1      -2.057  67.969  11.581  1.00  0.00     0.188 HD
HETATM    3  C1  UNL     1      -3.626  67.163  10.782  1.00  0.00     0.149 C 
ENDROOT
BRANCH   3   4
HETATM    4  N3  UNL     1      -4.208  67.182  12.097  1.00  0.00    -0.316 N 
HETATM    5  C2  UNL     1      -4.266  68.269  12.792  1.00  0.00     0.202 C 
HETATM    6  N4  UNL     1      -4.852  68.217  14.080  1.00  0.00    -0.066 NA
HETATM    7  N5  UNL     1      -3.782  69.511  12.348  1.00  0.00    -0.066 NA
ATOM      8  H3  UNL     1      -4.583  66.319  12.489  1.00  0.00     0.169 HD
ENDBRANCH   3   4
BRANCH   3   9
HETATM    9  C3  UNL     1      -4.338  66.659   9.640  1.00  0.00     0.087 A 
HETATM   10  C4  UNL     1      -4.696  65.343   9.511  1.00  0.00     0.108 A 
HETATM   11  C5  UNL     1      -5.405  64.916   8.373  1.00  0.00     0.251 A 
HETATM   12  O1  UNL     1      -5.731  63.696   8.266  1.00  0.00    -0.268 OA
HETATM   13  N6  UNL     1      -5.736  65.783   7.405  1.00  0.00    -0.275 N 
HETATM   14  C6  UNL     1      -5.369  67.072   7.558  1.00  0.00     0.327 A 
ATOM     15  H6  UNL     1      -6.249  65.477   6.577  1.00  0.00     0.173 HD
HETATM   16  O2  UNL     1      -5.657  67.931   6.675  1.00  0.00    -0.247 OA
HETATM   17  N7  UNL     1      -4.693  67.485   8.643  1.00  0.00    -0.305 N 
ATOM     18  H7  UNL     1      -4.438  68.471   8.713  1.00  0.00     0.171 HD
ENDBRANCH   3   9
BRANCH   1  19
HETATM   19  N1  UNL     1      -1.624  67.757   9.612  1.00  0.00    -0.344 N 
ATOM     20  H12 UNL     1      -2.096  68.096   8.775  1.00  0.00     0.176 HD
ATOM     21  H11 UNL     1      -0.627  67.563   9.521  1.00  0.00     0.176 HD
ENDBRANCH   1  19
TORSDOF 3
ENDMDL
MODEL 3
REMARK VINA RESULT: -7.355861370      3.001      5.454
REMARK  3 active torsions:
REMARK  status: ('A' for Active; 'I' for Inactive)
REMARK    1  A    between atoms: N1_1  and  N2_4 
REMARK    2  A    between atoms: C1_6  and  N3_7 
REMARK    3  A    between atoms: C1_6  and  C3_12 
ROOT
HETATM    1  N2  UNL     1      -2.022  66.782   9.603  1.00  0.00    -0.290 N 
ATOM      2  H2  UNL     1      -1.908  66.442   8.647  1.00  0.00     0.188 HD
HETATM    3  C1  UNL     1      -2.908  67.679   9.752  1.00  0.00     0.149 C 
ENDROOT
BRANCH   3   4
HETATM    4  N3  UNL     1      -3.601  68.066   8.553  1.00  0.00    -0.316 N 
HETATM    5  C2  UNL     1      -4.467  67.288   7.994  1.00  0.00     0.202 C 
HETATM    6  N4  UNL     1      -5.112  67.733   6.814  1.00  0.00    -0.066 NA
HETATM    7  N5  UNL     1      -4.813  66.019   8.485  1.00  0.00    -0.066 NA
ATOM      8  H3  UNL     1      -3.404  68.975   8.136  1.00  0.00     0.169 HD
ENDBRANCH   3   4
BRANCH   3   9
HETATM    9  C3  UNL     1      -3.212  68.260  11.031  1.00  0.00     0.087 A 
HETATM   10  C4  UNL     1      -4.049  67.663  11.936  1.00  0.00     0.108 A 
HETATM   11  C5  UNL     1      -4.295  68.279  13.177  1.00  0.00     0.251 A 
HETATM   12  O1  UNL     1      -5.071  67.716  14.007  1.00  0.00    -0.268 OA
HETATM   13  N6  UNL     1      -3.720  69.450  13.489  1.00  0.00    -0.275 N 
HETATM   14  C6  UNL     1      -2.901  70.015  12.578  1.00  0.00     0.327 A 
ATOM     15  H6  UNL     1      -3.897  69.900  14.388  1.00  0.00     0.173 HD
HETATM   16  O2  UNL     1      -2.333  71.118  12.822  1.00  0.00    -0.247 OA
HETATM   17  N7  UNL     1      -2.663  69.431  11.392  1.00  0.00    -0.305 N 
ATOM     18  H7  UNL     1      -2.036  69.898  10.736  1.00  0.00     0.171 HD
ENDBRANCH   3   9
BRANCH   1  19
HETATM   19  N1  UNL     1      -1.194  66.199  10.528  1.00  0.00    -0.344 N 
ATOM     20  H12 UNL     1      -0.269  66.625  10.579  1.00  0.00     0.176 HD
ATOM     21  H11 UNL     1      -1.367  65.417  11.161  1.00  0.00     0.176 HD
ENDBRANCH   1  19
TORSDOF 3
ENDMDL
MODEL 4
REMARK VINA RESULT: -7.264949508      2.972      5.073
REMARK  3 active torsions:
REMARK  status: ('A' for Active; 'I' for Inactive)
REMARK    1  A    between atoms: N1_1  and  N2_4 
REMARK    2  A    between atoms: C1_6  and  N3_7 
REMARK    3  A    between atoms: C1_6  and  C3_12 
ROOT
HETATM    1  N2  UNL     1      -2.078  66.819   9.705  1.00  0.00    -0.290 N 
ATOM      2  H2  UNL     1      -1.938  66.545   8.732  1.00  0.00     0.188 HD
HETATM    3  C1  UNL     1      -3.008  67.663   9.897  1.00  0.00     0.149 C 
ENDROOT
BRANCH   3   4
HETATM    4  N3  UNL     1      -3.705  68.090   8.714  1.00  0.00    -0.316 N 
HETATM    5  C2  UNL     1      -4.448  67.277   8.039  1.00  0.00     0.202 C 
HETATM    6  N4  UNL     1      -5.106  67.764   6.883  1.00  0.00    -0.066 NA
HETATM    7  N5  UNL     1      -4.646  65.929   8.380  1.00  0.00    -0.066 NA
ATOM      8  H3  UNL     1      -3.612  69.056   8.402  1.00  0.00     0.169 HD
ENDBRANCH   3   4
BRANCH   3   9
HETATM    9  C3  UNL     1      -3.353  68.149  11.204  1.00  0.00     0.087 A 
HETATM   10  C4  UNL     1      -2.884  69.336  11.701  1.00  0.00     0.108 A 
HETATM   11  C5  UNL     1      -3.272  69.762  12.984  1.00  0.00     0.251 A 
HETATM   12  O1  UNL     1      -2.832  70.863  13.433  1.00  0.00    -0.268 OA
HETATM   13  N6  UNL     1      -4.098  69.018  13.735  1.00  0.00    -0.275 N 
HETATM   14  C6  UNL     1      -4.543  67.853  13.220  1.00  0.00     0.327 A 
ATOM     15  H6  UNL     1      -4.380  69.323  14.667  1.00  0.00     0.173 HD
HETATM   16  O2  UNL     1      -5.324  67.114  13.886  1.00  0.00    -0.247 OA
HETATM   17  N7  UNL     1      -4.177  67.442  11.995  1.00  0.00    -0.305 N 
ATOM     18  H7  UNL     1      -4.540  66.553  11.649  1.00  0.00     0.171 HD
ENDBRANCH   3   9
BRANCH   1  19
HETATM   19  N1  UNL     1      -1.233  66.221  10.604  1.00  0.00    -0.344 N 
ATOM     20  H12 UNL     1      -1.578  66.234  11.564  1.00  0.00     0.176 HD
ATOM     21  H11 UNL     1      -0.328  65.774  10.456  1.00  0.00     0.176 HD
ENDBRANCH   1  19
TORSDOF 3
ENDMDL
MODEL 5
REMARK VINA RESULT: -6.944379430      3.025      5.036
REMARK  3 active torsions:
REMARK  status: ('A' for Active; 'I' for Inactive)
REMARK    1  A    between atoms: N1_1  and  N2_4 
REMARK    2  A    between atoms: C1_6  and  N3_7 
REMARK    3  A    between atoms: C1_6  and  C3_12 
ROOT
HETATM    1  N2  UNL     1      -2.880  66.061  10.044  1.00  0.00    -0.290 N 
ATOM      2  H2  UNL     1      -2.927  65.638   9.117  1.00  0.00     0.188 HD
HETATM    3  C1  UNL     1      -3.859  66.812  10.343  1.00  0.00     0.149 C 
ENDROOT
BRANCH   3   4
HETATM    4  N3  UNL     1      -4.868  66.942   9.326  1.00  0.00    -0.316 N 
HETATM    5  C2  UNL     1      -4.606  67.479   8.181  1.00  0.00     0.202 C 
HETATM    6  N4  UNL     1      -5.647  67.576   7.226  1.00  0.00    -0.066 NA
HETATM    7  N5  UNL     1      -3.343  67.977   7.820  1.00  0.00    -0.066 NA
ATOM      8  H3  UNL     1      -5.811  66.603   9.514  1.00  0.00     0.169 HD
ENDBRANCH   3   4
BRANCH   3   9
HETATM    9  C3  UNL     1      -3.965  67.478  11.612  1.00  0.00     0.087 A 
HETATM   10  C4  UNL     1      -3.277  68.624  11.908  1.00  0.00     0.108 A 
HETATM   11  C5  UNL     1      -3.436  69.234  13.165  1.00  0.00     0.251 A 
HETATM   12  O1  UNL     1      -2.794  70.296  13.427  1.00  0.00    -0.268 OA
HETATM   13  N6  UNL     1      -4.255  68.705  14.087  1.00  0.00    -0.275 N 
HETATM   14  C6  UNL     1      -4.919  67.575  13.768  1.00  0.00     0.327 A 
ATOM     15  H6  UNL     1      -4.371  69.144  15.001  1.00  0.00     0.173 HD
HETATM   16  O2  UNL     1      -5.704  67.035  14.601  1.00  0.00    -0.247 OA
HETATM   17  N7  UNL     1      -4.771  66.989  12.568  1.00  0.00    -0.305 N 
ATOM     18  H7  UNL     1      -5.295  66.135  12.375  1.00  0.00     0.171 HD
ENDBRANCH   3   9
BRANCH   1  19
HETATM   19  N1  UNL     1      -1.769  65.731  10.777  1.00  0.00    -0.344 N 
ATOM     20  H12 UNL     1      -1.005  65.351  10.218  1.00  0.00     0.176 HD
ATOM     21  H11 UNL     1      -1.599  65.809  11.780  1.00  0.00     0.176 HD
ENDBRANCH   1  19
TORSDOF 3
ENDMDL
