MODEL 1
REMARK VINA RESULT: -6.198594367      0.000      0.000
REMARK  3 active torsions:
REMARK  status: ('A' for Active; 'I' for Inactive)
REMARK    1  A    between atoms: N1_1  and  N2_4 
REMARK    2  A    between atoms: N2_4  and  C1_6 
REMARK    3  A    between atoms: N6_16  and  S1_18 
ROOT
HETATM    1  C1  UNL     1      -2.974  68.282  10.767  1.00  0.00     0.170 A 
HETATM    2  N3  UNL     1      -2.557  69.383  11.452  1.00  0.00    -0.289 N 
ATOM      3  H3  UNL     1      -1.739  69.905  11.139  1.00  0.00     0.172 HD
HETATM    4  C2  UNL     1      -3.233  69.774  12.540  1.00  0.00     0.340 A 
HETATM    5  O1  UNL     1      -2.852  70.797  13.185  1.00  0.00    -0.245 OA
HETATM    6  N4  UNL     1      -4.313  69.071  12.936  1.00  0.00    -0.250 N 
ATOM      7  H4  UNL     1      -4.816  69.382  13.767  1.00  0.00     0.192 HD
HETATM    8  N5  UNL     1      -4.744  68.012  12.306  1.00  0.00    -0.278 N 
ATOM      9  H5  UNL     1      -5.566  67.511  12.642  1.00  0.00     0.189 HD
HETATM   10  C3  UNL     1      -4.073  67.576  11.179  1.00  0.00     0.176 A 
HETATM   11  N6  UNL     1      -4.525  66.543  10.596  1.00  0.00    -0.252 N 
ATOM     12  H6  UNL     1      -5.353  66.129  11.025  1.00  0.00     0.181 HD
ENDROOT
BRANCH   1  13
HETATM   13  N2  UNL     1      -2.322  67.910   9.720  1.00  0.00    -0.289 N 
ATOM     14  H2  UNL     1      -2.855  67.715   8.873  1.00  0.00     0.188 HD
BRANCH  13  15
HETATM   15  N1  UNL     1      -0.954  67.756   9.666  1.00  0.00    -0.344 N 
ATOM     16  H12 UNL     1      -0.607  66.819   9.462  1.00  0.00     0.176 HD
ATOM     17  H11 UNL     1      -0.282  68.508   9.815  1.00  0.00     0.176 HD
ENDBRANCH  13  15
ENDBRANCH   1  13
BRANCH  11  18
HETATM   18  S1  UNL     1      -3.960  65.753   9.216  1.00  0.00     0.360 S 
HETATM   19  O2  UNL     1      -4.246  66.584   7.958  1.00  0.00    -0.187 OA
HETATM   20  O3  UNL     1      -4.657  64.430   8.931  1.00  0.00    -0.187 OA
ENDBRANCH  11  18
TORSDOF 3
ENDMDL
MODEL 2
REMARK VINA RESULT: -5.931898677      2.481      4.847
REMARK  3 active torsions:
REMARK  status: ('A' for Active; 'I' for Inactive)
REMARK    1  A    between atoms: N1_1  and  N2_4 
REMARK    2  A    between atoms: N2_4  and  C1_6 
REMARK    3  A    between atoms: N6_16  and  S1_18 
ROOT
HETATM    1  C1  UNL     1      -3.718  66.135   9.973  1.00  0.00     0.170 A 
HETATM    2  N3  UNL     1      -4.120  64.974   9.386  1.00  0.00    -0.289 N 
ATOM      3  H3  UNL     1      -3.662  64.094   9.619  1.00  0.00     0.172 HD
HETATM    4  C2  UNL     1      -5.124  65.000   8.500  1.00  0.00     0.340 A 
HETATM    5  O1  UNL     1      -5.505  63.924   7.947  1.00  0.00    -0.245 OA
HETATM    6  N4  UNL     1      -5.718  66.174   8.206  1.00  0.00    -0.250 N 
ATOM      7  H4  UNL     1      -6.481  66.176   7.530  1.00  0.00     0.192 HD
HETATM    8  N5  UNL     1      -5.361  67.307   8.748  1.00  0.00    -0.278 N 
ATOM      9  H5  UNL     1      -5.840  68.172   8.496  1.00  0.00     0.189 HD
HETATM   10  C3  UNL     1      -4.329  67.322   9.667  1.00  0.00     0.176 A 
HETATM   11  N6  UNL     1      -4.015  68.445  10.170  1.00  0.00    -0.252 N 
ATOM     12  H6  UNL     1      -4.565  69.238   9.840  1.00  0.00     0.181 HD
ENDROOT
BRANCH   1  13
HETATM   13  N2  UNL     1      -2.753  66.107  10.825  1.00  0.00    -0.289 N 
ATOM     14  H2  UNL     1      -2.972  66.318  11.799  1.00  0.00     0.188 HD
BRANCH  13  15
HETATM   15  N1  UNL     1      -1.444  65.810  10.513  1.00  0.00    -0.344 N 
ATOM     16  H12 UNL     1      -1.231  65.664   9.526  1.00  0.00     0.176 HD
ATOM     17  H11 UNL     1      -0.691  65.729  11.196  1.00  0.00     0.176 HD
ENDBRANCH  13  15
ENDBRANCH   1  13
BRANCH  11  18
HETATM   18  S1  UNL     1      -2.821  68.819  11.304  1.00  0.00     0.360 S 
HETATM   19  O2  UNL     1      -3.203  68.282  12.690  1.00  0.00    -0.187 OA
HETATM   20  O3  UNL     1      -2.640  70.312  11.541  1.00  0.00    -0.187 OA
ENDBRANCH  11  18
TORSDOF 3
ENDMDL
MODEL 3
REMARK VINA RESULT: -5.710675676      2.565      5.014
REMARK  3 active torsions:
REMARK  status: ('A' for Active; 'I' for Inactive)
REMARK    1  A    between atoms: N1_1  and  N2_4 
REMARK    2  A    between atoms: N2_4  and  C1_6 
REMARK    3  A    between atoms: N6_16  and  S1_18 
ROOT
HETATM    1  C1  UNL     1      -4.502  66.310  10.068  1.00  0.00     0.170 A 
HETATM    2  N3  UNL     1      -5.215  65.217   9.677  1.00  0.00    -0.289 N 
ATOM      3  H3  UNL     1      -5.408  64.465  10.338  1.00  0.00     0.172 HD
HETATM    4  C2  UNL     1      -5.659  65.140   8.416  1.00  0.00     0.340 A 
HETATM    5  O1  UNL     1      -6.323  64.126   8.042  1.00  0.00    -0.245 OA
HETATM    6  N4  UNL     1      -5.394  66.145   7.558  1.00  0.00    -0.250 N 
ATOM      7  H4  UNL     1      -5.740  66.071   6.602  1.00  0.00     0.192 HD
HETATM    8  N5  UNL     1      -4.716  67.208   7.895  1.00  0.00    -0.278 N 
ATOM      9  H5  UNL     1      -4.539  67.945   7.211  1.00  0.00     0.189 HD
HETATM   10  C3  UNL     1      -4.239  67.325   9.187  1.00  0.00     0.176 A 
HETATM   11  N6  UNL     1      -3.584  68.375   9.473  1.00  0.00    -0.252 N 
ATOM     12  H6  UNL     1      -3.473  69.040   8.707  1.00  0.00     0.181 HD
ENDROOT
BRANCH   1  13
HETATM   13  N2  UNL     1      -4.076  66.381  11.281  1.00  0.00    -0.289 N 
ATOM     14  H2  UNL     1      -3.068  66.427  11.429  1.00  0.00     0.188 HD
BRANCH  13  15
HETATM   15  N1  UNL     1      -4.888  66.399  12.394  1.00  0.00    -0.344 N 
ATOM     16  H12 UNL     1      -5.082  67.312  12.803  1.00  0.00     0.176 HD
ATOM     17  H11 UNL     1      -5.298  65.570  12.824  1.00  0.00     0.176 HD
ENDBRANCH  13  15
ENDBRANCH   1  13
BRANCH  11  18
HETATM   18  S1  UNL     1      -2.872  68.833  10.932  1.00  0.00     0.360 S 
HETATM   19  O2  UNL     1      -1.969  67.715  11.471  1.00  0.00    -0.187 OA
HETATM   20  O3  UNL     1      -3.867  69.059  12.062  1.00  0.00    -0.187 OA
ENDBRANCH  11  18
TORSDOF 3
ENDMDL
MODEL 4
REMARK VINA RESULT: -5.678156167      1.975      4.958
REMARK  3 active torsions:
REMARK  status: ('A' for Active; 'I' for Inactive)
REMARK    1  A    between atoms: N1_1  and  N2_4 
REMARK    2  A    between atoms: N2_4  and  C1_6 
REMARK    3  A    between atoms: N6_16  and  S1_18 
ROOT
HETATM    1  C1  UNL     1      -4.214  67.240  11.127  1.00  0.00     0.170 A 
HETATM    2  N3  UNL     1      -4.750  66.080  10.657  1.00  0.00    -0.289 N 
ATOM      3  H3  UNL     1      -5.534  65.642  11.141  1.00  0.00     0.172 HD
HETATM    4  C2  UNL     1      -4.239  65.520   9.554  1.00  0.00     0.340 A 
HETATM    5  O1  UNL     1      -4.731  64.438   9.110  1.00  0.00    -0.245 OA
HETATM    6  N4  UNL     1      -3.203  66.114   8.929  1.00  0.00    -0.250 N 
ATOM      7  H4  UNL     1      -2.825  65.674   8.090  1.00  0.00     0.192 HD
HETATM    8  N5  UNL     1      -2.662  67.226   9.347  1.00  0.00    -0.278 N 
ATOM      9  H5  UNL     1      -1.880  67.641   8.841  1.00  0.00     0.189 HD
HETATM   10  C3  UNL     1      -3.162  67.836  10.483  1.00  0.00     0.176 A 
HETATM   11  N6  UNL     1      -2.608  68.916  10.855  1.00  0.00    -0.252 N 
ATOM     12  H6  UNL     1      -1.835  69.232  10.268  1.00  0.00     0.181 HD
ENDROOT
BRANCH   1  13
HETATM   13  N2  UNL     1      -4.709  67.777  12.188  1.00  0.00    -0.289 N 
ATOM     14  H2  UNL     1      -4.818  68.791  12.200  1.00  0.00     0.188 HD
BRANCH  13  15
HETATM   15  N1  UNL     1      -5.101  67.076  13.307  1.00  0.00    -0.344 N 
ATOM     16  H12 UNL     1      -4.772  67.429  14.206  1.00  0.00     0.176 HD
ATOM     17  H11 UNL     1      -5.689  66.243  13.291  1.00  0.00     0.176 HD
ENDBRANCH  13  15
ENDBRANCH   1  13
BRANCH  11  18
HETATM   18  S1  UNL     1      -2.961  69.906  12.176  1.00  0.00     0.360 S 
HETATM   19  O2  UNL     1      -2.039  71.133  12.196  1.00  0.00    -0.187 OA
HETATM   20  O3  UNL     1      -2.706  69.249  13.526  1.00  0.00    -0.187 OA
ENDBRANCH  11  18
TORSDOF 3
ENDMDL
MODEL 5
REMARK VINA RESULT: -5.613323085      2.624      3.571
REMARK  3 active torsions:
REMARK  status: ('A' for Active; 'I' for Inactive)
REMARK    1  A    between atoms: N1_1  and  N2_4 
REMARK    2  A    between atoms: N2_4  and  C1_6 
REMARK    3  A    between atoms: N6_16  and  S1_18 
ROOT
HETATM    1  C1  UNL     1      -4.687  66.664   9.067  1.00  0.00     0.170 A 
HETATM    2  N3  UNL     1      -4.037  67.758   9.553  1.00  0.00    -0.289 N 
ATOM      3  H3  UNL     1      -4.378  68.695   9.342  1.00  0.00     0.172 HD
HETATM    4  C2  UNL     1      -2.946  67.590  10.311  1.00  0.00     0.340 A 
HETATM    5  O1  UNL     1      -2.333  68.602  10.767  1.00  0.00    -0.245 OA
HETATM    6  N4  UNL     1      -2.512  66.343  10.579  1.00  0.00    -0.250 N 
ATOM      7  H4  UNL     1      -1.679  66.232  11.158  1.00  0.00     0.192 HD
HETATM    8  N5  UNL     1      -3.107  65.270  10.133  1.00  0.00    -0.278 N 
ATOM      9  H5  UNL     1      -2.743  64.345  10.362  1.00  0.00     0.189 HD
HETATM   10  C3  UNL     1      -4.237  65.401   9.347  1.00  0.00     0.176 A 
HETATM   11  N6  UNL     1      -4.786  64.333   8.934  1.00  0.00    -0.252 N 
ATOM     12  H6  UNL     1      -4.331  63.469   9.229  1.00  0.00     0.181 HD
ENDROOT
BRANCH   1  13
HETATM   13  N2  UNL     1      -5.736  66.829   8.339  1.00  0.00    -0.289 N 
ATOM     14  H2  UNL     1      -6.617  66.445   8.682  1.00  0.00     0.188 HD
BRANCH  13  15
HETATM   15  N1  UNL     1      -5.752  67.488   7.130  1.00  0.00    -0.344 N 
ATOM     16  H12 UNL     1      -6.508  67.249   6.489  1.00  0.00     0.176 HD
ATOM     17  H11 UNL     1      -5.066  68.186   6.843  1.00  0.00     0.176 HD
ENDBRANCH  13  15
ENDBRANCH   1  13
BRANCH  11  18
HETATM   18  S1  UNL     1      -6.157  64.132   7.971  1.00  0.00     0.360 S 
HETATM   19  O2  UNL     1      -6.447  62.642   7.744  1.00  0.00    -0.187 OA
HETATM   20  O3  UNL     1      -6.006  64.681   6.559  1.00  0.00    -0.187 OA
ENDBRANCH  11  18
TORSDOF 3
ENDMDL
