MODEL 1
REMARK VINA RESULT: -7.509557533      0.000      0.000
REMARK  10 active torsions:
REMARK  status: ('A' for Active; 'I' for Inactive)
REMARK    1  A    between atoms: C3_8  and  N3_9 
REMARK    2  A    between atoms: C6_15  and  C7_16 
REMARK    3  A    between atoms: C7_16  and  C8_17 
REMARK    4  A    between atoms: C8_17  and  C9_18 
REMARK    5  A    between atoms: C9_18  and  C10_19 
REMARK    6  A    between atoms: C10_19  and  C11_20 
REMARK    7  A    between atoms: C11_20  and  O1_21 
REMARK    8  A    between atoms: S1_23  and  C12_24 
REMARK    9  A    between atoms: C12_24  and  C13_25 
REMARK   10  A    between atoms: C13_25  and  C14_26 
ROOT
HETATM    1  N1  UNL     1      25.622  60.174  53.658  1.00  0.00    -0.389 N 
ATOM      2  H11 UNL     1      24.976  59.487  54.049  1.00  0.00     0.157 HD
ATOM      3  H12 UNL     1      25.229  61.103  53.810  1.00  0.00     0.157 HD
HETATM    4  C1  UNL     1      26.736  59.953  53.072  1.00  0.00     0.077 C 
HETATM    5  N2  UNL     1      27.629  60.904  52.531  1.00  0.00    -0.365 N 
ATOM      6  H2  UNL     1      27.511  61.917  52.542  1.00  0.00     0.162 HD
HETATM    7  C2  UNL     1      28.737  60.180  51.961  1.00  0.00     0.167 C 
HETATM    8  C3  UNL     1      28.774  58.902  52.817  1.00  0.00     0.226 C 
HETATM    9  C4  UNL     1      27.318  58.576  52.846  1.00  0.00     0.087 C 
HETATM   10  C5  UNL     1      26.756  57.926  51.645  1.00  0.00     0.029 C 
HETATM   11  C6  UNL     1      27.236  58.364  50.307  1.00  0.00     0.040 C 
HETATM   12  S1  UNL     1      28.334  59.691  50.354  1.00  0.00    -0.190 SA
ENDROOT
BRANCH  11  13
HETATM   13  C7  UNL     1      26.016  58.797  49.473  1.00  0.00     0.014 C 
BRANCH  13  14
HETATM   14  C8  UNL     1      25.097  57.653  49.194  1.00  0.00     0.001 C 
BRANCH  14  15
HETATM   15  C9  UNL     1      25.580  56.873  48.016  1.00  0.00     0.002 C 
BRANCH  15  16
HETATM   16  C10 UNL     1      25.473  55.382  48.188  1.00  0.00     0.026 C 
BRANCH  16  17
HETATM   17  C11 UNL     1      26.481  54.883  49.216  1.00  0.00     0.164 C 
BRANCH  17  18
HETATM   18  O1  UNL     1      26.262  53.503  49.359  1.00  0.00    -0.401 OA
ATOM     19  H1  UNL     1      26.631  53.254  50.199  1.00  0.00     0.209 HD
ENDBRANCH  17  18
ENDBRANCH  16  17
ENDBRANCH  15  16
ENDBRANCH  14  15
ENDBRANCH  13  14
ENDBRANCH  11  13
BRANCH  12  20
HETATM   20  C12 UNL     1      29.663  59.627  49.222  1.00  0.00     0.076 C 
BRANCH  20  21
HETATM   21  C13 UNL     1      29.756  58.324  48.466  1.00  0.00     0.122 C 
BRANCH  21  22
HETATM   22  C14 UNL     1      31.172  57.895  48.334  1.00  0.00     0.173 C 
HETATM   23  O2  UNL     1      31.536  57.148  47.405  1.00  0.00    -0.648 OA
HETATM   24  O3  UNL     1      32.084  58.342  49.267  1.00  0.00    -0.648 OA
ENDBRANCH  21  22
ENDBRANCH  20  21
ENDBRANCH  12  20
BRANCH   8  25
HETATM   25  N3  UNL     1      29.191  59.229  54.171  1.00  0.00    -0.071 N 
ATOM     26  H33 UNL     1      28.638  59.987  54.570  1.00  0.00     0.274 HD
ATOM     27  H32 UNL     1      28.940  58.498  54.837  1.00  0.00     0.274 HD
ATOM     28  H31 UNL     1      30.190  59.434  54.185  1.00  0.00     0.274 HD
ENDBRANCH   8  25
TORSDOF 10
ENDMDL
MODEL 2
REMARK VINA RESULT: -7.234084445      1.797      5.128
REMARK  10 active torsions:
REMARK  status: ('A' for Active; 'I' for Inactive)
REMARK    1  A    between atoms: C3_8  and  N3_9 
REMARK    2  A    between atoms: C6_15  and  C7_16 
REMARK    3  A    between atoms: C7_16  and  C8_17 
REMARK    4  A    between atoms: C8_17  and  C9_18 
REMARK    5  A    between atoms: C9_18  and  C10_19 
REMARK    6  A    between atoms: C10_19  and  C11_20 
REMARK    7  A    between atoms: C11_20  and  O1_21 
REMARK    8  A    between atoms: S1_23  and  C12_24 
REMARK    9  A    between atoms: C12_24  and  C13_25 
REMARK   10  A    between atoms: C13_25  and  C14_26 
ROOT
HETATM    1  N1  UNL     1      30.098  58.852  53.023  1.00  0.00    -0.389 N 
ATOM      2  H11 UNL     1      30.838  59.546  52.920  1.00  0.00     0.157 HD
ATOM      3  H12 UNL     1      30.454  58.091  53.602  1.00  0.00     0.157 HD
HETATM    4  C1  UNL     1      28.918  58.889  52.533  1.00  0.00     0.077 C 
HETATM    5  N2  UNL     1      27.894  57.928  52.676  1.00  0.00    -0.365 N 
ATOM      6  H2  UNL     1      27.951  57.060  53.210  1.00  0.00     0.162 HD
HETATM    7  C2  UNL     1      26.753  58.398  51.932  1.00  0.00     0.167 C 
HETATM    8  C3  UNL     1      26.933  59.926  51.980  1.00  0.00     0.226 C 
HETATM    9  C4  UNL     1      28.391  60.017  51.676  1.00  0.00     0.087 C 
HETATM   10  C5  UNL     1      28.787  59.871  50.261  1.00  0.00     0.029 C 
HETATM   11  C6  UNL     1      28.070  58.877  49.418  1.00  0.00     0.040 C 
HETATM   12  S1  UNL     1      26.918  57.928  50.278  1.00  0.00    -0.190 SA
ENDROOT
BRANCH  11  13
HETATM   13  C7  UNL     1      29.111  57.914  48.815  1.00  0.00     0.014 C 
BRANCH  13  14
HETATM   14  C8  UNL     1      30.376  58.617  48.452  1.00  0.00     0.001 C 
BRANCH  14  15
HETATM   15  C9  UNL     1      31.033  57.944  47.293  1.00  0.00     0.002 C 
BRANCH  15  16
HETATM   16  C10 UNL     1      30.976  58.737  46.015  1.00  0.00     0.026 C 
BRANCH  16  17
HETATM   17  C11 UNL     1      32.273  59.506  45.799  1.00  0.00     0.164 C 
BRANCH  17  18
HETATM   18  O1  UNL     1      31.911  60.797  45.382  1.00  0.00    -0.401 OA
ATOM     19  H1  UNL     1      32.252  60.905  44.501  1.00  0.00     0.209 HD
ENDBRANCH  17  18
ENDBRANCH  16  17
ENDBRANCH  15  16
ENDBRANCH  14  15
ENDBRANCH  13  14
ENDBRANCH  11  13
BRANCH  12  20
HETATM   20  C12 UNL     1      25.428  57.581  49.434  1.00  0.00     0.076 C 
BRANCH  20  21
HETATM   21  C13 UNL     1      25.630  56.956  48.075  1.00  0.00     0.122 C 
BRANCH  21  22
HETATM   22  C14 UNL     1      25.283  55.512  48.105  1.00  0.00     0.173 C 
HETATM   23  O2  UNL     1      24.424  55.039  47.337  1.00  0.00    -0.648 OA
HETATM   24  O3  UNL     1      25.936  54.699  49.007  1.00  0.00    -0.648 OA
ENDBRANCH  21  22
ENDBRANCH  20  21
ENDBRANCH  12  20
BRANCH   8  25
HETATM   25  N3  UNL     1      26.723  60.404  53.336  1.00  0.00    -0.071 N 
ATOM     26  H33 UNL     1      26.399  59.663  53.958  1.00  0.00     0.274 HD
ATOM     27  H32 UNL     1      27.602  60.618  53.808  1.00  0.00     0.274 HD
ATOM     28  H31 UNL     1      26.088  61.202  53.327  1.00  0.00     0.274 HD
ENDBRANCH   8  25
TORSDOF 10
ENDMDL
MODEL 3
REMARK VINA RESULT: -7.215710352      1.092      1.214
REMARK  10 active torsions:
REMARK  status: ('A' for Active; 'I' for Inactive)
REMARK    1  A    between atoms: C3_8  and  N3_9 
REMARK    2  A    between atoms: C6_15  and  C7_16 
REMARK    3  A    between atoms: C7_16  and  C8_17 
REMARK    4  A    between atoms: C8_17  and  C9_18 
REMARK    5  A    between atoms: C9_18  and  C10_19 
REMARK    6  A    between atoms: C10_19  and  C11_20 
REMARK    7  A    between atoms: C11_20  and  O1_21 
REMARK    8  A    between atoms: S1_23  and  C12_24 
REMARK    9  A    between atoms: C12_24  and  C13_25 
REMARK   10  A    between atoms: C13_25  and  C14_26 
ROOT
HETATM    1  N1  UNL     1      25.454  59.811  53.471  1.00  0.00    -0.389 N 
ATOM      2  H11 UNL     1      24.874  59.050  53.826  1.00  0.00     0.157 HD
ATOM      3  H12 UNL     1      24.962  60.689  53.635  1.00  0.00     0.157 HD
HETATM    4  C1  UNL     1      26.600  59.723  52.914  1.00  0.00     0.077 C 
HETATM    5  N2  UNL     1      27.403  60.777  52.423  1.00  0.00    -0.365 N 
ATOM      6  H2  UNL     1      27.179  61.771  52.456  1.00  0.00     0.162 HD
HETATM    7  C2  UNL     1      28.596  60.189  51.868  1.00  0.00     0.167 C 
HETATM    8  C3  UNL     1      28.743  58.898  52.693  1.00  0.00     0.226 C 
HETATM    9  C4  UNL     1      27.329  58.422  52.671  1.00  0.00     0.087 C 
HETATM   10  C5  UNL     1      26.871  57.750  51.438  1.00  0.00     0.029 C 
HETATM   11  C6  UNL     1      27.338  58.273  50.125  1.00  0.00     0.040 C 
HETATM   12  S1  UNL     1      28.289  59.706  50.238  1.00  0.00    -0.190 SA
ENDROOT
BRANCH  11  13
HETATM   13  C7  UNL     1      26.102  58.600  49.267  1.00  0.00     0.014 C 
BRANCH  13  14
HETATM   14  C8  UNL     1      25.152  57.450  49.198  1.00  0.00     0.001 C 
BRANCH  14  15
HETATM   15  C9  UNL     1      25.312  56.719  47.907  1.00  0.00     0.002 C 
BRANCH  15  16
HETATM   16  C10 UNL     1      25.353  55.222  48.056  1.00  0.00     0.026 C 
BRANCH  16  17
HETATM   17  C11 UNL     1      26.384  54.812  49.101  1.00  0.00     0.164 C 
BRANCH  17  18
HETATM   18  O1  UNL     1      26.191  53.442  49.341  1.00  0.00    -0.401 OA
ATOM     19  H1  UNL     1      26.256  53.318  50.281  1.00  0.00     0.209 HD
ENDBRANCH  17  18
ENDBRANCH  16  17
ENDBRANCH  15  16
ENDBRANCH  14  15
ENDBRANCH  13  14
ENDBRANCH  11  13
BRANCH  12  20
HETATM   20  C12 UNL     1      29.648  59.812  49.145  1.00  0.00     0.076 C 
BRANCH  20  21
HETATM   21  C13 UNL     1      30.685  58.736  49.357  1.00  0.00     0.122 C 
BRANCH  21  22
HETATM   22  C14 UNL     1      31.795  59.239  50.206  1.00  0.00     0.173 C 
HETATM   23  O2  UNL     1      32.011  58.760  51.336  1.00  0.00    -0.648 OA
HETATM   24  O3  UNL     1      32.589  60.255  49.716  1.00  0.00    -0.648 OA
ENDBRANCH  21  22
ENDBRANCH  20  21
ENDBRANCH  12  20
BRANCH   8  25
HETATM   25  N3  UNL     1      29.087  59.228  54.066  1.00  0.00    -0.071 N 
ATOM     26  H33 UNL     1      29.113  60.235  54.224  1.00  0.00     0.274 HD
ATOM     27  H32 UNL     1      28.336  58.996  54.716  1.00  0.00     0.274 HD
ATOM     28  H31 UNL     1      29.967  58.778  54.320  1.00  0.00     0.274 HD
ENDBRANCH   8  25
TORSDOF 10
ENDMDL
MODEL 4
REMARK VINA RESULT: -7.059268505      1.545      4.775
REMARK  10 active torsions:
REMARK  status: ('A' for Active; 'I' for Inactive)
REMARK    1  A    between atoms: C3_8  and  N3_9 
REMARK    2  A    between atoms: C6_15  and  C7_16 
REMARK    3  A    between atoms: C7_16  and  C8_17 
REMARK    4  A    between atoms: C8_17  and  C9_18 
REMARK    5  A    between atoms: C9_18  and  C10_19 
REMARK    6  A    between atoms: C10_19  and  C11_20 
REMARK    7  A    between atoms: C11_20  and  O1_21 
REMARK    8  A    between atoms: S1_23  and  C12_24 
REMARK    9  A    between atoms: C12_24  and  C13_25 
REMARK   10  A    between atoms: C13_25  and  C14_26 
ROOT
HETATM    1  N1  UNL     1      30.110  58.856  52.991  1.00  0.00    -0.389 N 
ATOM      2  H11 UNL     1      30.859  59.540  52.879  1.00  0.00     0.157 HD
ATOM      3  H12 UNL     1      30.457  58.099  53.579  1.00  0.00     0.157 HD
HETATM    4  C1  UNL     1      28.932  58.901  52.498  1.00  0.00     0.077 C 
HETATM    5  N2  UNL     1      27.896  57.954  52.652  1.00  0.00    -0.365 N 
ATOM      6  H2  UNL     1      27.942  57.093  53.197  1.00  0.00     0.162 HD
HETATM    7  C2  UNL     1      26.762  58.428  51.900  1.00  0.00     0.167 C 
HETATM    8  C3  UNL     1      26.960  59.954  51.929  1.00  0.00     0.226 C 
HETATM    9  C4  UNL     1      28.419  60.025  51.626  1.00  0.00     0.087 C 
HETATM   10  C5  UNL     1      28.816  59.856  50.213  1.00  0.00     0.029 C 
HETATM   11  C6  UNL     1      28.088  58.859  49.382  1.00  0.00     0.040 C 
HETATM   12  S1  UNL     1      26.923  57.936  50.253  1.00  0.00    -0.190 SA
ENDROOT
BRANCH  11  13
HETATM   13  C7  UNL     1      29.117  57.877  48.793  1.00  0.00     0.014 C 
BRANCH  13  14
HETATM   14  C8  UNL     1      30.504  58.429  48.837  1.00  0.00     0.001 C 
BRANCH  14  15
HETATM   15  C9  UNL     1      31.356  57.779  47.798  1.00  0.00     0.002 C 
BRANCH  15  16
HETATM   16  C10 UNL     1      31.041  58.212  46.392  1.00  0.00     0.026 C 
BRANCH  16  17
HETATM   17  C11 UNL     1      31.538  57.181  45.386  1.00  0.00     0.164 C 
BRANCH  17  18
HETATM   18  O1  UNL     1      31.863  56.027  46.118  1.00  0.00    -0.401 OA
ATOM     19  H1  UNL     1      31.046  55.682  46.459  1.00  0.00     0.209 HD
ENDBRANCH  17  18
ENDBRANCH  16  17
ENDBRANCH  15  16
ENDBRANCH  14  15
ENDBRANCH  13  14
ENDBRANCH  11  13
BRANCH  12  20
HETATM   20  C12 UNL     1      25.430  57.596  49.411  1.00  0.00     0.076 C 
BRANCH  20  21
HETATM   21  C13 UNL     1      25.627  56.965  48.054  1.00  0.00     0.122 C 
BRANCH  21  22
HETATM   22  C14 UNL     1      25.270  55.523  48.089  1.00  0.00     0.173 C 
HETATM   23  O2  UNL     1      24.394  55.057  47.336  1.00  0.00    -0.648 OA
HETATM   24  O3  UNL     1      25.932  54.705  48.980  1.00  0.00    -0.648 OA
ENDBRANCH  21  22
ENDBRANCH  20  21
ENDBRANCH  12  20
BRANCH   8  25
HETATM   25  N3  UNL     1      26.754  60.452  53.279  1.00  0.00    -0.071 N 
ATOM     26  H33 UNL     1      25.931  61.050  53.346  1.00  0.00     0.274 HD
ATOM     27  H32 UNL     1      26.454  59.716  53.918  1.00  0.00     0.274 HD
ATOM     28  H31 UNL     1      27.598  60.923  53.606  1.00  0.00     0.274 HD
ENDBRANCH   8  25
TORSDOF 10
ENDMDL
MODEL 5
REMARK VINA RESULT: -6.775684689      3.556      5.234
REMARK  10 active torsions:
REMARK  status: ('A' for Active; 'I' for Inactive)
REMARK    1  A    between atoms: C3_8  and  N3_9 
REMARK    2  A    between atoms: C6_15  and  C7_16 
REMARK    3  A    between atoms: C7_16  and  C8_17 
REMARK    4  A    between atoms: C8_17  and  C9_18 
REMARK    5  A    between atoms: C9_18  and  C10_19 
REMARK    6  A    between atoms: C10_19  and  C11_20 
REMARK    7  A    between atoms: C11_20  and  O1_21 
REMARK    8  A    between atoms: S1_23  and  C12_24 
REMARK    9  A    between atoms: C12_24  and  C13_25 
REMARK   10  A    between atoms: C13_25  and  C14_26 
ROOT
HETATM    1  N1  UNL     1      30.717  58.621  51.031  1.00  0.00    -0.389 N 
ATOM      2  H11 UNL     1      31.002  58.958  50.111  1.00  0.00     0.157 HD
ATOM      3  H12 UNL     1      31.247  57.774  51.238  1.00  0.00     0.157 HD
HETATM    4  C1  UNL     1      29.852  59.136  51.818  1.00  0.00     0.077 C 
HETATM    5  N2  UNL     1      29.457  58.668  53.090  1.00  0.00    -0.365 N 
ATOM      6  H2  UNL     1      29.821  57.846  53.570  1.00  0.00     0.162 HD
HETATM    7  C2  UNL     1      28.446  59.567  53.586  1.00  0.00     0.167 C 
HETATM    8  C3  UNL     1      28.811  60.892  52.893  1.00  0.00     0.226 C 
HETATM    9  C4  UNL     1      29.066  60.390  51.511  1.00  0.00     0.087 C 
HETATM   10  C5  UNL     1      27.883  60.113  50.673  1.00  0.00     0.029 C 
HETATM   11  C6  UNL     1      26.685  59.501  51.310  1.00  0.00     0.040 C 
HETATM   12  S1  UNL     1      26.905  59.089  52.968  1.00  0.00    -0.190 SA
ENDROOT
BRANCH  11  13
HETATM   13  C7  UNL     1      26.339  58.208  50.549  1.00  0.00     0.014 C 
BRANCH  13  14
HETATM   14  C8  UNL     1      25.666  58.490  49.247  1.00  0.00     0.001 C 
BRANCH  14  15
HETATM   15  C9  UNL     1      25.630  57.260  48.401  1.00  0.00     0.002 C 
BRANCH  15  16
HETATM   16  C10 UNL     1      26.373  56.093  48.993  1.00  0.00     0.026 C 
BRANCH  16  17
HETATM   17  C11 UNL     1      25.776  54.775  48.515  1.00  0.00     0.164 C 
BRANCH  17  18
HETATM   18  O1  UNL     1      26.351  53.763  49.301  1.00  0.00    -0.401 OA
ATOM     19  H1  UNL     1      26.562  53.047  48.712  1.00  0.00     0.209 HD
ENDBRANCH  17  18
ENDBRANCH  16  17
ENDBRANCH  15  16
ENDBRANCH  14  15
ENDBRANCH  13  14
ENDBRANCH  11  13
BRANCH  12  20
HETATM   20  C12 UNL     1      25.540  59.382  54.019  1.00  0.00     0.076 C 
BRANCH  20  21
HETATM   21  C13 UNL     1      25.846  60.306  55.172  1.00  0.00     0.122 C 
BRANCH  21  22
HETATM   22  C14 UNL     1      25.037  59.943  56.363  1.00  0.00     0.173 C 
HETATM   23  O2  UNL     1      25.436  59.089  57.179  1.00  0.00    -0.648 OA
HETATM   24  O3  UNL     1      23.825  60.574  56.551  1.00  0.00    -0.648 OA
ENDBRANCH  21  22
ENDBRANCH  20  21
ENDBRANCH  12  20
BRANCH   8  25
HETATM   25  N3  UNL     1      30.063  61.399  53.429  1.00  0.00    -0.071 N 
ATOM     26  H33 UNL     1      30.176  62.398  53.261  1.00  0.00     0.274 HD
ATOM     27  H32 UNL     1      30.064  61.419  54.449  1.00  0.00     0.274 HD
ATOM     28  H31 UNL     1      30.843  60.857  53.055  1.00  0.00     0.274 HD
ENDBRANCH   8  25
TORSDOF 10
ENDMDL
