MODEL 1
REMARK VINA RESULT: -6.834633128      0.000      0.000
REMARK  10 active torsions:
REMARK  status: ('A' for Active; 'I' for Inactive)
REMARK    1  A    between atoms: C2_2  and  C3_3 
REMARK    2  A    between atoms: C3_3  and  C4_4 
REMARK    3  A    between atoms: C4_4  and  C5_5 
REMARK    4  A    between atoms: C5_5  and  N1_6 
REMARK    5  A    between atoms: N1_6  and  C6_7 
REMARK    6  A    between atoms: N1_6  and  C7_11 
REMARK    7  A    between atoms: C9_13  and  C10_14 
REMARK    8  A    between atoms: C14_20  and  C18_27 
REMARK    9  A    between atoms: C15_21  and  N4_22 
REMARK   10  A    between atoms: N4_22  and  C16_25 
ROOT
HETATM    1  C7  UNL     1      27.511  58.723  51.958  1.00  0.00     0.108 A 
HETATM    2  C8  UNL     1      27.329  60.027  52.638  1.00  0.00     0.041 A 
HETATM    3  C9  UNL     1      28.039  60.675  53.753  1.00  0.00     0.088 C 
HETATM    4  C18 UNL     1      28.645  59.442  52.386  1.00  0.00     0.054 A 
HETATM    5  C19 UNL     1      28.747  59.421  53.940  1.00  0.00     0.145 C 
HETATM    6  O1  UNL     1      29.847  59.127  54.564  1.00  0.00    -0.296 OA
ENDROOT
BRANCH   1   7
HETATM    7  N1  UNL     1      26.924  58.433  50.710  1.00  0.00    -0.371 N 
BRANCH   7   8
HETATM    8  C5  UNL     1      26.770  57.054  50.305  1.00  0.00     0.124 C 
BRANCH   8   9
HETATM    9  C4  UNL     1      26.654  57.018  48.795  1.00  0.00     0.020 C 
BRANCH   9  10
HETATM   10  C3  UNL     1      25.356  56.380  48.351  1.00  0.00     0.001 C 
BRANCH  10  11
HETATM   11  C2  UNL     1      25.556  54.899  48.198  1.00  0.00    -0.004 C 
HETATM   12  C1  UNL     1      24.494  54.300  47.304  1.00  0.00     0.005 C 
ENDBRANCH  10  11
ENDBRANCH   9  10
ENDBRANCH   8   9
ENDBRANCH   7   8
BRANCH   7  13
HETATM   13  C6  UNL     1      26.449  59.473  49.871  1.00  0.00     0.171 C 
HETATM   14  N2  UNL     1      25.214  59.853  49.981  1.00  0.00    -0.395 N 
ATOM     15  H22 UNL     1      24.607  59.400  50.663  1.00  0.00     0.156 HD
ATOM     16  H21 UNL     1      24.873  60.601  49.377  1.00  0.00     0.156 HD
ENDBRANCH   7  13
ENDBRANCH   1   7
BRANCH   4  17
HETATM   17  C14 UNL     1      29.553  60.383  51.746  1.00  0.00     0.043 C 
HETATM   18  C13 UNL     1      30.627  60.990  52.650  1.00  0.00     0.017 A 
HETATM   19  C11 UNL     1      31.832  60.152  52.766  1.00  0.00     0.082 A 
HETATM   20  C12 UNL     1      31.925  61.491  52.267  1.00  0.00     0.032 A 
HETATM   21  N3  UNL     1      31.889  58.917  52.091  1.00  0.00    -0.410 N 
HETATM   22  C10 UNL     1      30.812  58.568  51.183  1.00  0.00     0.119 C 
ATOM     23  H3  UNL     1      32.672  58.280  52.237  1.00  0.00     0.154 HD
HETATM   24  C15 UNL     1      30.371  59.853  50.588  1.00  0.00     0.214 C 
BRANCH  24  25
HETATM   25  N4  UNL     1      29.843  59.939  49.298  1.00  0.00    -0.069 N 
ATOM     26  H42 UNL     1      28.878  60.266  49.324  1.00  0.00     0.277 HD
ATOM     27  H41 UNL     1      30.271  60.710  48.785  1.00  0.00     0.277 HD
BRANCH  25  28
HETATM   28  C16 UNL     1      29.942  58.730  48.560  1.00  0.00     0.228 C 
HETATM   29  C17 UNL     1      30.901  58.949  47.387  1.00  0.00     0.034 C 
ENDBRANCH  25  28
ENDBRANCH  24  25
ENDBRANCH   4  17
TORSDOF 10
ENDMDL
MODEL 2
REMARK VINA RESULT: -6.786218056      2.313      6.554
REMARK  10 active torsions:
REMARK  status: ('A' for Active; 'I' for Inactive)
REMARK    1  A    between atoms: C2_2  and  C3_3 
REMARK    2  A    between atoms: C3_3  and  C4_4 
REMARK    3  A    between atoms: C4_4  and  C5_5 
REMARK    4  A    between atoms: C5_5  and  N1_6 
REMARK    5  A    between atoms: N1_6  and  C6_7 
REMARK    6  A    between atoms: N1_6  and  C7_11 
REMARK    7  A    between atoms: C9_13  and  C10_14 
REMARK    8  A    between atoms: C14_20  and  C18_27 
REMARK    9  A    between atoms: C15_21  and  N4_22 
REMARK   10  A    between atoms: N4_22  and  C16_25 
ROOT
HETATM    1  C7  UNL     1      29.878  59.335  51.533  1.00  0.00     0.108 A 
HETATM    2  C8  UNL     1      29.743  60.232  50.362  1.00  0.00     0.041 A 
HETATM    3  C9  UNL     1      29.587  59.970  48.922  1.00  0.00     0.088 C 
HETATM    4  C18 UNL     1      29.018  58.967  50.480  1.00  0.00     0.054 A 
HETATM    5  C19 UNL     1      29.842  58.572  49.219  1.00  0.00     0.145 C 
HETATM    6  O1  UNL     1      29.614  57.483  48.549  1.00  0.00    -0.296 OA
ENDROOT
BRANCH   1   7
HETATM    7  N1  UNL     1      29.701  59.788  52.857  1.00  0.00    -0.371 N 
BRANCH   7   8
HETATM    8  C5  UNL     1      29.344  61.169  53.090  1.00  0.00     0.124 C 
BRANCH   8   9
HETATM    9  C4  UNL     1      30.320  61.743  54.095  1.00  0.00     0.020 C 
BRANCH   9  10
HETATM   10  C3  UNL     1      29.615  62.571  55.147  1.00  0.00     0.001 C 
BRANCH  10  11
HETATM   11  C2  UNL     1      28.161  62.197  55.183  1.00  0.00    -0.004 C 
HETATM   12  C1  UNL     1      27.414  63.028  56.202  1.00  0.00     0.005 C 
ENDBRANCH  10  11
ENDBRANCH   9  10
ENDBRANCH   8   9
ENDBRANCH   7   8
BRANCH   7  13
HETATM   13  C6  UNL     1      29.831  58.896  53.952  1.00  0.00     0.171 C 
HETATM   14  N2  UNL     1      30.607  57.864  53.832  1.00  0.00    -0.395 N 
ATOM     15  H22 UNL     1      31.108  57.710  52.957  1.00  0.00     0.156 HD
ATOM     16  H21 UNL     1      30.700  57.223  54.620  1.00  0.00     0.156 HD
ENDBRANCH   7  13
ENDBRANCH   1   7
BRANCH   4  17
HETATM   17  C14 UNL     1      27.592  59.124  50.229  1.00  0.00     0.043 C 
HETATM   18  C13 UNL     1      27.033  58.334  49.046  1.00  0.00     0.017 A 
HETATM   19  C11 UNL     1      26.658  56.953  49.394  1.00  0.00     0.082 A 
HETATM   20  C12 UNL     1      25.684  57.856  48.859  1.00  0.00     0.032 A 
HETATM   21  N3  UNL     1      26.852  56.489  50.710  1.00  0.00    -0.410 N 
HETATM   22  C10 UNL     1      27.287  57.431  51.725  1.00  0.00     0.119 C 
ATOM     23  H3  UNL     1      26.690  55.510  50.945  1.00  0.00     0.154 HD
HETATM   24  C15 UNL     1      26.660  58.723  51.352  1.00  0.00     0.214 C 
BRANCH  24  25
HETATM   25  N4  UNL     1      26.299  59.681  52.302  1.00  0.00    -0.069 N 
ATOM     26  H42 UNL     1      26.892  60.507  52.224  1.00  0.00     0.277 HD
ATOM     27  H41 UNL     1      25.397  60.097  52.069  1.00  0.00     0.277 HD
BRANCH  25  28
HETATM   28  C16 UNL     1      26.297  59.191  53.634  1.00  0.00     0.228 C 
HETATM   29  C17 UNL     1      25.240  59.956  54.435  1.00  0.00     0.034 C 
ENDBRANCH  25  28
ENDBRANCH  24  25
ENDBRANCH   4  17
TORSDOF 10
ENDMDL
MODEL 3
REMARK VINA RESULT: -6.431100637      2.376      6.479
REMARK  10 active torsions:
REMARK  status: ('A' for Active; 'I' for Inactive)
REMARK    1  A    between atoms: C2_2  and  C3_3 
REMARK    2  A    between atoms: C3_3  and  C4_4 
REMARK    3  A    between atoms: C4_4  and  C5_5 
REMARK    4  A    between atoms: C5_5  and  N1_6 
REMARK    5  A    between atoms: N1_6  and  C6_7 
REMARK    6  A    between atoms: N1_6  and  C7_11 
REMARK    7  A    between atoms: C9_13  and  C10_14 
REMARK    8  A    between atoms: C14_20  and  C18_27 
REMARK    9  A    between atoms: C15_21  and  N4_22 
REMARK   10  A    between atoms: N4_22  and  C16_25 
ROOT
HETATM    1  C7  UNL     1      30.666  59.240  51.321  1.00  0.00     0.108 A 
HETATM    2  C8  UNL     1      30.613  60.005  50.053  1.00  0.00     0.041 A 
HETATM    3  C9  UNL     1      30.030  59.706  48.736  1.00  0.00     0.088 C 
HETATM    4  C18 UNL     1      29.507  59.171  50.524  1.00  0.00     0.054 A 
HETATM    5  C19 UNL     1      29.789  58.360  49.224  1.00  0.00     0.145 C 
HETATM    6  O1  UNL     1      29.006  57.410  48.810  1.00  0.00    -0.296 OA
ENDROOT
BRANCH   1   7
HETATM    7  N1  UNL     1      30.998  59.839  52.553  1.00  0.00    -0.371 N 
BRANCH   7   8
HETATM    8  C5  UNL     1      31.393  61.229  52.579  1.00  0.00     0.124 C 
BRANCH   8   9
HETATM    9  C4  UNL     1      32.906  61.288  52.564  1.00  0.00     0.020 C 
BRANCH   9  10
HETATM   10  C3  UNL     1      33.418  62.188  51.460  1.00  0.00     0.001 C 
BRANCH  10  11
HETATM   11  C2  UNL     1      33.963  61.346  50.343  1.00  0.00    -0.004 C 
HETATM   12  C1  UNL     1      34.382  59.984  50.848  1.00  0.00     0.005 C 
ENDBRANCH  10  11
ENDBRANCH   9  10
ENDBRANCH   8   9
ENDBRANCH   7   8
BRANCH   7  13
HETATM   13  C6  UNL     1      30.910  59.106  53.764  1.00  0.00     0.171 C 
HETATM   14  N2  UNL     1      31.016  57.814  53.723  1.00  0.00    -0.395 N 
ATOM     15  H22 UNL     1      31.159  57.348  52.828  1.00  0.00     0.156 HD
ATOM     16  H21 UNL     1      30.952  57.287  54.594  1.00  0.00     0.156 HD
ENDBRANCH   7  13
ENDBRANCH   1   7
BRANCH   4  17
HETATM   17  C14 UNL     1      28.237  59.883  50.512  1.00  0.00     0.043 C 
HETATM   18  C13 UNL     1      27.140  59.274  49.639  1.00  0.00     0.017 A 
HETATM   19  C11 UNL     1      26.365  58.226  50.325  1.00  0.00     0.082 A 
HETATM   20  C12 UNL     1      25.711  59.389  49.805  1.00  0.00     0.032 A 
HETATM   21  N3  UNL     1      26.690  57.873  51.649  1.00  0.00    -0.410 N 
HETATM   22  C10 UNL     1      27.693  58.652  52.353  1.00  0.00     0.119 C 
ATOM     23  H3  UNL     1      26.230  57.086  52.105  1.00  0.00     0.154 HD
HETATM   24  C15 UNL     1      27.537  60.038  51.845  1.00  0.00     0.214 C 
BRANCH  24  25
HETATM   25  N4  UNL     1      27.822  61.158  52.629  1.00  0.00    -0.069 N 
ATOM     26  H42 UNL     1      28.772  61.486  52.456  1.00  0.00     0.277 HD
ATOM     27  H41 UNL     1      27.299  61.970  52.300  1.00  0.00     0.277 HD
BRANCH  25  28
HETATM   28  C16 UNL     1      27.608  60.953  54.017  1.00  0.00     0.228 C 
HETATM   29  C17 UNL     1      28.524  61.898  54.798  1.00  0.00     0.034 C 
ENDBRANCH  25  28
ENDBRANCH  24  25
ENDBRANCH   4  17
TORSDOF 10
ENDMDL
MODEL 4
REMARK VINA RESULT: -6.427188942      1.420      1.718
REMARK  10 active torsions:
REMARK  status: ('A' for Active; 'I' for Inactive)
REMARK    1  A    between atoms: C2_2  and  C3_3 
REMARK    2  A    between atoms: C3_3  and  C4_4 
REMARK    3  A    between atoms: C4_4  and  C5_5 
REMARK    4  A    between atoms: C5_5  and  N1_6 
REMARK    5  A    between atoms: N1_6  and  C6_7 
REMARK    6  A    between atoms: N1_6  and  C7_11 
REMARK    7  A    between atoms: C9_13  and  C10_14 
REMARK    8  A    between atoms: C14_20  and  C18_27 
REMARK    9  A    between atoms: C15_21  and  N4_22 
REMARK   10  A    between atoms: N4_22  and  C16_25 
ROOT
HETATM    1  C7  UNL     1      27.176  59.240  52.859  1.00  0.00     0.108 A 
HETATM    2  C8  UNL     1      26.879  60.618  53.313  1.00  0.00     0.041 A 
HETATM    3  C9  UNL     1      27.274  61.377  54.510  1.00  0.00     0.088 C 
HETATM    4  C18 UNL     1      28.178  59.979  53.519  1.00  0.00     0.054 A 
HETATM    5  C19 UNL     1      27.828  60.139  55.028  1.00  0.00     0.145 C 
HETATM    6  O1  UNL     1      28.685  59.897  55.974  1.00  0.00    -0.296 OA
ENDROOT
BRANCH   1   7
HETATM    7  N1  UNL     1      26.957  58.816  51.532  1.00  0.00    -0.371 N 
BRANCH   7   8
HETATM    8  C5  UNL     1      27.053  57.410  51.214  1.00  0.00     0.124 C 
BRANCH   8   9
HETATM    9  C4  UNL     1      27.399  57.284  49.745  1.00  0.00     0.020 C 
BRANCH   9  10
HETATM   10  C3  UNL     1      26.667  56.128  49.097  1.00  0.00     0.001 C 
BRANCH  10  11
HETATM   11  C2  UNL     1      25.382  56.625  48.501  1.00  0.00    -0.004 C 
HETATM   12  C1  UNL     1      24.708  55.541  47.690  1.00  0.00     0.005 C 
ENDBRANCH  10  11
ENDBRANCH   9  10
ENDBRANCH   8   9
ENDBRANCH   7   8
BRANCH   7  13
HETATM   13  C6  UNL     1      26.606  59.748  50.521  1.00  0.00     0.171 C 
HETATM   14  N2  UNL     1      25.357  59.882  50.199  1.00  0.00    -0.395 N 
ATOM     15  H22 UNL     1      24.651  59.319  50.673  1.00  0.00     0.156 HD
ATOM     16  H21 UNL     1      25.105  60.551  49.472  1.00  0.00     0.156 HD
ENDBRANCH   7  13
ENDBRANCH   1   7
BRANCH   4  17
HETATM   17  C14 UNL     1      29.282  60.818  53.075  1.00  0.00     0.043 C 
HETATM   18  C13 UNL     1      30.136  61.435  54.183  1.00  0.00     0.017 A 
HETATM   19  C11 UNL     1      31.211  60.545  54.654  1.00  0.00     0.082 A 
HETATM   20  C12 UNL     1      31.521  61.835  54.113  1.00  0.00     0.032 A 
HETATM   21  N3  UNL     1      31.347  59.260  54.093  1.00  0.00    -0.410 N 
HETATM   22  C10 UNL     1      30.509  58.900  52.964  1.00  0.00     0.119 C 
ATOM     23  H3  UNL     1      32.021  58.596  54.473  1.00  0.00     0.154 HD
HETATM   24  C15 UNL     1      30.323  60.157  52.198  1.00  0.00     0.214 C 
BRANCH  24  25
HETATM   25  N4  UNL     1      30.143  60.170  50.813  1.00  0.00    -0.069 N 
ATOM     26  H42 UNL     1      29.405  59.522  50.540  1.00  0.00     0.277 HD
ATOM     27  H41 UNL     1      29.719  61.048  50.514  1.00  0.00     0.277 HD
BRANCH  25  28
HETATM   28  C16 UNL     1      31.332  59.913  50.081  1.00  0.00     0.228 C 
HETATM   29  C17 UNL     1      32.458  60.775  50.657  1.00  0.00     0.034 C 
ENDBRANCH  25  28
ENDBRANCH  24  25
ENDBRANCH   4  17
TORSDOF 10
ENDMDL
MODEL 5
REMARK VINA RESULT: -6.398306698      2.356      6.829
REMARK  10 active torsions:
REMARK  status: ('A' for Active; 'I' for Inactive)
REMARK    1  A    between atoms: C2_2  and  C3_3 
REMARK    2  A    between atoms: C3_3  and  C4_4 
REMARK    3  A    between atoms: C4_4  and  C5_5 
REMARK    4  A    between atoms: C5_5  and  N1_6 
REMARK    5  A    between atoms: N1_6  and  C6_7 
REMARK    6  A    between atoms: N1_6  and  C7_11 
REMARK    7  A    between atoms: C9_13  and  C10_14 
REMARK    8  A    between atoms: C14_20  and  C18_27 
REMARK    9  A    between atoms: C15_21  and  N4_22 
REMARK   10  A    between atoms: N4_22  and  C16_25 
ROOT
HETATM    1  C7  UNL     1      30.437  59.232  51.519  1.00  0.00     0.108 A 
HETATM    2  C8  UNL     1      30.374  60.102  50.321  1.00  0.00     0.041 A 
HETATM    3  C9  UNL     1      29.857  59.884  48.961  1.00  0.00     0.088 C 
HETATM    4  C18 UNL     1      29.312  59.161  50.675  1.00  0.00     0.054 A 
HETATM    5  C19 UNL     1      29.690  58.487  49.322  1.00  0.00     0.145 C 
HETATM    6  O1  UNL     1      28.987  57.530  48.797  1.00  0.00    -0.296 OA
ENDROOT
BRANCH   1   7
HETATM    7  N1  UNL     1      30.687  59.740  52.811  1.00  0.00    -0.371 N 
BRANCH   7   8
HETATM    8  C5  UNL     1      30.602  61.165  53.039  1.00  0.00     0.124 C 
BRANCH   8   9
HETATM    9  C4  UNL     1      30.480  61.395  54.531  1.00  0.00     0.020 C 
BRANCH   9  10
HETATM   10  C3  UNL     1      29.750  62.685  54.838  1.00  0.00     0.001 C 
BRANCH  10  11
HETATM   11  C2  UNL     1      30.746  63.741  55.221  1.00  0.00    -0.004 C 
HETATM   12  C1  UNL     1      30.050  65.029  55.599  1.00  0.00     0.005 C 
ENDBRANCH  10  11
ENDBRANCH   9  10
ENDBRANCH   8   9
ENDBRANCH   7   8
BRANCH   7  13
HETATM   13  C6  UNL     1      30.979  58.867  53.890  1.00  0.00     0.171 C 
HETATM   14  N2  UNL     1      30.295  57.772  54.014  1.00  0.00    -0.395 N 
ATOM     15  H22 UNL     1      29.563  57.557  53.338  1.00  0.00     0.156 HD
ATOM     16  H21 UNL     1      30.506  57.145  54.790  1.00  0.00     0.156 HD
ENDBRANCH   7  13
ENDBRANCH   1   7
BRANCH   4  17
HETATM   17  C14 UNL     1      27.998  59.788  50.675  1.00  0.00     0.043 C 
HETATM   18  C13 UNL     1      27.060  59.371  49.542  1.00  0.00     0.017 A 
HETATM   19  C11 UNL     1      26.300  58.145  49.838  1.00  0.00     0.082 A 
HETATM   20  C12 UNL     1      25.617  59.369  49.543  1.00  0.00     0.032 A 
HETATM   21  N3  UNL     1      26.499  57.480  51.064  1.00  0.00    -0.410 N 
HETATM   22  C10 UNL     1      27.349  58.100  52.064  1.00  0.00     0.119 C 
ATOM     23  H3  UNL     1      26.056  56.580  51.245  1.00  0.00     0.154 HD
HETATM   24  C15 UNL     1      27.140  59.560  51.901  1.00  0.00     0.214 C 
BRANCH  24  25
HETATM   25  N4  UNL     1      27.243  60.454  52.969  1.00  0.00    -0.069 N 
ATOM     26  H42 UNL     1      28.131  60.955  52.936  1.00  0.00     0.277 HD
ATOM     27  H41 UNL     1      26.600  61.237  52.847  1.00  0.00     0.277 HD
BRANCH  25  28
HETATM   28  C16 UNL     1      27.058  59.848  54.240  1.00  0.00     0.228 C 
HETATM   29  C17 UNL     1      25.601  60.040  54.666  1.00  0.00     0.034 C 
ENDBRANCH  25  28
ENDBRANCH  24  25
ENDBRANCH   4  17
TORSDOF 10
ENDMDL
