MODEL 1
REMARK VINA RESULT: -6.685296235      0.000      0.000
REMARK  12 active torsions:
REMARK  status: ('A' for Active; 'I' for Inactive)
REMARK    1  A    between atoms: C2_2  and  C3_3 
REMARK    2  A    between atoms: C3_3  and  C4_4 
REMARK    3  A    between atoms: C4_4  and  N2_8 
REMARK    4  A    between atoms: C7_14  and  C8_15 
REMARK    5  A    between atoms: C8_15  and  N5_20 
REMARK    6  A    between atoms: N4_16  and  O1_18 
REMARK    7  A    between atoms: N5_20  and  C10_22 
REMARK    8  A    between atoms: C10_22  and  C11_23 
REMARK    9  A    between atoms: C11_23  and  N6_24 
REMARK   10  A    between atoms: N6_24  and  C12_27 
REMARK   11  A    between atoms: C12_27  and  C13_28 
REMARK   12  A    between atoms: C13_28  and  O2_29 
ROOT
HETATM    1  C8  UNL     1      28.286  59.288  51.491  1.00  0.00     0.150 C 
HETATM    2  N4  UNL     1      27.703  58.289  52.038  1.00  0.00    -0.253 N 
ATOM      3  H4  UNL     1      26.976  57.812  51.505  1.00  0.00     0.195 HD
ENDROOT
BRANCH   1   4
HETATM    4  C7  UNL     1      27.907  59.714  50.142  1.00  0.00     0.357 C 
HETATM    5  N2  UNL     1      27.464  58.644  49.284  1.00  0.00    -0.335 N 
HETATM    6  C5  UNL     1      28.637  57.874  48.982  1.00  0.00     0.154 C 
HETATM    7  C6  UNL     1      29.716  58.960  48.923  1.00  0.00     0.255 C 
HETATM    8  N3  UNL     1      29.078  60.183  49.377  1.00  0.00    -0.045 N 
ATOM      9  H32 UNL     1      29.694  60.810  49.895  1.00  0.00     0.280 HD
ATOM     10  H31 UNL     1      28.854  60.840  48.629  1.00  0.00     0.280 HD
BRANCH   5  11
HETATM   11  C4  UNL     1      26.130  58.449  48.856  1.00  0.00     0.078 C 
HETATM   12  N1  UNL     1      25.134  59.050  49.417  1.00  0.00    -0.389 N 
ATOM     13  H12 UNL     1      24.172  58.909  49.108  1.00  0.00     0.157 HD
ATOM     14  H11 UNL     1      25.366  59.675  50.187  1.00  0.00     0.157 HD
BRANCH  11  15
HETATM   15  C3  UNL     1      25.788  57.530  47.723  1.00  0.00     0.102 C 
BRANCH  15  16
HETATM   16  C2  UNL     1      25.174  56.305  48.300  1.00  0.00    -0.029 C 
HETATM   17  C1  UNL     1      24.804  55.325  47.491  1.00  0.00     0.007 C 
ENDBRANCH  15  16
ENDBRANCH  11  15
ENDBRANCH   5  11
ENDBRANCH   1   4
BRANCH   1  18
HETATM   18  N5  UNL     1      29.294  59.972  52.199  1.00  0.00    -0.369 N 
HETATM   19  C9  UNL     1      30.617  59.427  52.409  1.00  0.00     0.151 C 
BRANCH  18  20
HETATM   20  C10 UNL     1      29.001  61.281  52.742  1.00  0.00     0.151 C 
BRANCH  20  21
HETATM   21  C11 UNL     1      28.480  61.225  54.168  1.00  0.00     0.252 C 
BRANCH  21  22
HETATM   22  N6  UNL     1      27.067  61.376  54.239  1.00  0.00    -0.072 N 
ATOM     23  H62 UNL     1      26.809  62.330  54.494  1.00  0.00     0.277 HD
ATOM     24  H61 UNL     1      26.643  61.338  53.313  1.00  0.00     0.277 HD
BRANCH  22  25
HETATM   25  C12 UNL     1      26.472  60.428  55.119  1.00  0.00     0.258 C 
BRANCH  25  26
HETATM   26  C13 UNL     1      25.130  59.968  54.616  1.00  0.00     0.191 C 
BRANCH  26  27
HETATM   27  O2  UNL     1      25.278  59.214  53.445  1.00  0.00    -0.399 OA
ATOM     28  H2  UNL     1      25.577  58.336  53.651  1.00  0.00     0.209 HD
ENDBRANCH  26  27
ENDBRANCH  25  26
ENDBRANCH  22  25
ENDBRANCH  21  22
ENDBRANCH  20  21
ENDBRANCH  18  20
ENDBRANCH   1  18
BRANCH   2  29
HETATM   29  O1  UNL     1      27.989  57.816  53.293  1.00  0.00    -0.288 OA
ATOM     30  H1  UNL     1      27.422  57.240  53.792  1.00  0.00     0.244 HD
ENDBRANCH   2  29
TORSDOF 12
ENDMDL
MODEL 2
REMARK VINA RESULT: -6.556365400      2.530      6.458
REMARK  12 active torsions:
REMARK  status: ('A' for Active; 'I' for Inactive)
REMARK    1  A    between atoms: C2_2  and  C3_3 
REMARK    2  A    between atoms: C3_3  and  C4_4 
REMARK    3  A    between atoms: C4_4  and  N2_8 
REMARK    4  A    between atoms: C7_14  and  C8_15 
REMARK    5  A    between atoms: C8_15  and  N5_20 
REMARK    6  A    between atoms: N4_16  and  O1_18 
REMARK    7  A    between atoms: N5_20  and  C10_22 
REMARK    8  A    between atoms: C10_22  and  C11_23 
REMARK    9  A    between atoms: C11_23  and  N6_24 
REMARK   10  A    between atoms: N6_24  and  C12_27 
REMARK   11  A    between atoms: C12_27  and  C13_28 
REMARK   12  A    between atoms: C13_28  and  O2_29 
ROOT
HETATM    1  C8  UNL     1      26.643  59.030  51.246  1.00  0.00     0.150 C 
HETATM    2  N4  UNL     1      25.713  59.882  51.031  1.00  0.00    -0.253 N 
ATOM      3  H4  UNL     1      25.281  60.328  51.841  1.00  0.00     0.195 HD
ENDROOT
BRANCH   1   4
HETATM    4  C7  UNL     1      27.059  58.723  52.616  1.00  0.00     0.357 C 
HETATM    5  N2  UNL     1      26.948  59.830  53.533  1.00  0.00    -0.335 N 
HETATM    6  C5  UNL     1      27.982  60.752  53.159  1.00  0.00     0.154 C 
HETATM    7  C6  UNL     1      29.097  59.804  52.705  1.00  0.00     0.255 C 
HETATM    8  N3  UNL     1      28.511  58.474  52.696  1.00  0.00    -0.045 N 
ATOM      9  H32 UNL     1      28.873  57.863  51.963  1.00  0.00     0.280 HD
ATOM     10  H31 UNL     1      28.793  57.887  53.480  1.00  0.00     0.280 HD
BRANCH   5  11
HETATM   11  C4  UNL     1      25.994  59.927  54.573  1.00  0.00     0.078 C 
HETATM   12  N1  UNL     1      24.726  59.977  54.340  1.00  0.00    -0.389 N 
ATOM     13  H12 UNL     1      24.038  60.047  55.091  1.00  0.00     0.157 HD
ATOM     14  H11 UNL     1      24.450  59.942  53.359  1.00  0.00     0.157 HD
BRANCH  11  15
HETATM   15  C3  UNL     1      26.399  59.979  56.016  1.00  0.00     0.102 C 
BRANCH  15  16
HETATM   16  C2  UNL     1      25.198  60.345  56.812  1.00  0.00    -0.029 C 
HETATM   17  C1  UNL     1      25.004  59.771  57.988  1.00  0.00     0.007 C 
ENDBRANCH  15  16
ENDBRANCH  11  15
ENDBRANCH   5  11
ENDBRANCH   1   4
BRANCH   1  18
HETATM   18  N5  UNL     1      27.261  58.392  50.153  1.00  0.00    -0.369 N 
HETATM   19  C9  UNL     1      28.303  59.013  49.365  1.00  0.00     0.151 C 
BRANCH  18  20
HETATM   20  C10 UNL     1      26.842  57.054  49.796  1.00  0.00     0.151 C 
BRANCH  20  21
HETATM   21  C11 UNL     1      26.085  57.003  48.480  1.00  0.00     0.252 C 
BRANCH  21  22
HETATM   22  N6  UNL     1      25.599  55.699  48.179  1.00  0.00    -0.072 N 
ATOM     23  H62 UNL     1      24.582  55.659  48.247  1.00  0.00     0.277 HD
ATOM     24  H61 UNL     1      25.703  55.485  47.188  1.00  0.00     0.277 HD
BRANCH  22  25
HETATM   25  C12 UNL     1      26.211  54.702  48.990  1.00  0.00     0.258 C 
BRANCH  25  26
HETATM   26  C13 UNL     1      25.796  53.316  48.575  1.00  0.00     0.191 C 
BRANCH  26  27
HETATM   27  O2  UNL     1      26.608  52.356  49.191  1.00  0.00    -0.399 OA
ATOM     28  H2  UNL     1      26.747  51.617  48.612  1.00  0.00     0.209 HD
ENDBRANCH  26  27
ENDBRANCH  25  26
ENDBRANCH  22  25
ENDBRANCH  21  22
ENDBRANCH  20  21
ENDBRANCH  18  20
ENDBRANCH   1  18
BRANCH   2  29
HETATM   29  O1  UNL     1      25.256  60.235  49.787  1.00  0.00    -0.288 OA
ATOM     30  H1  UNL     1      25.716  60.813  49.191  1.00  0.00     0.244 HD
ENDBRANCH   2  29
TORSDOF 12
ENDMDL
MODEL 3
REMARK VINA RESULT: -6.485809929      1.753      2.362
REMARK  12 active torsions:
REMARK  status: ('A' for Active; 'I' for Inactive)
REMARK    1  A    between atoms: C2_2  and  C3_3 
REMARK    2  A    between atoms: C3_3  and  C4_4 
REMARK    3  A    between atoms: C4_4  and  N2_8 
REMARK    4  A    between atoms: C7_14  and  C8_15 
REMARK    5  A    between atoms: C8_15  and  N5_20 
REMARK    6  A    between atoms: N4_16  and  O1_18 
REMARK    7  A    between atoms: N5_20  and  C10_22 
REMARK    8  A    between atoms: C10_22  and  C11_23 
REMARK    9  A    between atoms: C11_23  and  N6_24 
REMARK   10  A    between atoms: N6_24  and  C12_27 
REMARK   11  A    between atoms: C12_27  and  C13_28 
REMARK   12  A    between atoms: C13_28  and  O2_29 
ROOT
HETATM    1  C8  UNL     1      28.371  58.603  51.068  1.00  0.00     0.150 C 
HETATM    2  N4  UNL     1      29.229  58.249  50.186  1.00  0.00    -0.253 N 
ATOM      3  H4  UNL     1      28.935  57.571  49.483  1.00  0.00     0.195 HD
ENDROOT
BRANCH   1   4
HETATM    4  C7  UNL     1      27.019  58.043  51.047  1.00  0.00     0.357 C 
HETATM    5  N2  UNL     1      26.573  57.618  49.744  1.00  0.00    -0.335 N 
HETATM    6  C5  UNL     1      26.356  58.822  48.993  1.00  0.00     0.154 C 
HETATM    7  C6  UNL     1      25.845  59.777  50.076  1.00  0.00     0.255 C 
HETATM    8  N3  UNL     1      26.004  59.074  51.337  1.00  0.00    -0.045 N 
ATOM      9  H32 UNL     1      26.234  59.678  52.126  1.00  0.00     0.280 HD
ATOM     10  H31 UNL     1      25.135  58.709  51.725  1.00  0.00     0.280 HD
BRANCH   5  11
HETATM   11  C4  UNL     1      26.397  56.271  49.348  1.00  0.00     0.078 C 
HETATM   12  N1  UNL     1      27.018  55.298  49.927  1.00  0.00    -0.389 N 
ATOM     13  H12 UNL     1      26.891  54.327  49.642  1.00  0.00     0.157 HD
ATOM     14  H11 UNL     1      27.643  55.558  50.689  1.00  0.00     0.157 HD
BRANCH  11  15
HETATM   15  C3  UNL     1      25.479  55.888  48.227  1.00  0.00     0.102 C 
BRANCH  15  16
HETATM   16  C2  UNL     1      25.432  54.404  48.163  1.00  0.00    -0.029 C 
HETATM   17  C1  UNL     1      24.711  53.820  47.220  1.00  0.00     0.007 C 
ENDBRANCH  15  16
ENDBRANCH  11  15
ENDBRANCH   5  11
ENDBRANCH   1   4
BRANCH   1  18
HETATM   18  N5  UNL     1      28.743  59.536  52.057  1.00  0.00    -0.369 N 
HETATM   19  C9  UNL     1      28.857  60.954  51.797  1.00  0.00     0.151 C 
BRANCH  18  20
HETATM   20  C10 UNL     1      29.021  59.062  53.395  1.00  0.00     0.151 C 
BRANCH  20  21
HETATM   21  C11 UNL     1      28.708  60.096  54.464  1.00  0.00     0.252 C 
BRANCH  21  22
HETATM   22  N6  UNL     1      27.496  59.815  55.156  1.00  0.00    -0.072 N 
ATOM     23  H62 UNL     1      27.220  58.840  55.038  1.00  0.00     0.277 HD
ATOM     24  H61 UNL     1      27.637  59.821  56.166  1.00  0.00     0.277 HD
BRANCH  22  25
HETATM   25  C12 UNL     1      26.447  60.699  54.776  1.00  0.00     0.258 C 
BRANCH  25  26
HETATM   26  C13 UNL     1      25.092  60.075  54.980  1.00  0.00     0.191 C 
BRANCH  26  27
HETATM   27  O2  UNL     1      24.797  59.192  53.935  1.00  0.00    -0.399 OA
ATOM     28  H2  UNL     1      23.876  58.959  53.947  1.00  0.00     0.209 HD
ENDBRANCH  26  27
ENDBRANCH  25  26
ENDBRANCH  22  25
ENDBRANCH  21  22
ENDBRANCH  20  21
ENDBRANCH  18  20
ENDBRANCH   1  18
BRANCH   2  29
HETATM   29  O1  UNL     1      30.516  58.717  50.124  1.00  0.00    -0.288 OA
ATOM     30  H1  UNL     1      31.290  58.168  50.159  1.00  0.00     0.244 HD
ENDBRANCH   2  29
TORSDOF 12
ENDMDL
MODEL 4
REMARK VINA RESULT: -6.298187795      2.717      6.664
REMARK  12 active torsions:
REMARK  status: ('A' for Active; 'I' for Inactive)
REMARK    1  A    between atoms: C2_2  and  C3_3 
REMARK    2  A    between atoms: C3_3  and  C4_4 
REMARK    3  A    between atoms: C4_4  and  N2_8 
REMARK    4  A    between atoms: C7_14  and  C8_15 
REMARK    5  A    between atoms: C8_15  and  N5_20 
REMARK    6  A    between atoms: N4_16  and  O1_18 
REMARK    7  A    between atoms: N5_20  and  C10_22 
REMARK    8  A    between atoms: C10_22  and  C11_23 
REMARK    9  A    between atoms: C11_23  and  N6_24 
REMARK   10  A    between atoms: N6_24  and  C12_27 
REMARK   11  A    between atoms: C12_27  and  C13_28 
REMARK   12  A    between atoms: C13_28  and  O2_29 
ROOT
HETATM    1  C8  UNL     1      26.791  58.443  51.003  1.00  0.00     0.150 C 
HETATM    2  N4  UNL     1      25.777  59.166  50.705  1.00  0.00    -0.253 N 
ATOM      3  H4  UNL     1      25.422  59.805  51.417  1.00  0.00     0.195 HD
ENDROOT
BRANCH   1   4
HETATM    4  C7  UNL     1      27.405  58.547  52.329  1.00  0.00     0.357 C 
HETATM    5  N2  UNL     1      27.180  59.808  52.990  1.00  0.00    -0.335 N 
HETATM    6  C5  UNL     1      27.967  60.770  52.274  1.00  0.00     0.154 C 
HETATM    7  C6  UNL     1      29.189  59.938  51.874  1.00  0.00     0.255 C 
HETATM    8  N3  UNL     1      28.877  58.567  52.240  1.00  0.00    -0.045 N 
ATOM      9  H32 UNL     1      29.269  57.866  51.611  1.00  0.00     0.280 HD
ATOM     10  H31 UNL     1      29.352  58.240  53.081  1.00  0.00     0.280 HD
BRANCH   5  11
HETATM   11  C4  UNL     1      26.345  59.994  54.117  1.00  0.00     0.078 C 
HETATM   12  N1  UNL     1      25.057  60.023  54.021  1.00  0.00    -0.389 N 
ATOM     13  H12 UNL     1      24.455  60.156  54.833  1.00  0.00     0.157 HD
ATOM     14  H11 UNL     1      24.677  59.903  53.082  1.00  0.00     0.157 HD
BRANCH  11  15
HETATM   15  C3  UNL     1      26.903  60.170  55.496  1.00  0.00     0.102 C 
BRANCH  15  16
HETATM   16  C2  UNL     1      26.775  61.606  55.859  1.00  0.00    -0.029 C 
HETATM   17  C1  UNL     1      27.769  62.434  55.580  1.00  0.00     0.007 C 
ENDBRANCH  15  16
ENDBRANCH  11  15
ENDBRANCH   5  11
ENDBRANCH   1   4
BRANCH   1  18
HETATM   18  N5  UNL     1      27.307  57.548  50.046  1.00  0.00    -0.369 N 
HETATM   19  C9  UNL     1      28.031  57.984  48.872  1.00  0.00     0.151 C 
BRANCH  18  20
HETATM   20  C10 UNL     1      27.110  56.128  50.239  1.00  0.00     0.151 C 
BRANCH  20  21
HETATM   21  C11 UNL     1      26.352  55.477  49.094  1.00  0.00     0.252 C 
BRANCH  21  22
HETATM   22  N6  UNL     1      26.392  54.055  49.152  1.00  0.00    -0.072 N 
ATOM     23  H62 UNL     1      27.353  53.712  49.143  1.00  0.00     0.277 HD
ATOM     24  H61 UNL     1      26.108  53.714  50.070  1.00  0.00     0.277 HD
BRANCH  22  25
HETATM   25  C12 UNL     1      25.621  53.456  48.117  1.00  0.00     0.258 C 
BRANCH  25  26
HETATM   26  C13 UNL     1      25.979  52.008  47.921  1.00  0.00     0.191 C 
BRANCH  26  27
HETATM   27  O2  UNL     1      26.683  51.524  49.031  1.00  0.00    -0.399 OA
ATOM     28  H2  UNL     1      26.281  50.727  49.357  1.00  0.00     0.209 HD
ENDBRANCH  26  27
ENDBRANCH  25  26
ENDBRANCH  22  25
ENDBRANCH  21  22
ENDBRANCH  20  21
ENDBRANCH  18  20
ENDBRANCH   1  18
BRANCH   2  29
HETATM   29  O1  UNL     1      25.136  59.140  49.493  1.00  0.00    -0.288 OA
ATOM     30  H1  UNL     1      24.457  59.750  49.232  1.00  0.00     0.244 HD
ENDBRANCH   2  29
TORSDOF 12
ENDMDL
MODEL 5
REMARK VINA RESULT: -6.196171668      2.054      3.000
REMARK  12 active torsions:
REMARK  status: ('A' for Active; 'I' for Inactive)
REMARK    1  A    between atoms: C2_2  and  C3_3 
REMARK    2  A    between atoms: C3_3  and  C4_4 
REMARK    3  A    between atoms: C4_4  and  N2_8 
REMARK    4  A    between atoms: C7_14  and  C8_15 
REMARK    5  A    between atoms: C8_15  and  N5_20 
REMARK    6  A    between atoms: N4_16  and  O1_18 
REMARK    7  A    between atoms: N5_20  and  C10_22 
REMARK    8  A    between atoms: C10_22  and  C11_23 
REMARK    9  A    between atoms: C11_23  and  N6_24 
REMARK   10  A    between atoms: N6_24  and  C12_27 
REMARK   11  A    between atoms: C12_27  and  C13_28 
REMARK   12  A    between atoms: C13_28  and  O2_29 
ROOT
HETATM    1  C8  UNL     1      27.670  57.972  50.276  1.00  0.00     0.150 C 
HETATM    2  N4  UNL     1      28.643  57.491  49.598  1.00  0.00    -0.253 N 
ATOM      3  H4  UNL     1      28.442  56.727  48.952  1.00  0.00     0.195 HD
ENDROOT
BRANCH   1   4
HETATM    4  C7  UNL     1      26.319  57.430  50.112  1.00  0.00     0.357 C 
HETATM    5  N2  UNL     1      26.096  56.764  48.853  1.00  0.00    -0.335 N 
HETATM    6  C5  UNL     1      26.070  57.802  47.862  1.00  0.00     0.154 C 
HETATM    7  C6  UNL     1      25.416  58.953  48.631  1.00  0.00     0.255 C 
HETATM    8  N3  UNL     1      25.315  58.506  50.010  1.00  0.00    -0.045 N 
ATOM      9  H32 UNL     1      25.426  59.249  50.700  1.00  0.00     0.280 HD
ATOM     10  H31 UNL     1      24.375  58.230  50.293  1.00  0.00     0.280 HD
BRANCH   5  11
HETATM   11  C4  UNL     1      25.935  55.368  48.693  1.00  0.00     0.078 C 
HETATM   12  N1  UNL     1      26.640  54.514  49.358  1.00  0.00    -0.389 N 
ATOM     13  H12 UNL     1      26.524  53.507  49.243  1.00  0.00     0.157 HD
ATOM     14  H11 UNL     1      27.319  54.907  50.009  1.00  0.00     0.157 HD
BRANCH  11  15
HETATM   15  C3  UNL     1      24.936  54.790  47.737  1.00  0.00     0.102 C 
BRANCH  15  16
HETATM   16  C2  UNL     1      25.350  53.394  47.434  1.00  0.00    -0.029 C 
HETATM   17  C1  UNL     1      24.888  52.806  46.343  1.00  0.00     0.007 C 
ENDBRANCH  15  16
ENDBRANCH  11  15
ENDBRANCH   5  11
ENDBRANCH   1   4
BRANCH   1  18
HETATM   18  N5  UNL     1      27.911  59.025  51.180  1.00  0.00    -0.369 N 
HETATM   19  C9  UNL     1      28.213  60.374  50.753  1.00  0.00     0.151 C 
BRANCH  18  20
HETATM   20  C10 UNL     1      27.853  58.755  52.599  1.00  0.00     0.151 C 
BRANCH  20  21
HETATM   21  C11 UNL     1      27.112  59.831  53.375  1.00  0.00     0.252 C 
BRANCH  21  22
HETATM   22  N6  UNL     1      25.699  59.670  53.319  1.00  0.00    -0.072 N 
ATOM     23  H62 UNL     1      25.299  60.184  52.534  1.00  0.00     0.277 HD
ATOM     24  H61 UNL     1      25.446  58.723  53.037  1.00  0.00     0.277 HD
BRANCH  22  25
HETATM   25  C12 UNL     1      25.072  60.029  54.545  1.00  0.00     0.258 C 
BRANCH  25  26
HETATM   26  C13 UNL     1      26.046  60.024  55.692  1.00  0.00     0.191 C 
BRANCH  26  27
HETATM   27  O2  UNL     1      25.564  59.233  56.741  1.00  0.00    -0.399 OA
ATOM     28  H2  UNL     1      26.283  58.908  57.270  1.00  0.00     0.209 HD
ENDBRANCH  26  27
ENDBRANCH  25  26
ENDBRANCH  22  25
ENDBRANCH  21  22
ENDBRANCH  20  21
ENDBRANCH  18  20
ENDBRANCH   1  18
BRANCH   2  29
HETATM   29  O1  UNL     1      29.939  57.932  49.682  1.00  0.00    -0.288 OA
ATOM     30  H1  UNL     1      30.254  58.746  49.310  1.00  0.00     0.244 HD
ENDBRANCH   2  29
TORSDOF 12
ENDMDL
