MODEL 1
REMARK VINA RESULT: -6.898136213      0.000      0.000
REMARK  10 active torsions:
REMARK  status: ('A' for Active; 'I' for Inactive)
REMARK    1  A    between atoms: C1_2  and  N1_3 
REMARK    2  A    between atoms: N1_3  and  C2_5 
REMARK    3  A    between atoms: C2_5  and  C3_6 
REMARK    4  A    between atoms: C3_6  and  C4_7 
REMARK    5  A    between atoms: C4_7  and  C5_8 
REMARK    6  A    between atoms: C6_11  and  C7_12 
REMARK    7  A    between atoms: C7_12  and  C8_13 
REMARK    8  A    between atoms: C8_13  and  O2_14 
REMARK    9  A    between atoms: C9_16  and  O3_17 
REMARK   10  A    between atoms: C10_19  and  C11_20 
ROOT
HETATM    1  C5  UNL     1      26.652  58.169  49.857  1.00  0.00     0.169 C 
HETATM    2  N2  UNL     1      26.188  59.169  50.720  1.00  0.00    -0.402 N 
ATOM      3  H2  UNL     1      25.259  59.571  50.589  1.00  0.00     0.154 HD
HETATM    4  C6  UNL     1      27.021  59.619  51.780  1.00  0.00     0.110 C 
HETATM    5  C9  UNL     1      27.995  60.673  51.425  1.00  0.00     0.163 C 
HETATM    6  C10 UNL     1      29.132  60.302  50.571  1.00  0.00     0.119 C 
HETATM    7  N3  UNL     1      28.921  59.391  49.510  1.00  0.00    -0.352 N 
ATOM      8  H3  UNL     1      29.489  59.562  48.681  1.00  0.00     0.163 HD
HETATM    9  C14 UNL     1      28.057  58.291  49.412  1.00  0.00     0.240 C 
HETATM   10  O4  UNL     1      28.498  57.224  48.871  1.00  0.00    -0.271 OA
ENDROOT
BRANCH   1  11
HETATM   11  C4  UNL     1      25.813  58.200  48.599  1.00  0.00     0.036 C 
BRANCH  11  12
HETATM   12  C3  UNL     1      24.797  57.108  48.594  1.00  0.00     0.022 C 
BRANCH  12  13
HETATM   13  C2  UNL     1      25.326  55.922  47.832  1.00  0.00     0.122 C 
BRANCH  13  14
HETATM   14  N1  UNL     1      26.008  55.023  48.742  1.00  0.00    -0.368 N 
ATOM     15  H1  UNL     1      26.615  55.431  49.452  1.00  0.00     0.161 HD
BRANCH  14  16
HETATM   16  C1  UNL     1      25.884  53.617  48.705  1.00  0.00     0.348 C 
HETATM   17  O1  UNL     1      24.827  53.028  48.299  1.00  0.00    -0.284 OA
ENDBRANCH  14  16
ENDBRANCH  13  14
ENDBRANCH  12  13
ENDBRANCH  11  12
ENDBRANCH   1  11
BRANCH   4  18
HETATM   18  C7  UNL     1      27.576  58.492  52.621  1.00  0.00     0.053 C 
BRANCH  18  19
HETATM   19  C8  UNL     1      27.857  59.049  53.994  1.00  0.00     0.166 C 
BRANCH  19  20
HETATM   20  O2  UNL     1      26.608  59.400  54.537  1.00  0.00    -0.401 OA
ATOM     21  H2  UNL     1      26.792  59.967  55.278  1.00  0.00     0.209 HD
ENDBRANCH  19  20
ENDBRANCH  18  19
ENDBRANCH   4  18
BRANCH   5  22
HETATM   22  O3  UNL     1      27.288  61.741  50.858  1.00  0.00    -0.391 OA
ATOM     23  H3  UNL     1      27.199  61.572  49.928  1.00  0.00     0.210 HD
ENDBRANCH   5  22
BRANCH   6  24
HETATM   24  C11 UNL     1      30.359  59.846  51.375  1.00  0.00     0.011 A 
HETATM   25  C12 UNL     1      31.591  59.531  50.551  1.00  0.00     0.007 A 
HETATM   26  C13 UNL     1      31.597  60.745  51.365  1.00  0.00     0.007 A 
ENDBRANCH   6  24
TORSDOF 10
ENDMDL
MODEL 2
REMARK VINA RESULT: -6.783229362      1.828      3.356
REMARK  10 active torsions:
REMARK  status: ('A' for Active; 'I' for Inactive)
REMARK    1  A    between atoms: C1_2  and  N1_3 
REMARK    2  A    between atoms: N1_3  and  C2_5 
REMARK    3  A    between atoms: C2_5  and  C3_6 
REMARK    4  A    between atoms: C3_6  and  C4_7 
REMARK    5  A    between atoms: C4_7  and  C5_8 
REMARK    6  A    between atoms: C6_11  and  C7_12 
REMARK    7  A    between atoms: C7_12  and  C8_13 
REMARK    8  A    between atoms: C8_13  and  O2_14 
REMARK    9  A    between atoms: C9_16  and  O3_17 
REMARK   10  A    between atoms: C10_19  and  C11_20 
ROOT
HETATM    1  C5  UNL     1      26.456  58.466  49.434  1.00  0.00     0.169 C 
HETATM    2  N2  UNL     1      27.464  57.713  50.046  1.00  0.00    -0.402 N 
ATOM      3  H2  UNL     1      27.477  56.697  49.950  1.00  0.00     0.154 HD
HETATM    4  C6  UNL     1      28.470  58.374  50.801  1.00  0.00     0.110 C 
HETATM    5  C9  UNL     1      28.126  58.665  52.209  1.00  0.00     0.163 C 
HETATM    6  C10 UNL     1      27.120  59.704  52.474  1.00  0.00     0.119 C 
HETATM    7  N3  UNL     1      25.998  59.800  51.619  1.00  0.00    -0.352 N 
ATOM      8  H3  UNL     1      25.135  60.090  52.078  1.00  0.00     0.163 HD
HETATM    9  C14 UNL     1      25.877  59.562  50.242  1.00  0.00     0.240 C 
HETATM   10  O4  UNL     1      25.181  60.373  49.547  1.00  0.00    -0.271 OA
ENDROOT
BRANCH   1  11
HETATM   11  C4  UNL     1      25.305  57.541  49.104  1.00  0.00     0.036 C 
BRANCH  11  12
HETATM   12  C3  UNL     1      25.592  56.727  47.887  1.00  0.00     0.022 C 
BRANCH  12  13
HETATM   13  C2  UNL     1      25.429  55.263  48.202  1.00  0.00     0.122 C 
BRANCH  13  14
HETATM   14  N1  UNL     1      24.469  54.672  47.291  1.00  0.00    -0.368 N 
ATOM     15  H1  UNL     1      23.676  55.241  46.998  1.00  0.00     0.161 HD
BRANCH  14  16
HETATM   16  C1  UNL     1      24.566  53.358  46.785  1.00  0.00     0.348 C 
HETATM   17  O1  UNL     1      25.653  52.874  46.323  1.00  0.00    -0.284 OA
ENDBRANCH  14  16
ENDBRANCH  13  14
ENDBRANCH  12  13
ENDBRANCH  11  12
ENDBRANCH   1  11
BRANCH   4  18
HETATM   18  C7  UNL     1      29.122  59.516  50.053  1.00  0.00     0.053 C 
BRANCH  18  19
HETATM   19  C8  UNL     1      30.158  58.919  49.133  1.00  0.00     0.166 C 
BRANCH  19  20
HETATM   20  O2  UNL     1      30.767  57.876  49.853  1.00  0.00    -0.401 OA
ATOM     21  H2  UNL     1      30.499  57.069  49.427  1.00  0.00     0.209 HD
ENDBRANCH  19  20
ENDBRANCH  18  19
ENDBRANCH   4  18
BRANCH   5  22
HETATM   22  O3  UNL     1      27.755  57.460  52.820  1.00  0.00    -0.391 OA
ATOM     23  H3  UNL     1      27.413  57.663  53.682  1.00  0.00     0.210 HD
ENDBRANCH   5  22
BRANCH   6  24
HETATM   24  C11 UNL     1      27.734  61.101  52.640  1.00  0.00     0.011 A 
HETATM   25  C12 UNL     1      27.756  61.634  54.059  1.00  0.00     0.007 A 
HETATM   26  C13 UNL     1      29.023  61.226  53.456  1.00  0.00     0.007 A 
ENDBRANCH   6  24
TORSDOF 10
ENDMDL
MODEL 3
REMARK VINA RESULT: -6.644474440      1.860      3.340
REMARK  10 active torsions:
REMARK  status: ('A' for Active; 'I' for Inactive)
REMARK    1  A    between atoms: C1_2  and  N1_3 
REMARK    2  A    between atoms: N1_3  and  C2_5 
REMARK    3  A    between atoms: C2_5  and  C3_6 
REMARK    4  A    between atoms: C3_6  and  C4_7 
REMARK    5  A    between atoms: C4_7  and  C5_8 
REMARK    6  A    between atoms: C6_11  and  C7_12 
REMARK    7  A    between atoms: C7_12  and  C8_13 
REMARK    8  A    between atoms: C8_13  and  O2_14 
REMARK    9  A    between atoms: C9_16  and  O3_17 
REMARK   10  A    between atoms: C10_19  and  C11_20 
ROOT
HETATM    1  C5  UNL     1      27.027  58.491  49.721  1.00  0.00     0.169 C 
HETATM    2  N2  UNL     1      28.116  57.912  50.384  1.00  0.00    -0.402 N 
ATOM      3  H2  UNL     1      28.274  56.906  50.332  1.00  0.00     0.154 HD
HETATM    4  C6  UNL     1      28.999  58.739  51.130  1.00  0.00     0.110 C 
HETATM    5  C9  UNL     1      28.581  59.032  52.518  1.00  0.00     0.163 C 
HETATM    6  C10 UNL     1      27.434  59.928  52.718  1.00  0.00     0.119 C 
HETATM    7  N3  UNL     1      26.331  59.831  51.838  1.00  0.00    -0.352 N 
ATOM      8  H3  UNL     1      25.425  60.014  52.268  1.00  0.00     0.163 HD
HETATM    9  C14 UNL     1      26.280  59.525  50.471  1.00  0.00     0.240 C 
HETATM   10  O4  UNL     1      25.495  60.202  49.729  1.00  0.00    -0.271 OA
ENDROOT
BRANCH   1  11
HETATM   11  C4  UNL     1      26.028  57.400  49.408  1.00  0.00     0.036 C 
BRANCH  11  12
HETATM   12  C3  UNL     1      26.651  56.048  49.495  1.00  0.00     0.022 C 
BRANCH  12  13
HETATM   13  C2  UNL     1      25.897  55.080  48.622  1.00  0.00     0.122 C 
BRANCH  13  14
HETATM   14  N1  UNL     1      26.283  53.722  48.950  1.00  0.00    -0.368 N 
ATOM     15  H1  UNL     1      26.880  53.579  49.764  1.00  0.00     0.161 HD
BRANCH  14  16
HETATM   16  C1  UNL     1      25.884  52.587  48.213  1.00  0.00     0.348 C 
HETATM   17  O1  UNL     1      26.650  51.584  48.022  1.00  0.00    -0.284 OA
ENDBRANCH  14  16
ENDBRANCH  13  14
ENDBRANCH  12  13
ENDBRANCH  11  12
ENDBRANCH   1  11
BRANCH   4  18
HETATM   18  C7  UNL     1      29.503  59.931  50.348  1.00  0.00     0.053 C 
BRANCH  18  19
HETATM   19  C8  UNL     1      30.852  59.561  49.782  1.00  0.00     0.166 C 
BRANCH  19  20
HETATM   20  O2  UNL     1      31.077  58.223  50.149  1.00  0.00    -0.401 OA
ATOM     21  H2  UNL     1      31.996  58.052  49.973  1.00  0.00     0.209 HD
ENDBRANCH  19  20
ENDBRANCH  18  19
ENDBRANCH   4  18
BRANCH   5  22
HETATM   22  O3  UNL     1      28.368  57.812  53.171  1.00  0.00    -0.391 OA
ATOM     23  H3  UNL     1      27.473  57.803  53.487  1.00  0.00     0.210 HD
ENDBRANCH   5  22
BRANCH   6  24
HETATM   24  C11 UNL     1      27.841  61.404  52.837  1.00  0.00     0.011 A 
HETATM   25  C12 UNL     1      27.783  61.980  54.238  1.00  0.00     0.007 A 
HETATM   26  C13 UNL     1      29.096  61.738  53.645  1.00  0.00     0.007 A 
ENDBRANCH   6  24
TORSDOF 10
ENDMDL
MODEL 4
REMARK VINA RESULT: -6.334106726      1.840      3.776
REMARK  10 active torsions:
REMARK  status: ('A' for Active; 'I' for Inactive)
REMARK    1  A    between atoms: C1_2  and  N1_3 
REMARK    2  A    between atoms: N1_3  and  C2_5 
REMARK    3  A    between atoms: C2_5  and  C3_6 
REMARK    4  A    between atoms: C3_6  and  C4_7 
REMARK    5  A    between atoms: C4_7  and  C5_8 
REMARK    6  A    between atoms: C6_11  and  C7_12 
REMARK    7  A    between atoms: C7_12  and  C8_13 
REMARK    8  A    between atoms: C8_13  and  O2_14 
REMARK    9  A    between atoms: C9_16  and  O3_17 
REMARK   10  A    between atoms: C10_19  and  C11_20 
ROOT
HETATM    1  C5  UNL     1      27.523  59.244  49.945  1.00  0.00     0.169 C 
HETATM    2  N2  UNL     1      28.568  58.680  50.687  1.00  0.00    -0.402 N 
ATOM      3  H2  UNL     1      29.070  57.866  50.332  1.00  0.00     0.154 HD
HETATM    4  C6  UNL     1      28.922  59.252  51.939  1.00  0.00     0.110 C 
HETATM    5  C9  UNL     1      28.130  58.791  53.100  1.00  0.00     0.163 C 
HETATM    6  C10 UNL     1      26.731  59.227  53.198  1.00  0.00     0.119 C 
HETATM    7  N3  UNL     1      25.955  59.301  52.018  1.00  0.00    -0.352 N 
ATOM      8  H3  UNL     1      24.969  59.070  52.140  1.00  0.00     0.163 HD
HETATM    9  C14 UNL     1      26.319  59.640  50.707  1.00  0.00     0.240 C 
HETATM   10  O4  UNL     1      25.536  60.390  50.037  1.00  0.00    -0.271 OA
ENDROOT
BRANCH   1  11
HETATM   11  C4  UNL     1      27.057  58.223  48.930  1.00  0.00     0.036 C 
BRANCH  11  12
HETATM   12  C3  UNL     1      27.622  56.873  49.217  1.00  0.00     0.022 C 
BRANCH  12  13
HETATM   13  C2  UNL     1      26.504  55.879  49.395  1.00  0.00     0.122 C 
BRANCH  13  14
HETATM   14  N1  UNL     1      25.492  56.097  48.380  1.00  0.00    -0.368 N 
ATOM     15  H1  UNL     1      25.211  57.057  48.183  1.00  0.00     0.161 HD
BRANCH  14  16
HETATM   16  C1  UNL     1      24.872  55.062  47.647  1.00  0.00     0.348 C 
HETATM   17  O1  UNL     1      24.993  53.829  47.956  1.00  0.00    -0.284 OA
ENDBRANCH  14  16
ENDBRANCH  13  14
ENDBRANCH  12  13
ENDBRANCH  11  12
ENDBRANCH   1  11
BRANCH   4  18
HETATM   18  C7  UNL     1      29.146  60.746  51.870  1.00  0.00     0.053 C 
BRANCH  18  19
HETATM   19  C8  UNL     1      30.621  60.971  51.648  1.00  0.00     0.166 C 
BRANCH  19  20
HETATM   20  O2  UNL     1      30.874  60.614  50.312  1.00  0.00    -0.401 OA
ATOM     21  H2  UNL     1      30.792  61.414  49.804  1.00  0.00     0.209 HD
ENDBRANCH  19  20
ENDBRANCH  18  19
ENDBRANCH   4  18
BRANCH   5  22
HETATM   22  O3  UNL     1      28.210  57.394  53.149  1.00  0.00    -0.391 OA
ATOM     23  H3  UNL     1      29.125  57.156  53.243  1.00  0.00     0.210 HD
ENDBRANCH   5  22
BRANCH   6  24
HETATM   24  C11 UNL     1      26.568  60.541  53.977  1.00  0.00     0.011 A 
HETATM   25  C12 UNL     1      25.551  60.504  55.101  1.00  0.00     0.007 A 
HETATM   26  C13 UNL     1      26.968  60.553  55.454  1.00  0.00     0.007 A 
ENDBRANCH   6  24
TORSDOF 10
ENDMDL
MODEL 5
REMARK VINA RESULT: -6.324704343      1.976      3.398
REMARK  10 active torsions:
REMARK  status: ('A' for Active; 'I' for Inactive)
REMARK    1  A    between atoms: C1_2  and  N1_3 
REMARK    2  A    between atoms: N1_3  and  C2_5 
REMARK    3  A    between atoms: C2_5  and  C3_6 
REMARK    4  A    between atoms: C3_6  and  C4_7 
REMARK    5  A    between atoms: C4_7  and  C5_8 
REMARK    6  A    between atoms: C6_11  and  C7_12 
REMARK    7  A    between atoms: C7_12  and  C8_13 
REMARK    8  A    between atoms: C8_13  and  O2_14 
REMARK    9  A    between atoms: C9_16  and  O3_17 
REMARK   10  A    between atoms: C10_19  and  C11_20 
ROOT
HETATM    1  C5  UNL     1      27.390  58.746  49.958  1.00  0.00     0.169 C 
HETATM    2  N2  UNL     1      28.564  58.239  50.528  1.00  0.00    -0.402 N 
ATOM      3  H2  UNL     1      28.800  57.252  50.427  1.00  0.00     0.154 HD
HETATM    4  C6  UNL     1      29.423  59.111  51.250  1.00  0.00     0.110 C 
HETATM    5  C9  UNL     1      29.075  59.321  52.672  1.00  0.00     0.163 C 
HETATM    6  C10 UNL     1      27.873  60.109  52.979  1.00  0.00     0.119 C 
HETATM    7  N3  UNL     1      26.727  59.950  52.166  1.00  0.00    -0.352 N 
ATOM      8  H3  UNL     1      25.839  60.041  52.658  1.00  0.00     0.163 HD
HETATM    9  C14 UNL     1      26.612  59.687  50.793  1.00  0.00     0.240 C 
HETATM   10  O4  UNL     1      25.727  60.320  50.129  1.00  0.00    -0.271 OA
ENDROOT
BRANCH   1  11
HETATM   11  C4  UNL     1      26.465  57.586  49.665  1.00  0.00     0.036 C 
BRANCH  11  12
HETATM   12  C3  UNL     1      26.062  57.559  48.229  1.00  0.00     0.022 C 
BRANCH  12  13
HETATM   13  C2  UNL     1      25.241  56.328  47.953  1.00  0.00     0.122 C 
BRANCH  13  14
HETATM   14  N1  UNL     1      25.871  55.174  48.562  1.00  0.00    -0.368 N 
ATOM     15  H1  UNL     1      26.651  55.336  49.199  1.00  0.00     0.161 HD
BRANCH  14  16
HETATM   16  C1  UNL     1      25.472  53.840  48.329  1.00  0.00     0.348 C 
HETATM   17  O1  UNL     1      26.165  52.836  48.706  1.00  0.00    -0.284 OA
ENDBRANCH  14  16
ENDBRANCH  13  14
ENDBRANCH  12  13
ENDBRANCH  11  12
ENDBRANCH   1  11
BRANCH   4  18
HETATM   18  C7  UNL     1      29.776  60.367  50.486  1.00  0.00     0.053 C 
BRANCH  18  19
HETATM   19  C8  UNL     1      31.119  60.838  50.986  1.00  0.00     0.166 C 
BRANCH  19  20
HETATM   20  O2  UNL     1      32.048  60.506  49.984  1.00  0.00    -0.401 OA
ATOM     21  H2  UNL     1      32.894  60.804  50.299  1.00  0.00     0.209 HD
ENDBRANCH  19  20
ENDBRANCH  18  19
ENDBRANCH   4  18
BRANCH   5  22
HETATM   22  O3  UNL     1      29.006  58.065  53.288  1.00  0.00    -0.391 OA
ATOM     23  H3  UNL     1      29.892  57.790  53.490  1.00  0.00     0.210 HD
ENDBRANCH   5  22
BRANCH   6  24
HETATM   24  C11 UNL     1      28.165  61.609  53.130  1.00  0.00     0.011 A 
HETATM   25  C12 UNL     1      27.762  62.215  54.460  1.00  0.00     0.007 A 
HETATM   26  C13 UNL     1      29.187  62.038  54.186  1.00  0.00     0.007 A 
ENDBRANCH   6  24
TORSDOF 10
ENDMDL
