MODEL 1
REMARK VINA RESULT: -6.897857473      0.000      0.000
REMARK  12 active torsions:
REMARK  status: ('A' for Active; 'I' for Inactive)
REMARK    1  A    between atoms: N1_2  and  C2_5 
REMARK    2  A    between atoms: C2_5  and  C3_6 
REMARK    3  A    between atoms: C3_6  and  C4_7 
REMARK    4  A    between atoms: C4_7  and  C5_8 
REMARK    5  A    between atoms: C5_8  and  N2_9 
REMARK    6  A    between atoms: N2_9  and  C6_11 
REMARK    7  A    between atoms: C7_14  and  N4_15 
REMARK    8  A    between atoms: N4_15  and  C8_17 
REMARK    9  A    between atoms: C8_17  and  C9_18 
REMARK   10  A    between atoms: C9_18  and  N5_19 
REMARK   11  A    between atoms: C10_25  and  N7_26 
REMARK   12  A    between atoms: N7_26  and  C11_28 
ROOT
HETATM    1  C6  UNL     1      26.259  58.177  49.154  1.00  0.00     0.707 A 
HETATM    2  N3  UNL     1      25.780  58.614  50.337  1.00  0.00    -0.022 N 
ATOM      3  H3  UNL     1      24.825  58.368  50.596  1.00  0.00     0.203 HD
HETATM    4  C7  UNL     1      26.504  59.357  51.192  1.00  0.00     0.707 A 
HETATM    5  N6  UNL     1      27.769  59.660  50.808  1.00  0.00    -0.022 N 
ATOM      6  H6  UNL     1      28.351  60.221  51.430  1.00  0.00     0.203 HD
HETATM    7  C10 UNL     1      28.280  59.250  49.646  1.00  0.00     0.707 A 
HETATM    8  N8  UNL     1      27.518  58.511  48.829  1.00  0.00    -0.022 N 
ATOM      9  H8  UNL     1      27.904  58.193  47.940  1.00  0.00     0.203 HD
ENDROOT
BRANCH   1  10
HETATM   10  N2  UNL     1      25.525  57.458  48.353  1.00  0.00    -0.225 N 
ATOM     11  H2  UNL     1      24.796  57.889  47.784  1.00  0.00     0.177 HD
BRANCH  10  12
HETATM   12  C5  UNL     1      25.765  56.048  48.290  1.00  0.00     0.138 C 
BRANCH  12  13
HETATM   13  C4  UNL     1      24.711  55.311  47.502  1.00  0.00     0.022 C 
BRANCH  13  14
HETATM   14  C3  UNL     1      24.812  53.841  47.837  1.00  0.00     0.029 C 
BRANCH  14  15
HETATM   15  C2  UNL     1      25.885  53.582  48.890  1.00  0.00     0.231 C 
BRANCH  15  16
HETATM   16  N1  UNL     1      26.391  52.244  48.672  1.00  0.00    -0.079 N 
HETATM   17  C1  UNL     1      26.233  51.853  47.297  1.00  0.00     0.266 C 
ATOM     18  H12 UNL     1      25.961  51.571  49.306  1.00  0.00     0.276 HD
ATOM     19  H11 UNL     1      27.358  52.152  48.980  1.00  0.00     0.276 HD
ENDBRANCH  15  16
ENDBRANCH  14  15
ENDBRANCH  13  14
ENDBRANCH  12  13
ENDBRANCH  10  12
ENDBRANCH   1  10
BRANCH   4  20
HETATM   20  N4  UNL     1      26.018  59.757  52.310  1.00  0.00    -0.223 N 
ATOM     21  H4  UNL     1      25.060  60.106  52.357  1.00  0.00     0.177 HD
BRANCH  20  22
HETATM   22  C8  UNL     1      26.833  59.710  53.498  1.00  0.00     0.165 C 
BRANCH  22  23
HETATM   23  C9  UNL     1      26.053  60.061  54.744  1.00  0.00     0.249 C 
BRANCH  23  24
HETATM   24  N5  UNL     1      24.644  59.997  54.398  1.00  0.00    -0.078 N 
ATOM     25  H53 UNL     1      24.382  59.119  53.949  1.00  0.00     0.274 HD
ATOM     26  H52 UNL     1      24.035  59.915  55.212  1.00  0.00     0.274 HD
ATOM     27  H51 UNL     1      24.437  60.816  53.826  1.00  0.00     0.274 HD
ENDBRANCH  23  24
ENDBRANCH  22  23
ENDBRANCH  20  22
ENDBRANCH   4  20
BRANCH   7  28
HETATM   28  N7  UNL     1      29.475  59.518  49.249  1.00  0.00    -0.220 N 
ATOM     29  H7  UNL     1      29.790  60.478  49.109  1.00  0.00     0.178 HD
BRANCH  28  30
HETATM   30  C11 UNL     1      30.350  58.387  49.011  1.00  0.00     0.099 A 
HETATM   31  C12 UNL     1      31.783  58.757  48.695  1.00  0.00     0.028 A 
HETATM   32  C13 UNL     1      30.910  58.169  47.647  1.00  0.00     0.028 A 
ENDBRANCH  28  30
ENDBRANCH   7  28
TORSDOF 12
ENDMDL
MODEL 2
REMARK VINA RESULT: -6.790142917      1.146      1.191
REMARK  12 active torsions:
REMARK  status: ('A' for Active; 'I' for Inactive)
REMARK    1  A    between atoms: N1_2  and  C2_5 
REMARK    2  A    between atoms: C2_5  and  C3_6 
REMARK    3  A    between atoms: C3_6  and  C4_7 
REMARK    4  A    between atoms: C4_7  and  C5_8 
REMARK    5  A    between atoms: C5_8  and  N2_9 
REMARK    6  A    between atoms: N2_9  and  C6_11 
REMARK    7  A    between atoms: C7_14  and  N4_15 
REMARK    8  A    between atoms: N4_15  and  C8_17 
REMARK    9  A    between atoms: C8_17  and  C9_18 
REMARK   10  A    between atoms: C9_18  and  N5_19 
REMARK   11  A    between atoms: C10_25  and  N7_26 
REMARK   12  A    between atoms: N7_26  and  C11_28 
ROOT
HETATM    1  C6  UNL     1      26.619  58.507  49.265  1.00  0.00     0.707 A 
HETATM    2  N3  UNL     1      26.027  58.757  50.451  1.00  0.00    -0.022 N 
ATOM      3  H3  UNL     1      25.101  58.365  50.625  1.00  0.00     0.203 HD
HETATM    4  C7  UNL     1      26.599  59.498  51.415  1.00  0.00     0.707 A 
HETATM    5  N6  UNL     1      27.830  59.999  51.141  1.00  0.00    -0.022 N 
ATOM      6  H6  UNL     1      28.299  60.565  51.849  1.00  0.00     0.203 HD
HETATM    7  C10 UNL     1      28.449  59.777  49.981  1.00  0.00     0.707 A 
HETATM    8  N8  UNL     1      27.836  59.031  49.053  1.00  0.00    -0.022 N 
ATOM      9  H8  UNL     1      28.305  58.858  48.164  1.00  0.00     0.203 HD
ENDROOT
BRANCH   1  10
HETATM   10  N2  UNL     1      26.030  57.782  48.356  1.00  0.00    -0.225 N 
ATOM     11  H2  UNL     1      25.661  58.210  47.506  1.00  0.00     0.177 HD
BRANCH  10  12
HETATM   12  C5  UNL     1      25.912  56.373  48.577  1.00  0.00     0.138 C 
BRANCH  12  13
HETATM   13  C4  UNL     1      24.922  55.717  47.648  1.00  0.00     0.022 C 
BRANCH  13  14
HETATM   14  C3  UNL     1      25.121  54.221  47.725  1.00  0.00     0.029 C 
BRANCH  14  15
HETATM   15  C2  UNL     1      26.019  53.838  48.897  1.00  0.00     0.231 C 
BRANCH  15  16
HETATM   16  N1  UNL     1      26.366  52.442  48.738  1.00  0.00    -0.079 N 
HETATM   17  C1  UNL     1      26.114  52.000  47.394  1.00  0.00     0.266 C 
ATOM     18  H12 UNL     1      25.889  51.855  49.422  1.00  0.00     0.276 HD
ATOM     19  H11 UNL     1      27.328  52.258  49.020  1.00  0.00     0.276 HD
ENDBRANCH  15  16
ENDBRANCH  14  15
ENDBRANCH  13  14
ENDBRANCH  12  13
ENDBRANCH  10  12
ENDBRANCH   1  10
BRANCH   4  20
HETATM   20  N4  UNL     1      26.008  59.717  52.532  1.00  0.00    -0.223 N 
ATOM     21  H4  UNL     1      24.997  59.850  52.560  1.00  0.00     0.177 HD
BRANCH  20  22
HETATM   22  C8  UNL     1      26.782  59.774  53.748  1.00  0.00     0.165 C 
BRANCH  22  23
HETATM   23  C9  UNL     1      25.930  60.089  54.956  1.00  0.00     0.249 C 
BRANCH  23  24
HETATM   24  N5  UNL     1      24.546  60.087  54.516  1.00  0.00    -0.078 N 
ATOM     25  H53 UNL     1      24.138  61.021  54.476  1.00  0.00     0.274 HD
ATOM     26  H52 UNL     1      24.441  59.855  53.528  1.00  0.00     0.274 HD
ATOM     27  H51 UNL     1      24.036  59.454  55.131  1.00  0.00     0.274 HD
ENDBRANCH  23  24
ENDBRANCH  22  23
ENDBRANCH  20  22
ENDBRANCH   4  20
BRANCH   7  28
HETATM   28  N7  UNL     1      29.615  60.237  49.687  1.00  0.00    -0.220 N 
ATOM     29  H7  UNL     1      29.863  60.497  48.732  1.00  0.00     0.178 HD
BRANCH  28  30
HETATM   30  C11 UNL     1      30.558  60.365  50.781  1.00  0.00     0.099 A 
HETATM   31  C12 UNL     1      32.003  60.134  50.395  1.00  0.00     0.028 A 
HETATM   32  C13 UNL     1      31.291  59.159  51.261  1.00  0.00     0.028 A 
ENDBRANCH  28  30
ENDBRANCH   7  28
TORSDOF 12
ENDMDL
MODEL 3
REMARK VINA RESULT: -6.753612696      0.767      4.506
REMARK  12 active torsions:
REMARK  status: ('A' for Active; 'I' for Inactive)
REMARK    1  A    between atoms: N1_2  and  C2_5 
REMARK    2  A    between atoms: C2_5  and  C3_6 
REMARK    3  A    between atoms: C3_6  and  C4_7 
REMARK    4  A    between atoms: C4_7  and  C5_8 
REMARK    5  A    between atoms: C5_8  and  N2_9 
REMARK    6  A    between atoms: N2_9  and  C6_11 
REMARK    7  A    between atoms: C7_14  and  N4_15 
REMARK    8  A    between atoms: N4_15  and  C8_17 
REMARK    9  A    between atoms: C8_17  and  C9_18 
REMARK   10  A    between atoms: C9_18  and  N5_19 
REMARK   11  A    between atoms: C10_25  and  N7_26 
REMARK   12  A    between atoms: N7_26  and  C11_28 
ROOT
HETATM    1  C6  UNL     1      26.270  58.482  49.359  1.00  0.00     0.707 A 
HETATM    2  N3  UNL     1      27.489  58.957  49.033  1.00  0.00    -0.022 N 
ATOM      3  H3  UNL     1      27.861  58.746  48.107  1.00  0.00     0.203 HD
HETATM    4  C7  UNL     1      28.237  59.696  49.870  1.00  0.00     0.707 A 
HETATM    5  N6  UNL     1      27.702  59.954  51.090  1.00  0.00    -0.022 N 
ATOM      6  H6  UNL     1      28.238  60.513  51.753  1.00  0.00     0.203 HD
HETATM    7  C10 UNL     1      26.501  59.501  51.453  1.00  0.00     0.707 A 
HETATM    8  N8  UNL     1      25.795  58.769  50.582  1.00  0.00    -0.022 N 
ATOM      9  H8  UNL     1      24.876  58.421  50.854  1.00  0.00     0.203 HD
ENDROOT
BRANCH   1  10
HETATM   10  N2  UNL     1      25.576  57.768  48.518  1.00  0.00    -0.225 N 
ATOM     11  H2  UNL     1      24.859  58.200  47.935  1.00  0.00     0.177 HD
BRANCH  10  12
HETATM   12  C5  UNL     1      25.842  56.365  48.433  1.00  0.00     0.138 C 
BRANCH  12  13
HETATM   13  C4  UNL     1      24.814  55.623  47.616  1.00  0.00     0.022 C 
BRANCH  13  14
HETATM   14  C3  UNL     1      24.985  54.144  47.869  1.00  0.00     0.029 C 
BRANCH  14  15
HETATM   15  C2  UNL     1      26.053  53.879  48.926  1.00  0.00     0.231 C 
BRANCH  15  16
HETATM   16  N1  UNL     1      26.396  52.476  48.853  1.00  0.00    -0.079 N 
HETATM   17  C1  UNL     1      26.216  51.972  47.519  1.00  0.00     0.266 C 
ATOM     18  H12 UNL     1      25.877  51.925  49.537  1.00  0.00     0.276 HD
ATOM     19  H11 UNL     1      27.340  52.300  49.198  1.00  0.00     0.276 HD
ENDBRANCH  15  16
ENDBRANCH  14  15
ENDBRANCH  13  14
ENDBRANCH  12  13
ENDBRANCH  10  12
ENDBRANCH   1  10
BRANCH   4  20
HETATM   20  N4  UNL     1      29.393  60.133  49.528  1.00  0.00    -0.223 N 
ATOM     21  H4  UNL     1      29.484  61.035  49.061  1.00  0.00     0.177 HD
BRANCH  20  22
HETATM   22  C8  UNL     1      30.565  59.340  49.808  1.00  0.00     0.165 C 
BRANCH  22  23
HETATM   23  C9  UNL     1      31.022  58.546  48.606  1.00  0.00     0.249 C 
BRANCH  23  24
HETATM   24  N5  UNL     1      31.050  59.458  47.476  1.00  0.00    -0.078 N 
ATOM     25  H53 UNL     1      30.182  59.983  47.365  1.00  0.00     0.274 HD
ATOM     26  H52 UNL     1      31.668  60.256  47.622  1.00  0.00     0.274 HD
ATOM     27  H51 UNL     1      31.293  58.909  46.652  1.00  0.00     0.274 HD
ENDBRANCH  23  24
ENDBRANCH  22  23
ENDBRANCH  20  22
ENDBRANCH   4  20
BRANCH   7  28
HETATM   28  N7  UNL     1      25.964  59.724  52.602  1.00  0.00    -0.220 N 
ATOM     29  H7  UNL     1      24.968  59.926  52.697  1.00  0.00     0.178 HD
BRANCH  28  30
HETATM   30  C11 UNL     1      26.845  59.674  53.752  1.00  0.00     0.099 A 
HETATM   31  C12 UNL     1      26.172  59.983  55.072  1.00  0.00     0.028 A 
HETATM   32  C13 UNL     1      27.157  60.931  54.490  1.00  0.00     0.028 A 
ENDBRANCH  28  30
ENDBRANCH   7  28
TORSDOF 12
ENDMDL
MODEL 4
REMARK VINA RESULT: -6.632951962      1.660      4.821
REMARK  12 active torsions:
REMARK  status: ('A' for Active; 'I' for Inactive)
REMARK    1  A    between atoms: N1_2  and  C2_5 
REMARK    2  A    between atoms: C2_5  and  C3_6 
REMARK    3  A    between atoms: C3_6  and  C4_7 
REMARK    4  A    between atoms: C4_7  and  C5_8 
REMARK    5  A    between atoms: C5_8  and  N2_9 
REMARK    6  A    between atoms: N2_9  and  C6_11 
REMARK    7  A    between atoms: C7_14  and  N4_15 
REMARK    8  A    between atoms: N4_15  and  C8_17 
REMARK    9  A    between atoms: C8_17  and  C9_18 
REMARK   10  A    between atoms: C9_18  and  N5_19 
REMARK   11  A    between atoms: C10_25  and  N7_26 
REMARK   12  A    between atoms: N7_26  and  C11_28 
ROOT
HETATM    1  C6  UNL     1      27.023  58.867  49.587  1.00  0.00     0.707 A 
HETATM    2  N3  UNL     1      28.207  58.774  48.947  1.00  0.00    -0.022 N 
ATOM      3  H3  UNL     1      28.303  58.089  48.199  1.00  0.00     0.203 HD
HETATM    4  C7  UNL     1      29.267  59.543  49.251  1.00  0.00     0.707 A 
HETATM    5  N6  UNL     1      29.094  60.442  50.253  1.00  0.00    -0.022 N 
ATOM      6  H6  UNL     1      29.875  61.045  50.512  1.00  0.00     0.203 HD
HETATM    7  C10 UNL     1      27.941  60.564  50.911  1.00  0.00     0.707 A 
HETATM    8  N8  UNL     1      26.915  59.774  50.571  1.00  0.00    -0.022 N 
ATOM      9  H8  UNL     1      26.030  59.863  51.070  1.00  0.00     0.203 HD
ENDROOT
BRANCH   1  10
HETATM   10  N2  UNL     1      26.019  58.102  49.262  1.00  0.00    -0.225 N 
ATOM     11  H2  UNL     1      25.059  58.436  49.347  1.00  0.00     0.177 HD
BRANCH  10  12
HETATM   12  C5  UNL     1      26.295  56.781  48.784  1.00  0.00     0.138 C 
BRANCH  12  13
HETATM   13  C4  UNL     1      25.194  56.236  47.908  1.00  0.00     0.022 C 
BRANCH  13  14
HETATM   14  C3  UNL     1      25.246  54.727  47.969  1.00  0.00     0.029 C 
BRANCH  14  15
HETATM   15  C2  UNL     1      26.227  54.245  49.033  1.00  0.00     0.231 C 
BRANCH  15  16
HETATM   16  N1  UNL     1      26.268  52.801  48.961  1.00  0.00    -0.079 N 
HETATM   17  C1  UNL     1      25.980  52.344  47.629  1.00  0.00     0.266 C 
ATOM     18  H12 UNL     1      25.649  52.371  49.648  1.00  0.00     0.276 HD
ATOM     19  H11 UNL     1      27.156  52.432  49.301  1.00  0.00     0.276 HD
ENDBRANCH  15  16
ENDBRANCH  14  15
ENDBRANCH  13  14
ENDBRANCH  12  13
ENDBRANCH  10  12
ENDBRANCH   1  10
BRANCH   4  20
HETATM   20  N4  UNL     1      30.380  59.429  48.623  1.00  0.00    -0.223 N 
ATOM     21  H4  UNL     1      31.167  60.032  48.861  1.00  0.00     0.177 HD
BRANCH  20  22
HETATM   22  C8  UNL     1      30.511  58.443  47.578  1.00  0.00     0.165 C 
BRANCH  22  23
HETATM   23  C9  UNL     1      31.582  58.807  46.577  1.00  0.00     0.249 C 
BRANCH  23  24
HETATM   24  N5  UNL     1      31.249  60.120  46.052  1.00  0.00    -0.078 N 
ATOM     25  H53 UNL     1      30.317  60.434  46.324  1.00  0.00     0.274 HD
ATOM     26  H52 UNL     1      31.776  60.873  46.495  1.00  0.00     0.274 HD
ATOM     27  H51 UNL     1      31.379  60.081  45.041  1.00  0.00     0.274 HD
ENDBRANCH  23  24
ENDBRANCH  22  23
ENDBRANCH  20  22
ENDBRANCH   4  20
BRANCH   7  28
HETATM   28  N7  UNL     1      27.742  61.403  51.867  1.00  0.00    -0.220 N 
ATOM     29  H7  UNL     1      27.203  62.258  51.725  1.00  0.00     0.178 HD
BRANCH  28  30
HETATM   30  C11 UNL     1      28.321  61.072  53.154  1.00  0.00     0.099 A 
HETATM   31  C12 UNL     1      27.817  61.915  54.306  1.00  0.00     0.028 A 
HETATM   32  C13 UNL     1      29.217  62.054  53.828  1.00  0.00     0.028 A 
ENDBRANCH  28  30
ENDBRANCH   7  28
TORSDOF 12
ENDMDL
MODEL 5
REMARK VINA RESULT: -6.628188461      1.845      5.080
REMARK  12 active torsions:
REMARK  status: ('A' for Active; 'I' for Inactive)
REMARK    1  A    between atoms: N1_2  and  C2_5 
REMARK    2  A    between atoms: C2_5  and  C3_6 
REMARK    3  A    between atoms: C3_6  and  C4_7 
REMARK    4  A    between atoms: C4_7  and  C5_8 
REMARK    5  A    between atoms: C5_8  and  N2_9 
REMARK    6  A    between atoms: N2_9  and  C6_11 
REMARK    7  A    between atoms: C7_14  and  N4_15 
REMARK    8  A    between atoms: N4_15  and  C8_17 
REMARK    9  A    between atoms: C8_17  and  C9_18 
REMARK   10  A    between atoms: C9_18  and  N5_19 
REMARK   11  A    between atoms: C10_25  and  N7_26 
REMARK   12  A    between atoms: N7_26  and  C11_28 
ROOT
HETATM    1  C6  UNL     1      26.758  59.185  50.946  1.00  0.00     0.707 A 
HETATM    2  N3  UNL     1      28.005  58.877  51.357  1.00  0.00    -0.022 N 
ATOM      3  H3  UNL     1      28.689  58.585  50.659  1.00  0.00     0.203 HD
HETATM    4  C7  UNL     1      28.389  58.937  52.644  1.00  0.00     0.707 A 
HETATM    5  N6  UNL     1      27.448  59.330  53.538  1.00  0.00    -0.022 N 
ATOM      6  H6  UNL     1      27.701  59.390  54.524  1.00  0.00     0.203 HD
HETATM    7  C10 UNL     1      26.203  59.641  53.173  1.00  0.00     0.707 A 
HETATM    8  N8  UNL     1      25.871  59.566  51.879  1.00  0.00    -0.022 N 
ATOM      9  H8  UNL     1      24.920  59.804  51.593  1.00  0.00     0.203 HD
ENDROOT
BRANCH   1  10
HETATM   10  N2  UNL     1      26.425  59.114  49.688  1.00  0.00    -0.225 N 
ATOM     11  H2  UNL     1      26.842  59.744  49.002  1.00  0.00     0.177 HD
BRANCH  10  12
HETATM   12  C5  UNL     1      25.461  58.134  49.292  1.00  0.00     0.138 C 
BRANCH  12  13
HETATM   13  C4  UNL     1      25.841  57.421  48.018  1.00  0.00     0.022 C 
BRANCH  13  14
HETATM   14  C3  UNL     1      25.713  55.934  48.253  1.00  0.00     0.029 C 
BRANCH  14  15
HETATM   15  C2  UNL     1      26.584  55.476  49.418  1.00  0.00     0.231 C 
BRANCH  15  16
HETATM   16  N1  UNL     1      26.614  54.030  49.394  1.00  0.00    -0.079 N 
HETATM   17  C1  UNL     1      25.713  53.514  48.401  1.00  0.00     0.266 C 
ATOM     18  H12 UNL     1      26.426  53.634  50.315  1.00  0.00     0.276 HD
ATOM     19  H11 UNL     1      27.561  53.675  49.264  1.00  0.00     0.276 HD
ENDBRANCH  15  16
ENDBRANCH  14  15
ENDBRANCH  13  14
ENDBRANCH  12  13
ENDBRANCH  10  12
ENDBRANCH   1  10
BRANCH   4  20
HETATM   20  N4  UNL     1      29.584  58.636  53.001  1.00  0.00    -0.223 N 
ATOM     21  H4  UNL     1      29.797  57.699  53.343  1.00  0.00     0.177 HD
BRANCH  20  22
HETATM   22  C8  UNL     1      30.625  59.632  52.918  1.00  0.00     0.165 C 
BRANCH  22  23
HETATM   23  C9  UNL     1      31.448  59.497  51.658  1.00  0.00     0.249 C 
BRANCH  23  24
HETATM   24  N5  UNL     1      31.124  60.631  50.811  1.00  0.00    -0.078 N 
ATOM     25  H53 UNL     1      31.109  61.517  51.318  1.00  0.00     0.274 HD
ATOM     26  H52 UNL     1      31.869  60.868  50.156  1.00  0.00     0.274 HD
ATOM     27  H51 UNL     1      30.239  60.420  50.350  1.00  0.00     0.274 HD
ENDBRANCH  23  24
ENDBRANCH  22  23
ENDBRANCH  20  22
ENDBRANCH   4  20
BRANCH   7  28
HETATM   28  N7  UNL     1      25.284  60.017  53.993  1.00  0.00    -0.220 N 
ATOM     29  H7  UNL     1      24.406  60.419  53.666  1.00  0.00     0.178 HD
BRANCH  28  30
HETATM   30  C11 UNL     1      25.562  59.840  55.405  1.00  0.00     0.099 A 
HETATM   31  C12 UNL     1      24.454  60.305  56.326  1.00  0.00     0.028 A 
HETATM   32  C13 UNL     1      25.744  61.040  56.271  1.00  0.00     0.028 A 
ENDBRANCH  28  30
ENDBRANCH   7  28
TORSDOF 12
ENDMDL
