MODEL 1
REMARK VINA RESULT: -6.334337498      0.000      0.000
REMARK  13 active torsions:
REMARK  status: ('A' for Active; 'I' for Inactive)
REMARK    1  A    between atoms: S1_2  and  C2_3 
REMARK    2  A    between atoms: C2_3  and  C3_4 
REMARK    3  A    between atoms: C3_4  and  C4_5 
REMARK    4  A    between atoms: C4_5  and  N1_6 
REMARK    5  A    between atoms: N1_6  and  C5_8 
REMARK    6  A    between atoms: C6_11  and  N3_12 
REMARK    7  A    between atoms: N3_12  and  C7_14 
REMARK    8  A    between atoms: C7_14  and  C8_15 
REMARK    9  A    between atoms: C8_15  and  O1_16 
REMARK   10  A    between atoms: C9_20  and  N5_21 
REMARK   11  A    between atoms: N5_21  and  C10_23 
REMARK   12  A    between atoms: C10_23  and  C11_24 
REMARK   13  A    between atoms: C11_24  and  O2_25 
ROOT
HETATM    1  C5  UNL     1      26.406  59.175  50.223  1.00  0.00     0.707 A 
HETATM    2  N2  UNL     1      27.578  59.392  49.600  1.00  0.00    -0.022 N 
ATOM      3  H2  UNL     1      27.685  59.055  48.644  1.00  0.00     0.203 HD
HETATM    4  C6  UNL     1      28.625  60.035  50.173  1.00  0.00     0.707 A 
HETATM    5  N4  UNL     1      28.469  60.474  51.435  1.00  0.00    -0.022 N 
ATOM      6  H4  UNL     1      29.236  60.962  51.897  1.00  0.00     0.203 HD
HETATM    7  C9  UNL     1      27.322  60.279  52.089  1.00  0.00     0.707 A 
HETATM    8  N6  UNL     1      26.302  59.635  51.485  1.00  0.00    -0.022 N 
ATOM      9  H6  UNL     1      25.431  59.492  51.996  1.00  0.00     0.203 HD
ENDROOT
BRANCH   1  10
HETATM   10  N1  UNL     1      25.434  58.558  49.641  1.00  0.00    -0.225 N 
ATOM     11  H1  UNL     1      24.524  58.596  50.100  1.00  0.00     0.177 HD
BRANCH  10  12
HETATM   12  C4  UNL     1      25.511  57.830  48.423  1.00  0.00     0.139 C 
BRANCH  12  13
HETATM   13  C3  UNL     1      25.850  56.354  48.656  1.00  0.00     0.030 C 
BRANCH  13  14
HETATM   14  C2  UNL     1      24.938  55.561  47.754  1.00  0.00     0.075 C 
BRANCH  14  15
HETATM   15  S1  UNL     1      25.133  53.790  47.949  1.00  0.00    -0.173 SA
HETATM   16  C1  UNL     1      24.773  52.954  46.382  1.00  0.00     0.089 C 
ENDBRANCH  14  15
ENDBRANCH  13  14
ENDBRANCH  12  13
ENDBRANCH  10  12
ENDBRANCH   1  10
BRANCH   4  17
HETATM   17  N3  UNL     1      29.732  60.226  49.553  1.00  0.00    -0.223 N 
ATOM     18  H3  UNL     1      29.852  61.042  48.953  1.00  0.00     0.177 HD
BRANCH  17  19
HETATM   19  C7  UNL     1      30.798  59.277  49.714  1.00  0.00     0.164 C 
BRANCH  19  20
HETATM   20  C8  UNL     1      30.948  58.381  48.504  1.00  0.00     0.184 C 
BRANCH  20  21
HETATM   21  O1  UNL     1      29.794  57.706  48.181  1.00  0.00    -0.399 OA
ATOM     22  H1  UNL     1      29.929  56.776  48.044  1.00  0.00     0.209 HD
ENDBRANCH  20  21
ENDBRANCH  19  20
ENDBRANCH  17  19
ENDBRANCH   4  17
BRANCH   7  23
HETATM   23  N5  UNL     1      27.174  60.698  53.294  1.00  0.00    -0.223 N 
ATOM     24  H5  UNL     1      27.195  61.705  53.448  1.00  0.00     0.177 HD
BRANCH  23  25
HETATM   25  C10 UNL     1      26.981  59.856  54.436  1.00  0.00     0.164 C 
BRANCH  25  26
HETATM   26  C11 UNL     1      25.566  60.094  54.949  1.00  0.00     0.184 C 
BRANCH  26  27
HETATM   27  O2  UNL     1      24.651  59.394  54.146  1.00  0.00    -0.399 OA
ATOM     28  H2  UNL     1      24.479  58.541  54.529  1.00  0.00     0.209 HD
ENDBRANCH  26  27
ENDBRANCH  25  26
ENDBRANCH  23  25
ENDBRANCH   7  23
TORSDOF 13
ENDMDL
MODEL 2
REMARK VINA RESULT: -6.253230467      1.224      4.864
REMARK  13 active torsions:
REMARK  status: ('A' for Active; 'I' for Inactive)
REMARK    1  A    between atoms: S1_2  and  C2_3 
REMARK    2  A    between atoms: C2_3  and  C3_4 
REMARK    3  A    between atoms: C3_4  and  C4_5 
REMARK    4  A    between atoms: C4_5  and  N1_6 
REMARK    5  A    between atoms: N1_6  and  C5_8 
REMARK    6  A    between atoms: C6_11  and  N3_12 
REMARK    7  A    between atoms: N3_12  and  C7_14 
REMARK    8  A    between atoms: C7_14  and  C8_15 
REMARK    9  A    between atoms: C8_15  and  O1_16 
REMARK   10  A    between atoms: C9_20  and  N5_21 
REMARK   11  A    between atoms: N5_21  and  C10_23 
REMARK   12  A    between atoms: C10_23  and  C11_24 
REMARK   13  A    between atoms: C11_24  and  O2_25 
ROOT
HETATM    1  C5  UNL     1      26.902  57.458  49.317  1.00  0.00     0.707 A 
HETATM    2  N2  UNL     1      26.302  58.009  50.388  1.00  0.00    -0.022 N 
ATOM      3  H2  UNL     1      25.454  57.568  50.744  1.00  0.00     0.203 HD
HETATM    4  C6  UNL     1      26.762  59.115  51.020  1.00  0.00     0.707 A 
HETATM    5  N4  UNL     1      27.881  59.686  50.538  1.00  0.00    -0.022 N 
ATOM      6  H4  UNL     1      28.255  60.520  50.989  1.00  0.00     0.203 HD
HETATM    7  C9  UNL     1      28.507  59.172  49.477  1.00  0.00     0.707 A 
HETATM    8  N6  UNL     1      28.018  58.068  48.874  1.00  0.00    -0.022 N 
ATOM      9  H6  UNL     1      28.506  57.686  48.064  1.00  0.00     0.203 HD
ENDROOT
BRANCH   1  10
HETATM   10  N1  UNL     1      26.430  56.404  48.744  1.00  0.00    -0.225 N 
ATOM     11  H1  UNL     1      26.989  55.554  48.812  1.00  0.00     0.177 HD
BRANCH  10  12
HETATM   12  C4  UNL     1      25.205  56.313  48.028  1.00  0.00     0.139 C 
BRANCH  12  13
HETATM   13  C3  UNL     1      24.878  54.869  47.631  1.00  0.00     0.030 C 
BRANCH  13  14
HETATM   14  C2  UNL     1      25.691  53.983  48.539  1.00  0.00     0.075 C 
BRANCH  14  15
HETATM   15  S1  UNL     1      25.901  52.326  47.892  1.00  0.00    -0.173 SA
HETATM   16  C1  UNL     1      24.736  52.042  46.533  1.00  0.00     0.089 C 
ENDBRANCH  14  15
ENDBRANCH  13  14
ENDBRANCH  12  13
ENDBRANCH  10  12
ENDBRANCH   1  10
BRANCH   4  17
HETATM   17  N3  UNL     1      26.167  59.617  52.040  1.00  0.00    -0.223 N 
ATOM     18  H3  UNL     1      25.210  59.960  51.960  1.00  0.00     0.177 HD
BRANCH  17  19
HETATM   19  C7  UNL     1      26.865  59.691  53.293  1.00  0.00     0.164 C 
BRANCH  19  20
HETATM   20  C8  UNL     1      25.921  59.912  54.456  1.00  0.00     0.184 C 
BRANCH  20  21
HETATM   21  O1  UNL     1      24.644  59.463  54.212  1.00  0.00    -0.399 OA
ATOM     22  H1  UNL     1      24.209  59.130  54.987  1.00  0.00     0.209 HD
ENDBRANCH  20  21
ENDBRANCH  19  20
ENDBRANCH  17  19
ENDBRANCH   4  17
BRANCH   7  23
HETATM   23  N5  UNL     1      29.574  59.718  49.017  1.00  0.00    -0.223 N 
ATOM     24  H5  UNL     1      29.469  60.565  48.460  1.00  0.00     0.177 HD
BRANCH  23  25
HETATM   25  C10 UNL     1      30.903  59.225  49.228  1.00  0.00     0.164 C 
BRANCH  25  26
HETATM   26  C11 UNL     1      31.436  58.752  47.880  1.00  0.00     0.184 C 
BRANCH  26  27
HETATM   27  O2  UNL     1      30.800  57.554  47.517  1.00  0.00    -0.399 OA
ATOM     28  H2  UNL     1      30.288  57.692  46.729  1.00  0.00     0.209 HD
ENDBRANCH  26  27
ENDBRANCH  25  26
ENDBRANCH  23  25
ENDBRANCH   7  23
TORSDOF 13
ENDMDL
MODEL 3
REMARK VINA RESULT: -6.252115342      0.850      4.440
REMARK  13 active torsions:
REMARK  status: ('A' for Active; 'I' for Inactive)
REMARK    1  A    between atoms: S1_2  and  C2_3 
REMARK    2  A    between atoms: C2_3  and  C3_4 
REMARK    3  A    between atoms: C3_4  and  C4_5 
REMARK    4  A    between atoms: C4_5  and  N1_6 
REMARK    5  A    between atoms: N1_6  and  C5_8 
REMARK    6  A    between atoms: C6_11  and  N3_12 
REMARK    7  A    between atoms: N3_12  and  C7_14 
REMARK    8  A    between atoms: C7_14  and  C8_15 
REMARK    9  A    between atoms: C8_15  and  O1_16 
REMARK   10  A    between atoms: C9_20  and  N5_21 
REMARK   11  A    between atoms: N5_21  and  C10_23 
REMARK   12  A    between atoms: C10_23  and  C11_24 
REMARK   13  A    between atoms: C11_24  and  O2_25 
ROOT
HETATM    1  C5  UNL     1      26.292  59.033  50.089  1.00  0.00     0.707 A 
HETATM    2  N2  UNL     1      26.305  59.543  51.334  1.00  0.00    -0.022 N 
ATOM      3  H2  UNL     1      25.484  59.401  51.921  1.00  0.00     0.203 HD
HETATM    4  C6  UNL     1      27.349  60.236  51.850  1.00  0.00     0.707 A 
HETATM    5  N4  UNL     1      28.424  60.417  51.063  1.00  0.00    -0.022 N 
ATOM      6  H4  UNL     1      29.228  60.935  51.419  1.00  0.00     0.203 HD
HETATM    7  C9  UNL     1      28.452  59.928  49.821  1.00  0.00     0.707 A 
HETATM    8  N6  UNL     1      27.394  59.242  49.342  1.00  0.00    -0.022 N 
ATOM      9  H6  UNL     1      27.428  58.874  48.392  1.00  0.00     0.203 HD
ENDROOT
BRANCH   1  10
HETATM   10  N1  UNL     1      25.277  58.379  49.636  1.00  0.00    -0.225 N 
ATOM     11  H1  UNL     1      24.393  58.500  50.131  1.00  0.00     0.177 HD
BRANCH  10  12
HETATM   12  C4  UNL     1      25.272  57.506  48.514  1.00  0.00     0.139 C 
BRANCH  12  13
HETATM   13  C3  UNL     1      25.923  56.156  48.834  1.00  0.00     0.030 C 
BRANCH  13  14
HETATM   14  C2  UNL     1      25.285  55.148  47.913  1.00  0.00     0.075 C 
BRANCH  14  15
HETATM   15  S1  UNL     1      25.640  53.454  48.380  1.00  0.00    -0.173 SA
HETATM   16  C1  UNL     1      25.594  52.387  46.916  1.00  0.00     0.089 C 
ENDBRANCH  14  15
ENDBRANCH  13  14
ENDBRANCH  12  13
ENDBRANCH  10  12
ENDBRANCH   1  10
BRANCH   4  17
HETATM   17  N3  UNL     1      27.330  60.712  53.041  1.00  0.00    -0.223 N 
ATOM     18  H3  UNL     1      27.486  61.708  53.201  1.00  0.00     0.177 HD
BRANCH  17  19
HETATM   19  C7  UNL     1      27.089  59.827  54.147  1.00  0.00     0.164 C 
BRANCH  19  20
HETATM   20  C8  UNL     1      25.735  60.064  54.778  1.00  0.00     0.184 C 
BRANCH  20  21
HETATM   21  O1  UNL     1      24.711  59.416  54.126  1.00  0.00    -0.399 OA
ATOM     22  H1  UNL     1      23.858  59.579  54.511  1.00  0.00     0.209 HD
ENDBRANCH  20  21
ENDBRANCH  19  20
ENDBRANCH  17  19
ENDBRANCH   4  17
BRANCH   7  23
HETATM   23  N5  UNL     1      29.479  60.101  49.071  1.00  0.00    -0.223 N 
ATOM     24  H5  UNL     1      29.639  61.037  48.699  1.00  0.00     0.177 HD
BRANCH  23  25
HETATM   25  C10 UNL     1      30.417  59.079  48.716  1.00  0.00     0.164 C 
BRANCH  25  26
HETATM   26  C11 UNL     1      31.515  59.075  49.774  1.00  0.00     0.184 C 
BRANCH  26  27
HETATM   27  O2  UNL     1      31.077  58.365  50.903  1.00  0.00    -0.399 OA
ATOM     28  H2  UNL     1      31.143  57.432  50.738  1.00  0.00     0.209 HD
ENDBRANCH  26  27
ENDBRANCH  25  26
ENDBRANCH  23  25
ENDBRANCH   7  23
TORSDOF 13
ENDMDL
MODEL 4
REMARK VINA RESULT: -6.234931659      1.159      1.371
REMARK  13 active torsions:
REMARK  status: ('A' for Active; 'I' for Inactive)
REMARK    1  A    between atoms: S1_2  and  C2_3 
REMARK    2  A    between atoms: C2_3  and  C3_4 
REMARK    3  A    between atoms: C3_4  and  C4_5 
REMARK    4  A    between atoms: C4_5  and  N1_6 
REMARK    5  A    between atoms: N1_6  and  C5_8 
REMARK    6  A    between atoms: C6_11  and  N3_12 
REMARK    7  A    between atoms: N3_12  and  C7_14 
REMARK    8  A    between atoms: C7_14  and  C8_15 
REMARK    9  A    between atoms: C8_15  and  O1_16 
REMARK   10  A    between atoms: C9_20  and  N5_21 
REMARK   11  A    between atoms: N5_21  and  C10_23 
REMARK   12  A    between atoms: C10_23  and  C11_24 
REMARK   13  A    between atoms: C11_24  and  O2_25 
ROOT
HETATM    1  C5  UNL     1      26.869  57.573  49.435  1.00  0.00     0.707 A 
HETATM    2  N2  UNL     1      27.958  58.189  48.941  1.00  0.00    -0.022 N 
ATOM      3  H2  UNL     1      28.393  57.802  48.104  1.00  0.00     0.203 HD
HETATM    4  C6  UNL     1      28.510  59.296  49.495  1.00  0.00     0.707 A 
HETATM    5  N4  UNL     1      27.927  59.794  50.600  1.00  0.00    -0.022 N 
ATOM      6  H4  UNL     1      28.316  60.626  51.043  1.00  0.00     0.203 HD
HETATM    7  C9  UNL     1      26.845  59.213  51.122  1.00  0.00     0.707 A 
HETATM    8  N6  UNL     1      26.323  58.112  50.542  1.00  0.00    -0.022 N 
ATOM      9  H6  UNL     1      25.497  57.677  50.951  1.00  0.00     0.203 HD
ENDROOT
BRANCH   1  10
HETATM   10  N1  UNL     1      26.376  56.520  48.876  1.00  0.00    -0.225 N 
ATOM     11  H1  UNL     1      26.919  55.661  48.952  1.00  0.00     0.177 HD
BRANCH  10  12
HETATM   12  C4  UNL     1      25.147  56.444  48.165  1.00  0.00     0.139 C 
BRANCH  12  13
HETATM   13  C3  UNL     1      24.897  55.041  47.599  1.00  0.00     0.030 C 
BRANCH  13  14
HETATM   14  C2  UNL     1      25.662  54.085  48.479  1.00  0.00     0.075 C 
BRANCH  14  15
HETATM   15  S1  UNL     1      25.689  52.414  47.834  1.00  0.00    -0.173 SA
HETATM   16  C1  UNL     1      24.598  52.290  46.392  1.00  0.00     0.089 C 
ENDBRANCH  14  15
ENDBRANCH  13  14
ENDBRANCH  12  13
ENDBRANCH  10  12
ENDBRANCH   1  10
BRANCH   4  17
HETATM   17  N3  UNL     1      29.551  59.860  49.002  1.00  0.00    -0.223 N 
ATOM     18  H3  UNL     1      29.462  60.716  48.453  1.00  0.00     0.177 HD
BRANCH  17  19
HETATM   19  C7  UNL     1      30.842  59.274  49.231  1.00  0.00     0.164 C 
BRANCH  19  20
HETATM   20  C8  UNL     1      31.416  58.655  47.975  1.00  0.00     0.184 C 
BRANCH  20  21
HETATM   21  O1  UNL     1      30.683  57.586  47.512  1.00  0.00    -0.399 OA
ATOM     22  H1  UNL     1      29.805  57.824  47.238  1.00  0.00     0.209 HD
ENDBRANCH  20  21
ENDBRANCH  19  20
ENDBRANCH  17  19
ENDBRANCH   4  17
BRANCH   7  23
HETATM   23  N5  UNL     1      26.289  59.689  52.177  1.00  0.00    -0.223 N 
ATOM     24  H5  UNL     1      25.357  60.092  52.078  1.00  0.00     0.177 HD
BRANCH  23  25
HETATM   25  C10 UNL     1      26.878  59.696  53.482  1.00  0.00     0.164 C 
BRANCH  25  26
HETATM   26  C11 UNL     1      25.783  60.059  54.479  1.00  0.00     0.184 C 
BRANCH  26  27
HETATM   27  O2  UNL     1      24.608  59.358  54.162  1.00  0.00    -0.399 OA
ATOM     28  H2  UNL     1      24.532  58.595  54.722  1.00  0.00     0.209 HD
ENDBRANCH  26  27
ENDBRANCH  25  26
ENDBRANCH  23  25
ENDBRANCH   7  23
TORSDOF 13
ENDMDL
MODEL 5
REMARK VINA RESULT: -6.218583751      1.423      4.577
REMARK  13 active torsions:
REMARK  status: ('A' for Active; 'I' for Inactive)
REMARK    1  A    between atoms: S1_2  and  C2_3 
REMARK    2  A    between atoms: C2_3  and  C3_4 
REMARK    3  A    between atoms: C3_4  and  C4_5 
REMARK    4  A    between atoms: C4_5  and  N1_6 
REMARK    5  A    between atoms: N1_6  and  C5_8 
REMARK    6  A    between atoms: C6_11  and  N3_12 
REMARK    7  A    between atoms: N3_12  and  C7_14 
REMARK    8  A    between atoms: C7_14  and  C8_15 
REMARK    9  A    between atoms: C8_15  and  O1_16 
REMARK   10  A    between atoms: C9_20  and  N5_21 
REMARK   11  A    between atoms: N5_21  and  C10_23 
REMARK   12  A    between atoms: C10_23  and  C11_24 
REMARK   13  A    between atoms: C11_24  and  O2_25 
ROOT
HETATM    1  C5  UNL     1      26.866  57.431  49.297  1.00  0.00     0.707 A 
HETATM    2  N2  UNL     1      26.270  57.977  50.373  1.00  0.00    -0.022 N 
ATOM      3  H2  UNL     1      25.426  57.532  50.733  1.00  0.00     0.203 HD
HETATM    4  C6  UNL     1      26.728  59.084  51.005  1.00  0.00     0.707 A 
HETATM    5  N4  UNL     1      27.842  59.660  50.517  1.00  0.00    -0.022 N 
ATOM      6  H4  UNL     1      28.215  60.496  50.968  1.00  0.00     0.203 HD
HETATM    7  C9  UNL     1      28.464  59.152  49.452  1.00  0.00     0.707 A 
HETATM    8  N6  UNL     1      27.977  58.047  48.850  1.00  0.00    -0.022 N 
ATOM      9  H6  UNL     1      28.462  57.668  48.036  1.00  0.00     0.203 HD
ENDROOT
BRANCH   1  10
HETATM   10  N1  UNL     1      26.396  56.375  48.725  1.00  0.00    -0.225 N 
ATOM     11  H1  UNL     1      26.915  55.508  48.861  1.00  0.00     0.177 HD
BRANCH  10  12
HETATM   12  C4  UNL     1      25.224  56.305  47.924  1.00  0.00     0.139 C 
BRANCH  12  13
HETATM   13  C3  UNL     1      24.844  54.859  47.588  1.00  0.00     0.030 C 
BRANCH  13  14
HETATM   14  C2  UNL     1      25.638  53.982  48.521  1.00  0.00     0.075 C 
BRANCH  14  15
HETATM   15  S1  UNL     1      25.939  52.346  47.854  1.00  0.00    -0.173 SA
HETATM   16  C1  UNL     1      24.712  51.966  46.576  1.00  0.00     0.089 C 
ENDBRANCH  14  15
ENDBRANCH  13  14
ENDBRANCH  12  13
ENDBRANCH  10  12
ENDBRANCH   1  10
BRANCH   4  17
HETATM   17  N3  UNL     1      26.136  59.582  52.028  1.00  0.00    -0.223 N 
ATOM     18  H3  UNL     1      25.177  59.921  51.954  1.00  0.00     0.177 HD
BRANCH  17  19
HETATM   19  C7  UNL     1      26.840  59.655  53.278  1.00  0.00     0.164 C 
BRANCH  19  20
HETATM   20  C8  UNL     1      25.910  59.942  54.437  1.00  0.00     0.184 C 
BRANCH  20  21
HETATM   21  O1  UNL     1      24.636  59.463  54.243  1.00  0.00    -0.399 OA
ATOM     22  H1  UNL     1      24.073  60.071  53.778  1.00  0.00     0.209 HD
ENDBRANCH  20  21
ENDBRANCH  19  20
ENDBRANCH  17  19
ENDBRANCH   4  17
BRANCH   7  23
HETATM   23  N5  UNL     1      29.527  59.703  48.987  1.00  0.00    -0.223 N 
ATOM     24  H5  UNL     1      29.446  60.652  48.624  1.00  0.00     0.177 HD
BRANCH  23  25
HETATM   25  C10 UNL     1      30.818  59.084  48.941  1.00  0.00     0.164 C 
BRANCH  25  26
HETATM   26  C11 UNL     1      31.513  59.371  50.267  1.00  0.00     0.184 C 
BRANCH  26  27
HETATM   27  O2  UNL     1      31.336  58.283  51.136  1.00  0.00    -0.399 OA
ATOM     28  H2  UNL     1      30.478  58.335  51.542  1.00  0.00     0.209 HD
ENDBRANCH  26  27
ENDBRANCH  25  26
ENDBRANCH  23  25
ENDBRANCH   7  23
TORSDOF 13
ENDMDL
