MODEL 1
REMARK VINA RESULT: -7.857950082      0.000      0.000
REMARK  11 active torsions:
REMARK  status: ('A' for Active; 'I' for Inactive)
REMARK    1  A    between atoms: N2_4  and  N3_6 
REMARK    2  A    between atoms: N3_6  and  C1_8 
REMARK    3  A    between atoms: C4_12  and  O2_13 
REMARK    4  A    between atoms: O2_13  and  C5_14 
REMARK    5  A    between atoms: C5_14  and  C6_15 
REMARK    6  A    between atoms: C6_15  and  C7_16 
REMARK    7  A    between atoms: C7_16  and  C8_17 
REMARK    8  A    between atoms: C8_17  and  C9_18 
REMARK    9  A    between atoms: C9_18  and  C10_19 
REMARK   10  A    between atoms: C11_22  and  O5_23 
REMARK   11  A    between atoms: C12_25  and  O6_26 
ROOT
HETATM    1  C1  UNL     1      27.777  60.225  50.657  1.00  0.00     0.134 C 
HETATM    2  C2  UNL     1      29.048  59.452  50.820  1.00  0.00     0.055 C 
HETATM    3  C3  UNL     1      29.495  58.798  49.531  1.00  0.00     0.173 C 
HETATM    4  O1  UNL     1      28.331  58.443  48.844  1.00  0.00    -0.358 OA
HETATM    5  C4  UNL     1      27.638  57.564  49.705  1.00  0.00     0.290 C 
HETATM    6  C11 UNL     1      26.377  58.176  50.204  1.00  0.00     0.204 C 
HETATM    7  C12 UNL     1      26.541  59.431  50.987  1.00  0.00     0.175 C 
ENDROOT
BRANCH   5   8
HETATM    8  O2  UNL     1      27.303  56.461  48.916  1.00  0.00    -0.359 OA
BRANCH   8   9
HETATM    9  C5  UNL     1      26.899  55.379  49.695  1.00  0.00     0.171 C 
BRANCH   9  10
HETATM   10  C6  UNL     1      26.024  54.474  48.875  1.00  0.00     0.026 C 
BRANCH  10  11
HETATM   11  C7  UNL     1      25.238  55.185  47.800  1.00  0.00     0.002 C 
BRANCH  11  12
HETATM   12  C8  UNL     1      24.435  54.215  47.010  1.00  0.00     0.010 C 
BRANCH  12  13
HETATM   13  C9  UNL     1      24.417  52.816  47.517  1.00  0.00     0.113 C 
BRANCH  13  14
HETATM   14  C10 UNL     1      25.067  51.822  46.656  1.00  0.00     0.172 C 
HETATM   15  O3  UNL     1      26.289  51.568  46.680  1.00  0.00    -0.648 OA
HETATM   16  O4  UNL     1      24.274  51.114  45.752  1.00  0.00    -0.648 OA
ENDBRANCH  13  14
ENDBRANCH  12  13
ENDBRANCH  11  12
ENDBRANCH  10  11
ENDBRANCH   9  10
ENDBRANCH   8   9
ENDBRANCH   5   8
BRANCH   6  17
HETATM   17  O5  UNL     1      25.493  58.300  49.129  1.00  0.00    -0.388 OA
ATOM     18  H5  UNL     1      24.607  58.198  49.457  1.00  0.00     0.210 HD
ENDBRANCH   6  17
BRANCH   7  19
HETATM   19  O6  UNL     1      25.439  60.259  50.710  1.00  0.00    -0.391 OA
ATOM     20  H6  UNL     1      25.521  60.531  49.804  1.00  0.00     0.210 HD
ENDBRANCH   7  19
BRANCH   1  21
HETATM   21  N3  UNL     1      27.822  61.343  51.595  1.00  0.00    -0.315 N 
ATOM     22  H3  UNL     1      28.120  62.256  51.253  1.00  0.00     0.182 HD
BRANCH  21  23
HETATM   23  N2  UNL     1      27.476  61.212  52.930  1.00  0.00    -0.253 N 
HETATM   24  N1  UNL     1      27.747  62.106  53.770  1.00  0.00    -0.331 N 
ATOM     25  H12 UNL     1      28.233  62.942  53.445  1.00  0.00     0.178 HD
ATOM     26  H11 UNL     1      27.492  62.010  54.753  1.00  0.00     0.178 HD
ATOM     27  H2  UNL     1      26.990  60.370  53.239  1.00  0.00     0.207 HD
ENDBRANCH  21  23
ENDBRANCH   1  21
TORSDOF 11
ENDMDL
MODEL 2
REMARK VINA RESULT: -7.657806656      1.708      2.351
REMARK  11 active torsions:
REMARK  status: ('A' for Active; 'I' for Inactive)
REMARK    1  A    between atoms: N2_4  and  N3_6 
REMARK    2  A    between atoms: N3_6  and  C1_8 
REMARK    3  A    between atoms: C4_12  and  O2_13 
REMARK    4  A    between atoms: O2_13  and  C5_14 
REMARK    5  A    between atoms: C5_14  and  C6_15 
REMARK    6  A    between atoms: C6_15  and  C7_16 
REMARK    7  A    between atoms: C7_16  and  C8_17 
REMARK    8  A    between atoms: C8_17  and  C9_18 
REMARK    9  A    between atoms: C9_18  and  C10_19 
REMARK   10  A    between atoms: C11_22  and  O5_23 
REMARK   11  A    between atoms: C12_25  and  O6_26 
ROOT
HETATM    1  C1  UNL     1      28.893  60.109  50.028  1.00  0.00     0.134 C 
HETATM    2  C2  UNL     1      29.362  58.703  49.820  1.00  0.00     0.055 C 
HETATM    3  C3  UNL     1      28.659  58.025  48.665  1.00  0.00     0.173 C 
HETATM    4  O1  UNL     1      27.355  58.531  48.644  1.00  0.00    -0.358 OA
HETATM    5  C4  UNL     1      26.804  58.204  49.902  1.00  0.00     0.290 C 
HETATM    6  C11 UNL     1      26.568  59.422  50.724  1.00  0.00     0.204 C 
HETATM    7  C12 UNL     1      27.778  60.230  51.033  1.00  0.00     0.175 C 
ENDROOT
BRANCH   5   8
HETATM    8  O2  UNL     1      25.566  57.621  49.623  1.00  0.00    -0.359 OA
BRANCH   8   9
HETATM    9  C5  UNL     1      25.445  57.301  48.273  1.00  0.00     0.171 C 
BRANCH   9  10
HETATM   10  C6  UNL     1      25.220  55.822  48.130  1.00  0.00     0.026 C 
BRANCH  10  11
HETATM   11  C7  UNL     1      26.145  54.974  48.969  1.00  0.00     0.002 C 
BRANCH  11  12
HETATM   12  C8  UNL     1      25.939  53.531  48.681  1.00  0.00     0.010 C 
BRANCH  12  13
HETATM   13  C9  UNL     1      25.184  53.214  47.439  1.00  0.00     0.113 C 
BRANCH  13  14
HETATM   14  C10 UNL     1      25.492  51.919  46.823  1.00  0.00     0.172 C 
HETATM   15  O3  UNL     1      24.650  51.196  46.253  1.00  0.00    -0.648 OA
HETATM   16  O4  UNL     1      26.810  51.460  46.877  1.00  0.00    -0.648 OA
ENDBRANCH  13  14
ENDBRANCH  12  13
ENDBRANCH  11  12
ENDBRANCH  10  11
ENDBRANCH   9  10
ENDBRANCH   8   9
ENDBRANCH   5   8
BRANCH   6  17
HETATM   17  O5  UNL     1      25.540  60.160  50.130  1.00  0.00    -0.388 OA
ATOM     18  H5  UNL     1      24.946  60.449  50.813  1.00  0.00     0.210 HD
ENDBRANCH   6  17
BRANCH   7  19
HETATM   19  O6  UNL     1      27.398  61.584  51.057  1.00  0.00    -0.391 OA
ATOM     20  H6  UNL     1      26.633  61.644  51.616  1.00  0.00     0.210 HD
ENDBRANCH   7  19
BRANCH   1  21
HETATM   21  N3  UNL     1      30.020  60.871  50.556  1.00  0.00    -0.315 N 
ATOM     22  H3  UNL     1      29.830  61.712  51.101  1.00  0.00     0.182 HD
BRANCH  21  23
HETATM   23  N2  UNL     1      31.338  60.498  50.348  1.00  0.00    -0.253 N 
HETATM   24  N1  UNL     1      32.294  61.235  50.699  1.00  0.00    -0.331 N 
ATOM     25  H12 UNL     1      32.077  62.126  51.146  1.00  0.00     0.178 HD
ATOM     26  H11 UNL     1      33.264  60.960  50.546  1.00  0.00     0.178 HD
ATOM     27  H2  UNL     1      31.538  59.603  49.900  1.00  0.00     0.207 HD
ENDBRANCH  21  23
ENDBRANCH   1  21
TORSDOF 11
ENDMDL
MODEL 3
REMARK VINA RESULT: -7.555818535      1.189      1.451
REMARK  11 active torsions:
REMARK  status: ('A' for Active; 'I' for Inactive)
REMARK    1  A    between atoms: N2_4  and  N3_6 
REMARK    2  A    between atoms: N3_6  and  C1_8 
REMARK    3  A    between atoms: C4_12  and  O2_13 
REMARK    4  A    between atoms: O2_13  and  C5_14 
REMARK    5  A    between atoms: C5_14  and  C6_15 
REMARK    6  A    between atoms: C6_15  and  C7_16 
REMARK    7  A    between atoms: C7_16  and  C8_17 
REMARK    8  A    between atoms: C8_17  and  C9_18 
REMARK    9  A    between atoms: C9_18  and  C10_19 
REMARK   10  A    between atoms: C11_22  and  O5_23 
REMARK   11  A    between atoms: C12_25  and  O6_26 
ROOT
HETATM    1  C1  UNL     1      28.038  60.403  51.946  1.00  0.00     0.134 C 
HETATM    2  C2  UNL     1      29.312  59.952  51.304  1.00  0.00     0.055 C 
HETATM    3  C3  UNL     1      29.282  60.096  49.798  1.00  0.00     0.173 C 
HETATM    4  O1  UNL     1      27.963  59.852  49.405  1.00  0.00    -0.358 OA
HETATM    5  C4  UNL     1      27.673  58.543  49.845  1.00  0.00     0.290 C 
HETATM    6  C11 UNL     1      26.659  58.549  50.935  1.00  0.00     0.204 C 
HETATM    7  C12 UNL     1      27.045  59.292  52.164  1.00  0.00     0.175 C 
ENDROOT
BRANCH   5   8
HETATM    8  O2  UNL     1      27.119  57.894  48.739  1.00  0.00    -0.359 OA
BRANCH   8   9
HETATM    9  C5  UNL     1      26.840  56.558  49.018  1.00  0.00     0.171 C 
BRANCH   9  10
HETATM   10  C6  UNL     1      25.638  56.125  48.228  1.00  0.00     0.026 C 
BRANCH  10  11
HETATM   11  C7  UNL     1      25.447  54.629  48.163  1.00  0.00     0.002 C 
BRANCH  11  12
HETATM   12  C8  UNL     1      24.550  54.262  47.037  1.00  0.00     0.010 C 
BRANCH  12  13
HETATM   13  C9  UNL     1      24.950  53.067  46.246  1.00  0.00     0.113 C 
BRANCH  13  14
HETATM   14  C10 UNL     1      25.466  51.936  47.024  1.00  0.00     0.172 C 
HETATM   15  O3  UNL     1      24.784  51.274  47.834  1.00  0.00    -0.648 OA
HETATM   16  O4  UNL     1      26.804  51.574  46.853  1.00  0.00    -0.648 OA
ENDBRANCH  13  14
ENDBRANCH  12  13
ENDBRANCH  11  12
ENDBRANCH  10  11
ENDBRANCH   9  10
ENDBRANCH   8   9
ENDBRANCH   5   8
BRANCH   6  17
HETATM   17  O5  UNL     1      25.437  58.960  50.394  1.00  0.00    -0.388 OA
ATOM     18  H5  UNL     1      25.594  59.715  49.840  1.00  0.00     0.210 HD
ENDBRANCH   6  17
BRANCH   7  19
HETATM   19  O6  UNL     1      25.885  59.882  52.694  1.00  0.00    -0.391 OA
ATOM     20  H6  UNL     1      25.194  59.233  52.632  1.00  0.00     0.210 HD
ENDBRANCH   7  19
BRANCH   1  21
HETATM   21  N3  UNL     1      28.377  60.929  53.265  1.00  0.00    -0.315 N 
ATOM     22  H3  UNL     1      29.084  60.446  53.817  1.00  0.00     0.182 HD
BRANCH  21  23
HETATM   23  N2  UNL     1      27.776  62.060  53.796  1.00  0.00    -0.253 N 
HETATM   24  N1  UNL     1      26.859  61.977  54.651  1.00  0.00    -0.331 N 
ATOM     25  H12 UNL     1      26.562  61.048  54.951  1.00  0.00     0.178 HD
ATOM     26  H11 UNL     1      26.418  62.809  55.042  1.00  0.00     0.178 HD
ATOM     27  H2  UNL     1      28.086  62.981  53.485  1.00  0.00     0.207 HD
ENDBRANCH  21  23
ENDBRANCH   1  21
TORSDOF 11
ENDMDL
MODEL 4
REMARK VINA RESULT: -7.462271831      1.810      2.873
REMARK  11 active torsions:
REMARK  status: ('A' for Active; 'I' for Inactive)
REMARK    1  A    between atoms: N2_4  and  N3_6 
REMARK    2  A    between atoms: N3_6  and  C1_8 
REMARK    3  A    between atoms: C4_12  and  O2_13 
REMARK    4  A    between atoms: O2_13  and  C5_14 
REMARK    5  A    between atoms: C5_14  and  C6_15 
REMARK    6  A    between atoms: C6_15  and  C7_16 
REMARK    7  A    between atoms: C7_16  and  C8_17 
REMARK    8  A    between atoms: C8_17  and  C9_18 
REMARK    9  A    between atoms: C9_18  and  C10_19 
REMARK   10  A    between atoms: C11_22  and  O5_23 
REMARK   11  A    between atoms: C12_25  and  O6_26 
ROOT
HETATM    1  C1  UNL     1      29.058  59.864  50.534  1.00  0.00     0.134 C 
HETATM    2  C2  UNL     1      27.756  60.507  50.897  1.00  0.00     0.055 C 
HETATM    3  C3  UNL     1      26.874  59.599  51.725  1.00  0.00     0.173 C 
HETATM    4  O1  UNL     1      27.119  58.297  51.279  1.00  0.00    -0.358 OA
HETATM    5  C4  UNL     1      26.785  58.299  49.907  1.00  0.00     0.290 C 
HETATM    6  C11 UNL     1      27.992  58.121  49.055  1.00  0.00     0.204 C 
HETATM    7  C12 UNL     1      29.036  59.170  49.198  1.00  0.00     0.175 C 
ENDROOT
BRANCH   5   8
HETATM    8  O2  UNL     1      25.957  57.188  49.726  1.00  0.00    -0.359 OA
BRANCH   8   9
HETATM    9  C5  UNL     1      25.167  57.320  48.586  1.00  0.00     0.171 C 
BRANCH   9  10
HETATM   10  C6  UNL     1      25.139  56.013  47.846  1.00  0.00     0.026 C 
BRANCH  10  11
HETATM   11  C7  UNL     1      25.840  54.884  48.563  1.00  0.00     0.002 C 
BRANCH  11  12
HETATM   12  C8  UNL     1      25.100  53.608  48.379  1.00  0.00     0.010 C 
BRANCH  12  13
HETATM   13  C9  UNL     1      24.779  53.236  46.974  1.00  0.00     0.113 C 
BRANCH  13  14
HETATM   14  C10 UNL     1      25.178  51.884  46.569  1.00  0.00     0.172 C 
HETATM   15  O3  UNL     1      24.413  51.060  46.028  1.00  0.00    -0.648 OA
HETATM   16  O4  UNL     1      26.497  51.488  46.803  1.00  0.00    -0.648 OA
ENDBRANCH  13  14
ENDBRANCH  12  13
ENDBRANCH  11  12
ENDBRANCH  10  11
ENDBRANCH   9  10
ENDBRANCH   8   9
ENDBRANCH   5   8
BRANCH   6  17
HETATM   17  O5  UNL     1      28.475  56.822  49.243  1.00  0.00    -0.388 OA
ATOM     18  H5  UNL     1      28.324  56.329  48.445  1.00  0.00     0.210 HD
ENDBRANCH   6  17
BRANCH   7  19
HETATM   19  O6  UNL     1      30.290  58.555  49.039  1.00  0.00    -0.391 OA
ATOM     20  H6  UNL     1      30.236  58.017  48.258  1.00  0.00     0.210 HD
ENDBRANCH   7  19
BRANCH   1  21
HETATM   21  N3  UNL     1      30.057  60.923  50.442  1.00  0.00    -0.315 N 
ATOM     22  H3  UNL     1      29.770  61.838  50.096  1.00  0.00     0.182 HD
BRANCH  21  23
HETATM   23  N2  UNL     1      31.381  60.736  50.807  1.00  0.00    -0.253 N 
HETATM   24  N1  UNL     1      32.288  60.606  49.947  1.00  0.00    -0.331 N 
ATOM     25  H12 UNL     1      32.027  60.643  48.962  1.00  0.00     0.178 HD
ATOM     26  H11 UNL     1      33.262  60.469  50.216  1.00  0.00     0.178 HD
ATOM     27  H2  UNL     1      31.625  60.702  51.797  1.00  0.00     0.207 HD
ENDBRANCH  21  23
ENDBRANCH   1  21
TORSDOF 11
ENDMDL
MODEL 5
REMARK VINA RESULT: -7.458363583      2.069      2.440
REMARK  11 active torsions:
REMARK  status: ('A' for Active; 'I' for Inactive)
REMARK    1  A    between atoms: N2_4  and  N3_6 
REMARK    2  A    between atoms: N3_6  and  C1_8 
REMARK    3  A    between atoms: C4_12  and  O2_13 
REMARK    4  A    between atoms: O2_13  and  C5_14 
REMARK    5  A    between atoms: C5_14  and  C6_15 
REMARK    6  A    between atoms: C6_15  and  C7_16 
REMARK    7  A    between atoms: C7_16  and  C8_17 
REMARK    8  A    between atoms: C8_17  and  C9_18 
REMARK    9  A    between atoms: C9_18  and  C10_19 
REMARK   10  A    between atoms: C11_22  and  O5_23 
REMARK   11  A    between atoms: C12_25  and  O6_26 
ROOT
HETATM    1  C1  UNL     1      28.984  59.612  51.748  1.00  0.00     0.134 C 
HETATM    2  C2  UNL     1      29.633  59.133  50.487  1.00  0.00     0.055 C 
HETATM    3  C3  UNL     1      29.073  59.812  49.256  1.00  0.00     0.173 C 
HETATM    4  O1  UNL     1      27.720  60.047  49.516  1.00  0.00    -0.358 OA
HETATM    5  C4  UNL     1      27.155  58.776  49.757  1.00  0.00     0.290 C 
HETATM    6  C11 UNL     1      26.732  58.631  51.177  1.00  0.00     0.204 C 
HETATM    7  C12 UNL     1      27.817  58.768  52.185  1.00  0.00     0.175 C 
ENDROOT
BRANCH   5   8
HETATM    8  O2  UNL     1      26.013  58.720  48.955  1.00  0.00    -0.359 OA
BRANCH   8   9
HETATM    9  C5  UNL     1      26.095  57.691  48.021  1.00  0.00     0.171 C 
BRANCH   9  10
HETATM   10  C6  UNL     1      25.077  56.636  48.352  1.00  0.00     0.026 C 
BRANCH  10  11
HETATM   11  C7  UNL     1      25.583  55.222  48.200  1.00  0.00     0.002 C 
BRANCH  11  12
HETATM   12  C8  UNL     1      24.619  54.401  47.421  1.00  0.00     0.010 C 
BRANCH  12  13
HETATM   13  C9  UNL     1      25.212  53.374  46.523  1.00  0.00     0.113 C 
BRANCH  13  14
HETATM   14  C10 UNL     1      25.550  52.095  47.159  1.00  0.00     0.172 C 
HETATM   15  O3  UNL     1      24.787  51.471  47.924  1.00  0.00    -0.648 OA
HETATM   16  O4  UNL     1      26.803  51.538  46.895  1.00  0.00    -0.648 OA
ENDBRANCH  13  14
ENDBRANCH  12  13
ENDBRANCH  11  12
ENDBRANCH  10  11
ENDBRANCH   9  10
ENDBRANCH   8   9
ENDBRANCH   5   8
BRANCH   6  17
HETATM   17  O5  UNL     1      25.649  59.487  51.402  1.00  0.00    -0.388 OA
ATOM     18  H5  UNL     1      25.341  59.806  50.562  1.00  0.00     0.210 HD
ENDBRANCH   6  17
BRANCH   7  19
HETATM   19  O6  UNL     1      27.273  59.385  53.325  1.00  0.00    -0.391 OA
ATOM     20  H6  UNL     1      27.022  58.689  53.920  1.00  0.00     0.210 HD
ENDBRANCH   7  19
BRANCH   1  21
HETATM   21  N3  UNL     1      29.983  59.532  52.810  1.00  0.00    -0.315 N 
ATOM     22  H3  UNL     1      30.552  60.355  53.008  1.00  0.00     0.182 HD
BRANCH  21  23
HETATM   23  N2  UNL     1      30.188  58.384  53.558  1.00  0.00    -0.253 N 
HETATM   24  N1  UNL     1      31.271  57.749  53.505  1.00  0.00    -0.331 N 
ATOM     25  H12 UNL     1      32.006  58.101  52.892  1.00  0.00     0.178 HD
ATOM     26  H11 UNL     1      31.422  56.905  54.056  1.00  0.00     0.178 HD
ATOM     27  H2  UNL     1      29.442  58.047  54.167  1.00  0.00     0.207 HD
ENDBRANCH  21  23
ENDBRANCH   1  21
TORSDOF 11
ENDMDL
