MODEL 1
REMARK VINA RESULT: -7.934836409      0.000      0.000
REMARK  10 active torsions:
REMARK  status: ('A' for Active; 'I' for Inactive)
REMARK       I    between atoms: C1_2  and  N6_23 
REMARK    1  A    between atoms: N2_3  and  C2_5 
REMARK    2  A    between atoms: C2_5  and  C3_6 
REMARK    3  A    between atoms: C3_6  and  C4_7 
REMARK    4  A    between atoms: C4_7  and  O1_8 
REMARK    5  A    between atoms: O1_8  and  C5_9 
REMARK    6  A    between atoms: C5_9  and  C6_10 
REMARK    7  A    between atoms: C6_10  and  N3_11 
REMARK    8  A    between atoms: C6_10  and  C7_15 
REMARK    9  A    between atoms: C7_15  and  C8_16 
REMARK   10  A    between atoms: N6_23  and  C11_25 
ROOT
HETATM    1  C4  UNL     1      27.709  58.042  48.793  1.00  0.00     0.169 C 
ENDROOT
BRANCH   1   2
HETATM    2  C3  UNL     1      26.607  58.720  49.540  1.00  0.00     0.046 C 
BRANCH   2   3
HETATM    3  C2  UNL     1      27.209  59.750  50.494  1.00  0.00     0.124 C 
BRANCH   3   4
HETATM    4  N2  UNL     1      26.232  59.976  51.531  1.00  0.00    -0.364 N 
HETATM    5  C1  UNL     1      26.208  59.344  52.650  1.00  0.00     0.189 C 
HETATM    6  N1  UNL     1      27.136  58.340  53.016  1.00  0.00    -0.063 NA
HETATM    7  N6  UNL     1      25.176  59.691  53.566  1.00  0.00    -0.315 N 
ATOM      8  H6  UNL     1      24.202  59.462  53.367  1.00  0.00     0.170 HD
ATOM      9  H2  UNL     1      25.515  60.683  51.366  1.00  0.00     0.162 HD
BRANCH   7  10
HETATM   10  C11 UNL     1      25.504  60.301  54.654  1.00  0.00     0.137 A 
HETATM   11  C12 UNL     1      24.810  60.165  55.835  1.00  0.00     0.154 A 
HETATM   12  N7  UNL     1      25.447  60.942  56.720  1.00  0.00    -0.292 N 
HETATM   13  N8  UNL     1      26.483  61.531  56.124  1.00  0.00    -0.021 NA
ATOM     14  H7  UNL     1      25.180  61.063  57.698  1.00  0.00     0.183 HD
HETATM   15  N9  UNL     1      26.531  61.144  54.849  1.00  0.00    -0.268 N 
ATOM     16  H9  UNL     1      27.218  61.434  54.152  1.00  0.00     0.186 HD
ENDBRANCH   7  10
ENDBRANCH   3   4
ENDBRANCH   2   3
ENDBRANCH   1   2
BRANCH   1  17
HETATM   17  O1  UNL     1      27.801  56.716  49.109  1.00  0.00    -0.389 OA
BRANCH  17  18
HETATM   18  C5  UNL     1      26.636  56.147  49.538  1.00  0.00     0.200 C 
BRANCH  18  19
HETATM   19  C6  UNL     1      25.977  55.421  48.374  1.00  0.00     0.212 C 
BRANCH  19  20
HETATM   20  N3  UNL     1      24.765  56.066  47.957  1.00  0.00    -0.073 N 
ATOM     21  H33 UNL     1      24.025  55.947  48.650  1.00  0.00     0.274 HD
ATOM     22  H32 UNL     1      24.855  57.081  47.990  1.00  0.00     0.274 HD
ATOM     23  H31 UNL     1      24.463  55.750  47.035  1.00  0.00     0.274 HD
ENDBRANCH  19  20
BRANCH  19  24
HETATM   24  C7  UNL     1      25.623  54.020  48.868  1.00  0.00     0.093 C 
BRANCH  24  25
HETATM   25  C8  UNL     1      25.251  53.156  47.704  1.00  0.00     0.027 A 
HETATM   26  C9  UNL     1      26.070  52.168  47.149  1.00  0.00     0.114 A 
HETATM   27  N4  UNL     1      25.362  51.647  46.147  1.00  0.00    -0.360 N 
HETATM   28  C10 UNL     1      24.161  52.227  46.025  1.00  0.00     0.180 A 
ATOM     29  H4  UNL     1      25.695  50.894  45.544  1.00  0.00     0.166 HD
HETATM   30  N5  UNL     1      24.110  53.161  47.000  1.00  0.00    -0.355 N 
ATOM     31  H5  UNL     1      23.319  53.780  47.174  1.00  0.00     0.166 HD
ENDBRANCH  24  25
ENDBRANCH  19  24
ENDBRANCH  18  19
ENDBRANCH  17  18
ENDBRANCH   1  17
TORSDOF 10
ENDMDL
MODEL 2
REMARK VINA RESULT: -7.905788973      1.427      1.952
REMARK  10 active torsions:
REMARK  status: ('A' for Active; 'I' for Inactive)
REMARK       I    between atoms: C1_2  and  N6_23 
REMARK    1  A    between atoms: N2_3  and  C2_5 
REMARK    2  A    between atoms: C2_5  and  C3_6 
REMARK    3  A    between atoms: C3_6  and  C4_7 
REMARK    4  A    between atoms: C4_7  and  O1_8 
REMARK    5  A    between atoms: O1_8  and  C5_9 
REMARK    6  A    between atoms: C5_9  and  C6_10 
REMARK    7  A    between atoms: C6_10  and  N3_11 
REMARK    8  A    between atoms: C6_10  and  C7_15 
REMARK    9  A    between atoms: C7_15  and  C8_16 
REMARK   10  A    between atoms: N6_23  and  C11_25 
ROOT
HETATM    1  C4  UNL     1      29.340  58.178  49.001  1.00  0.00     0.169 C 
ENDROOT
BRANCH   1   2
HETATM    2  C3  UNL     1      28.952  59.501  49.574  1.00  0.00     0.046 C 
BRANCH   2   3
HETATM    3  C2  UNL     1      29.052  59.435  51.098  1.00  0.00     0.124 C 
BRANCH   3   4
HETATM    4  N2  UNL     1      27.789  59.899  51.618  1.00  0.00    -0.364 N 
HETATM    5  C1  UNL     1      26.943  59.152  52.232  1.00  0.00     0.189 C 
HETATM    6  N1  UNL     1      27.135  57.772  52.480  1.00  0.00    -0.063 NA
HETATM    7  N6  UNL     1      25.743  59.770  52.683  1.00  0.00    -0.315 N 
ATOM      8  H6  UNL     1      25.040  60.094  52.020  1.00  0.00     0.170 HD
ATOM      9  H2  UNL     1      27.553  60.884  51.490  1.00  0.00     0.162 HD
BRANCH   7  10
HETATM   10  C11 UNL     1      25.569  59.909  53.954  1.00  0.00     0.137 A 
HETATM   11  C12 UNL     1      26.603  60.110  54.841  1.00  0.00     0.154 A 
HETATM   12  N7  UNL     1      26.031  60.206  56.047  1.00  0.00    -0.292 N 
HETATM   13  N8  UNL     1      24.710  60.071  55.921  1.00  0.00    -0.021 NA
ATOM     14  H7  UNL     1      26.527  60.358  56.925  1.00  0.00     0.183 HD
HETATM   15  N9  UNL     1      24.412  59.888  54.634  1.00  0.00    -0.268 N 
ATOM     16  H9  UNL     1      23.479  59.757  54.241  1.00  0.00     0.186 HD
ENDBRANCH   7  10
ENDBRANCH   3   4
ENDBRANCH   2   3
ENDBRANCH   1   2
BRANCH   1  17
HETATM   17  O1  UNL     1      28.270  57.334  48.890  1.00  0.00    -0.389 OA
BRANCH  17  18
HETATM   18  C5  UNL     1      27.174  57.876  48.281  1.00  0.00     0.200 C 
BRANCH  18  19
HETATM   19  C6  UNL     1      25.952  57.032  48.610  1.00  0.00     0.212 C 
BRANCH  19  20
HETATM   20  N3  UNL     1      25.002  57.752  49.409  1.00  0.00    -0.073 N 
ATOM     21  H33 UNL     1      25.462  58.454  49.989  1.00  0.00     0.274 HD
ATOM     22  H32 UNL     1      24.429  58.370  48.834  1.00  0.00     0.274 HD
ATOM     23  H31 UNL     1      24.424  57.127  49.971  1.00  0.00     0.274 HD
ENDBRANCH  19  20
BRANCH  19  24
HETATM   24  C7  UNL     1      26.444  55.837  49.425  1.00  0.00     0.093 C 
BRANCH  24  25
HETATM   25  C8  UNL     1      26.030  54.566  48.753  1.00  0.00     0.027 A 
HETATM   26  C9  UNL     1      25.150  54.484  47.669  1.00  0.00     0.114 A 
HETATM   27  N4  UNL     1      25.060  53.184  47.387  1.00  0.00    -0.360 N 
HETATM   28  C10 UNL     1      25.813  52.439  48.207  1.00  0.00     0.180 A 
ATOM     29  H4  UNL     1      24.485  52.802  46.636  1.00  0.00     0.166 HD
HETATM   30  N5  UNL     1      26.408  53.313  49.047  1.00  0.00    -0.355 N 
ATOM     31  H5  UNL     1      27.050  53.057  49.797  1.00  0.00     0.166 HD
ENDBRANCH  24  25
ENDBRANCH  19  24
ENDBRANCH  18  19
ENDBRANCH  17  18
ENDBRANCH   1  17
TORSDOF 10
ENDMDL
MODEL 3
REMARK VINA RESULT: -7.760247189      2.405      3.576
REMARK  10 active torsions:
REMARK  status: ('A' for Active; 'I' for Inactive)
REMARK       I    between atoms: C1_2  and  N6_23 
REMARK    1  A    between atoms: N2_3  and  C2_5 
REMARK    2  A    between atoms: C2_5  and  C3_6 
REMARK    3  A    between atoms: C3_6  and  C4_7 
REMARK    4  A    between atoms: C4_7  and  O1_8 
REMARK    5  A    between atoms: O1_8  and  C5_9 
REMARK    6  A    between atoms: C5_9  and  C6_10 
REMARK    7  A    between atoms: C6_10  and  N3_11 
REMARK    8  A    between atoms: C6_10  and  C7_15 
REMARK    9  A    between atoms: C7_15  and  C8_16 
REMARK   10  A    between atoms: N6_23  and  C11_25 
ROOT
HETATM    1  C4  UNL     1      29.770  58.293  48.020  1.00  0.00     0.169 C 
ENDROOT
BRANCH   1   2
HETATM    2  C3  UNL     1      31.135  57.949  48.519  1.00  0.00     0.046 C 
BRANCH   2   3
HETATM    3  C2  UNL     1      31.561  58.979  49.564  1.00  0.00     0.124 C 
BRANCH   3   4
HETATM    4  N2  UNL     1      30.899  58.621  50.795  1.00  0.00    -0.364 N 
HETATM    5  C1  UNL     1      30.416  59.472  51.628  1.00  0.00     0.189 C 
HETATM    6  N1  UNL     1      30.467  60.875  51.451  1.00  0.00    -0.063 NA
HETATM    7  N6  UNL     1      29.792  58.950  52.796  1.00  0.00    -0.315 N 
ATOM      8  H6  UNL     1      30.342  58.489  53.521  1.00  0.00     0.170 HD
ATOM      9  H2  UNL     1      30.810  57.629  51.018  1.00  0.00     0.162 HD
BRANCH   7  10
HETATM   10  C11 UNL     1      28.514  59.076  52.914  1.00  0.00     0.137 A 
HETATM   11  C12 UNL     1      27.915  60.146  53.540  1.00  0.00     0.154 A 
HETATM   12  N7  UNL     1      26.598  59.920  53.460  1.00  0.00    -0.292 N 
HETATM   13  N8  UNL     1      26.385  58.771  52.819  1.00  0.00    -0.021 NA
ATOM     14  H7  UNL     1      25.871  60.532  53.832  1.00  0.00     0.183 HD
HETATM   15  N9  UNL     1      27.559  58.240  52.476  1.00  0.00    -0.268 N 
ATOM     16  H9  UNL     1      27.705  57.363  51.975  1.00  0.00     0.186 HD
ENDBRANCH   7  10
ENDBRANCH   3   4
ENDBRANCH   2   3
ENDBRANCH   1   2
BRANCH   1  17
HETATM   17  O1  UNL     1      28.790  57.679  48.747  1.00  0.00    -0.389 OA
BRANCH  17  18
HETATM   18  C5  UNL     1      27.703  58.461  49.020  1.00  0.00     0.200 C 
BRANCH  18  19
HETATM   19  C6  UNL     1      26.452  57.596  49.015  1.00  0.00     0.212 C 
BRANCH  19  20
HETATM   20  N3  UNL     1      25.371  58.213  49.730  1.00  0.00    -0.073 N 
ATOM     21  H33 UNL     1      25.370  57.935  50.712  1.00  0.00     0.274 HD
ATOM     22  H32 UNL     1      25.527  59.214  49.846  1.00  0.00     0.274 HD
ATOM     23  H31 UNL     1      24.469  58.027  49.291  1.00  0.00     0.274 HD
ENDBRANCH  19  20
BRANCH  19  24
HETATM   24  C7  UNL     1      26.809  56.295  49.730  1.00  0.00     0.093 C 
BRANCH  24  25
HETATM   25  C8  UNL     1      26.229  55.135  48.983  1.00  0.00     0.027 A 
HETATM   26  C9  UNL     1      25.318  55.239  47.927  1.00  0.00     0.114 A 
HETATM   27  N4  UNL     1      25.065  53.985  47.556  1.00  0.00    -0.360 N 
HETATM   28  C10 UNL     1      25.743  53.096  48.294  1.00  0.00     0.180 A 
ATOM     29  H4  UNL     1      24.429  53.731  46.800  1.00  0.00     0.166 HD
HETATM   30  N5  UNL     1      26.460  53.828  49.174  1.00  0.00    -0.355 N 
ATOM     31  H5  UNL     1      27.085  53.443  49.881  1.00  0.00     0.166 HD
ENDBRANCH  24  25
ENDBRANCH  19  24
ENDBRANCH  18  19
ENDBRANCH  17  18
ENDBRANCH   1  17
TORSDOF 10
ENDMDL
MODEL 4
REMARK VINA RESULT: -7.616078386      1.690      2.752
REMARK  10 active torsions:
REMARK  status: ('A' for Active; 'I' for Inactive)
REMARK       I    between atoms: C1_2  and  N6_23 
REMARK    1  A    between atoms: N2_3  and  C2_5 
REMARK    2  A    between atoms: C2_5  and  C3_6 
REMARK    3  A    between atoms: C3_6  and  C4_7 
REMARK    4  A    between atoms: C4_7  and  O1_8 
REMARK    5  A    between atoms: O1_8  and  C5_9 
REMARK    6  A    between atoms: C5_9  and  C6_10 
REMARK    7  A    between atoms: C6_10  and  N3_11 
REMARK    8  A    between atoms: C6_10  and  C7_15 
REMARK    9  A    between atoms: C7_15  and  C8_16 
REMARK   10  A    between atoms: N6_23  and  C11_25 
ROOT
HETATM    1  C4  UNL     1      29.462  59.698  50.543  1.00  0.00     0.169 C 
ENDROOT
BRANCH   1   2
HETATM    2  C3  UNL     1      28.637  60.753  51.204  1.00  0.00     0.046 C 
BRANCH   2   3
HETATM    3  C2  UNL     1      28.854  60.683  52.715  1.00  0.00     0.124 C 
BRANCH   3   4
HETATM    4  N2  UNL     1      27.567  60.897  53.330  1.00  0.00    -0.364 N 
HETATM    5  C1  UNL     1      26.749  59.954  53.638  1.00  0.00     0.189 C 
HETATM    6  N1  UNL     1      27.000  58.580  53.415  1.00  0.00    -0.063 NA
HETATM    7  N6  UNL     1      25.518  60.338  54.241  1.00  0.00    -0.315 N 
ATOM      8  H6  UNL     1      24.807  60.838  53.707  1.00  0.00     0.170 HD
ATOM      9  H2  UNL     1      27.288  61.857  53.534  1.00  0.00     0.162 HD
BRANCH   7  10
HETATM   10  C11 UNL     1      25.325  60.036  55.480  1.00  0.00     0.137 A 
HETATM   11  C12 UNL     1      24.191  60.391  56.177  1.00  0.00     0.154 A 
HETATM   12  N7  UNL     1      24.359  59.905  57.412  1.00  0.00    -0.292 N 
HETATM   13  N8  UNL     1      25.535  59.280  57.485  1.00  0.00    -0.021 NA
ATOM     14  H7  UNL     1      23.692  59.999  58.179  1.00  0.00     0.183 HD
HETATM   15  N9  UNL     1      26.141  59.352  56.299  1.00  0.00    -0.268 N 
ATOM     16  H9  UNL     1      27.052  58.962  56.059  1.00  0.00     0.186 HD
ENDBRANCH   7  10
ENDBRANCH   3   4
ENDBRANCH   2   3
ENDBRANCH   1   2
BRANCH   1  17
HETATM   17  O1  UNL     1      28.702  58.646  50.116  1.00  0.00    -0.389 OA
BRANCH  17  18
HETATM   18  C5  UNL     1      27.757  58.964  49.182  1.00  0.00     0.200 C 
BRANCH  18  19
HETATM   19  C6  UNL     1      26.492  58.167  49.461  1.00  0.00     0.212 C 
BRANCH  19  20
HETATM   20  N3  UNL     1      25.621  58.844  50.380  1.00  0.00    -0.073 N 
ATOM     21  H33 UNL     1      25.862  59.833  50.457  1.00  0.00     0.274 HD
ATOM     22  H32 UNL     1      24.680  58.937  49.998  1.00  0.00     0.274 HD
ATOM     23  H31 UNL     1      25.608  58.394  51.295  1.00  0.00     0.274 HD
ENDBRANCH  19  20
BRANCH  19  24
HETATM   24  C7  UNL     1      26.928  56.853  50.106  1.00  0.00     0.093 C 
BRANCH  24  25
HETATM   25  C8  UNL     1      26.379  55.702  49.323  1.00  0.00     0.027 A 
HETATM   26  C9  UNL     1      25.447  55.812  48.286  1.00  0.00     0.114 A 
HETATM   27  N4  UNL     1      25.236  54.564  47.869  1.00  0.00    -0.360 N 
HETATM   28  C10 UNL     1      25.961  53.674  48.559  1.00  0.00     0.180 A 
ATOM     29  H4  UNL     1      24.598  54.316  47.113  1.00  0.00     0.166 HD
HETATM   30  N5  UNL     1      26.664  54.398  49.457  1.00  0.00    -0.355 N 
ATOM     31  H5  UNL     1      27.316  54.010  50.138  1.00  0.00     0.166 HD
ENDBRANCH  24  25
ENDBRANCH  19  24
ENDBRANCH  18  19
ENDBRANCH  17  18
ENDBRANCH   1  17
TORSDOF 10
ENDMDL
MODEL 5
REMARK VINA RESULT: -7.591710414      1.788      8.820
REMARK  10 active torsions:
REMARK  status: ('A' for Active; 'I' for Inactive)
REMARK       I    between atoms: C1_2  and  N6_23 
REMARK    1  A    between atoms: N2_3  and  C2_5 
REMARK    2  A    between atoms: C2_5  and  C3_6 
REMARK    3  A    between atoms: C3_6  and  C4_7 
REMARK    4  A    between atoms: C4_7  and  O1_8 
REMARK    5  A    between atoms: O1_8  and  C5_9 
REMARK    6  A    between atoms: C5_9  and  C6_10 
REMARK    7  A    between atoms: C6_10  and  N3_11 
REMARK    8  A    between atoms: C6_10  and  C7_15 
REMARK    9  A    between atoms: C7_15  and  C8_16 
REMARK   10  A    between atoms: N6_23  and  C11_25 
ROOT
HETATM    1  C4  UNL     1      26.231  59.181  49.660  1.00  0.00     0.169 C 
ENDROOT
BRANCH   1   2
HETATM    2  C3  UNL     1      26.574  57.846  50.236  1.00  0.00     0.046 C 
BRANCH   2   3
HETATM    3  C2  UNL     1      27.279  57.008  49.171  1.00  0.00     0.124 C 
BRANCH   3   4
HETATM    4  N2  UNL     1      26.803  55.655  49.325  1.00  0.00    -0.364 N 
HETATM    5  C1  UNL     1      25.828  55.152  48.655  1.00  0.00     0.189 C 
HETATM    6  N1  UNL     1      25.089  55.858  47.676  1.00  0.00    -0.063 NA
HETATM    7  N6  UNL     1      25.486  53.798  48.929  1.00  0.00    -0.315 N 
ATOM      8  H6  UNL     1      25.065  53.535  49.820  1.00  0.00     0.170 HD
ATOM      9  H2  UNL     1      27.270  55.059  50.009  1.00  0.00     0.162 HD
BRANCH   7  10
HETATM   10  C11 UNL     1      25.721  52.913  48.021  1.00  0.00     0.137 A 
HETATM   11  C12 UNL     1      24.892  52.696  46.943  1.00  0.00     0.154 A 
HETATM   12  N7  UNL     1      25.465  51.715  46.237  1.00  0.00    -0.292 N 
HETATM   13  N8  UNL     1      26.593  51.338  46.841  1.00  0.00    -0.021 NA
ATOM     14  H7  UNL     1      25.098  51.317  45.372  1.00  0.00     0.183 HD
HETATM   15  N9  UNL     1      26.763  52.070  47.943  1.00  0.00    -0.268 N 
ATOM     16  H9  UNL     1      27.539  52.002  48.602  1.00  0.00     0.186 HD
ENDBRANCH   7  10
ENDBRANCH   3   4
ENDBRANCH   2   3
ENDBRANCH   1   2
BRANCH   1  17
HETATM   17  O1  UNL     1      26.650  60.206  50.460  1.00  0.00    -0.389 OA
BRANCH  17  18
HETATM   18  C5  UNL     1      28.006  60.310  50.596  1.00  0.00     0.200 C 
BRANCH  18  19
HETATM   19  C6  UNL     1      28.334  60.736  52.019  1.00  0.00     0.212 C 
BRANCH  19  20
HETATM   20  N3  UNL     1      29.699  61.159  52.151  1.00  0.00    -0.073 N 
ATOM     21  H33 UNL     1      29.827  61.740  52.980  1.00  0.00     0.274 HD
ATOM     22  H32 UNL     1      30.305  60.380  52.406  1.00  0.00     0.274 HD
ATOM     23  H31 UNL     1      30.035  61.632  51.311  1.00  0.00     0.274 HD
ENDBRANCH  19  20
BRANCH  19  24
HETATM   24  C7  UNL     1      28.131  59.511  52.907  1.00  0.00     0.093 C 
BRANCH  24  25
HETATM   25  C8  UNL     1      26.955  59.730  53.807  1.00  0.00     0.027 A 
HETATM   26  C9  UNL     1      27.035  59.958  55.184  1.00  0.00     0.114 A 
HETATM   27  N4  UNL     1      25.773  60.100  55.590  1.00  0.00    -0.360 N 
HETATM   28  C10 UNL     1      24.903  59.980  54.579  1.00  0.00     0.180 A 
ATOM     29  H4  UNL     1      25.502  60.279  56.557  1.00  0.00     0.166 HD
HETATM   30  N5  UNL     1      25.655  59.751  53.480  1.00  0.00    -0.355 N 
ATOM     31  H5  UNL     1      25.287  59.613  52.539  1.00  0.00     0.166 HD
ENDBRANCH  24  25
ENDBRANCH  19  24
ENDBRANCH  18  19
ENDBRANCH  17  18
ENDBRANCH   1  17
TORSDOF 10
ENDMDL
