MODEL 1
REMARK VINA RESULT: -6.835325651      0.000      0.000
REMARK  20 active torsions:
REMARK  status: ('A' for Active; 'I' for Inactive)
REMARK    1  A    between atoms: N1_1  and  C1_5 
REMARK    2  A    between atoms: C1_5  and  C2_6 
REMARK    3  A    between atoms: C2_6  and  N2_7 
REMARK    4  A    between atoms: N2_7  and  C3_10 
REMARK    5  A    between atoms: C3_10  and  C4_11 
REMARK    6  A    between atoms: C4_11  and  C5_12 
REMARK    7  A    between atoms: C4_11  and  N4_17 
REMARK    8  A    between atoms: C5_12  and  N3_13 
REMARK    9  A    between atoms: N4_17  and  C6_19 
REMARK   10  A    between atoms: C7_20  and  N5_21 
REMARK   11  A    between atoms: N5_21  and  C8_23 
REMARK   12  A    between atoms: C8_23  and  C9_24 
REMARK   13  A    between atoms: C9_24  and  N6_25 
REMARK   14  A    between atoms: C10_29  and  N7_30 
REMARK   15  A    between atoms: C11_34  and  O1_35 
REMARK   16  A    between atoms: O1_35  and  C12_36 
REMARK   17  A    between atoms: C13_37  and  O2_38 
REMARK   18  A    between atoms: C14_40  and  N8_41 
REMARK   19  A    between atoms: C16_46  and  N9_47 
REMARK   20  A    between atoms: C17_51  and  O3_52 
ROOT
HETATM    1  C6  UNL     1      35.074  52.050  16.733  1.00  0.00     0.132 C 
HETATM    2  C7  UNL     1      34.865  50.754  16.217  1.00  0.00     0.134 C 
HETATM    3  C10 UNL     1      35.855  50.962  15.094  1.00  0.00     0.238 C 
HETATM    4  C11 UNL     1      36.619  51.905  15.954  1.00  0.00     0.179 C 
ENDROOT
BRANCH   4   5
HETATM    5  O1  UNL     1      36.962  53.057  15.611  1.00  0.00    -0.371 OA
BRANCH   5   6
HETATM    6  C12 UNL     1      37.319  54.184  15.245  1.00  0.00     0.183 C 
HETATM    7  C13 UNL     1      36.906  55.365  16.069  1.00  0.00     0.180 C 
HETATM    8  C14 UNL     1      37.335  56.666  15.454  1.00  0.00     0.216 C 
HETATM    9  C15 UNL     1      38.142  56.543  14.231  1.00  0.00     0.071 C 
HETATM   10  C16 UNL     1      37.439  55.687  13.191  1.00  0.00     0.216 C 
HETATM   11  C17 UNL     1      36.781  54.454  13.757  1.00  0.00     0.180 C 
BRANCH   7  12
HETATM   12  O2  UNL     1      35.489  55.387  16.226  1.00  0.00    -0.391 OA
ATOM     13  H2  UNL     1      35.257  55.735  17.078  1.00  0.00     0.210 HD
ENDBRANCH   7  12
BRANCH   8  14
HETATM   14  N8  UNL     1      36.203  57.547  15.255  1.00  0.00    -0.072 N 
ATOM     15  H83 UNL     1      35.566  57.523  16.051  1.00  0.00     0.274 HD
ATOM     16  H82 UNL     1      36.478  58.528  15.305  1.00  0.00     0.274 HD
ATOM     17  H81 UNL     1      35.722  57.335  14.382  1.00  0.00     0.274 HD
ENDBRANCH   8  14
BRANCH  10  18
HETATM   18  N9  UNL     1      38.434  55.310  12.149  1.00  0.00    -0.072 N 
ATOM     19  H93 UNL     1      38.148  55.593  11.212  1.00  0.00     0.274 HD
ATOM     20  H92 UNL     1      39.290  55.862  12.205  1.00  0.00     0.274 HD
ATOM     21  H91 UNL     1      38.607  54.308  12.222  1.00  0.00     0.274 HD
ENDBRANCH  10  18
BRANCH  11  22
HETATM   22  O3  UNL     1      35.453  54.542  13.798  1.00  0.00    -0.391 OA
ATOM     23  H3  UNL     1      35.087  53.778  13.368  1.00  0.00     0.210 HD
ENDBRANCH  11  22
ENDBRANCH   5   6
ENDBRANCH   4   5
BRANCH   1  24
HETATM   24  N4  UNL     1      35.369  52.430  18.032  1.00  0.00    -0.405 N 
ATOM     25  H4  UNL     1      36.361  52.419  18.271  1.00  0.00     0.154 HD
BRANCH  24  26
HETATM   26  C4  UNL     1      34.552  52.809  19.021  1.00  0.00     0.128 C 
BRANCH  26  27
HETATM   27  C3  UNL     1      34.176  51.638  19.940  1.00  0.00     0.258 C 
BRANCH  27  28
HETATM   28  N2  UNL     1      32.785  51.397  20.006  1.00  0.00    -0.072 N 
ATOM     29  H22 UNL     1      32.467  50.783  19.256  1.00  0.00     0.277 HD
ATOM     30  H21 UNL     1      32.242  52.225  19.761  1.00  0.00     0.277 HD
BRANCH  28  31
HETATM   31  C2  UNL     1      32.431  50.882  21.319  1.00  0.00     0.259 C 
BRANCH  31  32
HETATM   32  C1  UNL     1      32.686  51.839  22.439  1.00  0.00     0.257 C 
BRANCH  32  33
HETATM   33  N1  UNL     1      33.047  51.202  23.672  1.00  0.00    -0.078 N 
ATOM     34  H13 UNL     1      32.291  50.603  24.002  1.00  0.00     0.274 HD
ATOM     35  H12 UNL     1      33.768  50.498  23.515  1.00  0.00     0.274 HD
ATOM     36  H11 UNL     1      33.335  51.854  24.401  1.00  0.00     0.274 HD
ENDBRANCH  32  33
ENDBRANCH  31  32
ENDBRANCH  28  31
ENDBRANCH  27  28
ENDBRANCH  26  27
BRANCH  26  37
HETATM   37  C5  UNL     1      35.096  53.963  19.906  1.00  0.00     0.256 C 
BRANCH  37  38
HETATM   38  N3  UNL     1      36.102  54.738  19.358  1.00  0.00    -0.077 N 
ATOM     39  H33 UNL     1      36.705  54.156  18.777  1.00  0.00     0.274 HD
ATOM     40  H32 UNL     1      35.709  55.361  18.652  1.00  0.00     0.274 HD
ATOM     41  H31 UNL     1      36.670  55.274  20.013  1.00  0.00     0.274 HD
ENDBRANCH  37  38
ENDBRANCH  26  37
ENDBRANCH  24  26
ENDBRANCH   1  24
BRANCH   3  42
HETATM   42  N7  UNL     1      35.169  51.509  13.952  1.00  0.00    -0.070 N 
ATOM     43  H73 UNL     1      35.416  51.031  13.085  1.00  0.00     0.274 HD
ATOM     44  H72 UNL     1      34.172  51.291  13.957  1.00  0.00     0.274 HD
ATOM     45  H71 UNL     1      35.344  52.512  13.903  1.00  0.00     0.274 HD
ENDBRANCH   3  42
BRANCH   2  46
HETATM   46  N5  UNL     1      34.905  49.457  16.708  1.00  0.00    -0.411 N 
ATOM     47  H5  UNL     1      35.759  48.899  16.697  1.00  0.00     0.153 HD
BRANCH  46  48
HETATM   48  C8  UNL     1      33.693  48.958  17.225  1.00  0.00     0.141 C 
BRANCH  48  49
HETATM   49  C9  UNL     1      34.076  48.309  18.585  1.00  0.00     0.248 C 
BRANCH  49  50
HETATM   50  N6  UNL     1      35.142  47.357  18.320  1.00  0.00    -0.078 N 
ATOM     51  H63 UNL     1      35.423  46.830  19.147  1.00  0.00     0.274 HD
ATOM     52  H62 UNL     1      34.838  46.562  17.757  1.00  0.00     0.274 HD
ATOM     53  H61 UNL     1      35.911  47.876  17.896  1.00  0.00     0.274 HD
ENDBRANCH  49  50
ENDBRANCH  48  49
ENDBRANCH  46  48
ENDBRANCH   2  46
TORSDOF 20
ENDMDL
MODEL 2
REMARK VINA RESULT: -6.801383452      1.656      1.952
REMARK  20 active torsions:
REMARK  status: ('A' for Active; 'I' for Inactive)
REMARK    1  A    between atoms: N1_1  and  C1_5 
REMARK    2  A    between atoms: C1_5  and  C2_6 
REMARK    3  A    between atoms: C2_6  and  N2_7 
REMARK    4  A    between atoms: N2_7  and  C3_10 
REMARK    5  A    between atoms: C3_10  and  C4_11 
REMARK    6  A    between atoms: C4_11  and  C5_12 
REMARK    7  A    between atoms: C4_11  and  N4_17 
REMARK    8  A    between atoms: C5_12  and  N3_13 
REMARK    9  A    between atoms: N4_17  and  C6_19 
REMARK   10  A    between atoms: C7_20  and  N5_21 
REMARK   11  A    between atoms: N5_21  and  C8_23 
REMARK   12  A    between atoms: C8_23  and  C9_24 
REMARK   13  A    between atoms: C9_24  and  N6_25 
REMARK   14  A    between atoms: C10_29  and  N7_30 
REMARK   15  A    between atoms: C11_34  and  O1_35 
REMARK   16  A    between atoms: O1_35  and  C12_36 
REMARK   17  A    between atoms: C13_37  and  O2_38 
REMARK   18  A    between atoms: C14_40  and  N8_41 
REMARK   19  A    between atoms: C16_46  and  N9_47 
REMARK   20  A    between atoms: C17_51  and  O3_52 
ROOT
HETATM    1  C6  UNL     1      35.127  52.132  16.736  1.00  0.00     0.132 C 
HETATM    2  C7  UNL     1      35.036  50.852  16.149  1.00  0.00     0.134 C 
HETATM    3  C10 UNL     1      36.027  51.199  15.062  1.00  0.00     0.238 C 
HETATM    4  C11 UNL     1      36.693  52.155  15.987  1.00  0.00     0.179 C 
ENDROOT
BRANCH   4   5
HETATM    5  O1  UNL     1      36.947  53.347  15.712  1.00  0.00    -0.371 OA
BRANCH   5   6
HETATM    6  C12 UNL     1      37.165  54.533  15.432  1.00  0.00     0.183 C 
HETATM    7  C13 UNL     1      38.104  55.310  16.303  1.00  0.00     0.180 C 
HETATM    8  C14 UNL     1      38.200  56.751  15.893  1.00  0.00     0.216 C 
HETATM    9  C15 UNL     1      37.444  57.109  14.684  1.00  0.00     0.071 C 
HETATM   10  C16 UNL     1      35.985  56.703  14.806  1.00  0.00     0.216 C 
HETATM   11  C17 UNL     1      35.778  55.340  15.419  1.00  0.00     0.180 C 
BRANCH   7  12
HETATM   12  O2  UNL     1      37.675  55.256  17.663  1.00  0.00    -0.391 OA
ATOM     13  H2  UNL     1      37.618  56.132  18.025  1.00  0.00     0.210 HD
ENDBRANCH   7  12
BRANCH   8  14
HETATM   14  N8  UNL     1      37.878  57.630  16.998  1.00  0.00    -0.072 N 
ATOM     15  H83 UNL     1      38.592  57.593  17.726  1.00  0.00     0.274 HD
ATOM     16  H82 UNL     1      37.972  58.611  16.737  1.00  0.00     0.274 HD
ATOM     17  H81 UNL     1      36.951  57.427  17.371  1.00  0.00     0.274 HD
ENDBRANCH   8  14
BRANCH  10  18
HETATM   18  N9  UNL     1      35.371  56.758  13.452  1.00  0.00    -0.072 N 
ATOM     19  H93 UNL     1      36.057  56.922  12.715  1.00  0.00     0.274 HD
ATOM     20  H92 UNL     1      35.040  55.848  13.132  1.00  0.00     0.274 HD
ATOM     21  H91 UNL     1      34.632  57.462  13.465  1.00  0.00     0.274 HD
ENDBRANCH  10  18
BRANCH  11  22
HETATM   22  O3  UNL     1      35.309  55.393  16.665  1.00  0.00    -0.391 OA
ATOM     23  H3  UNL     1      35.313  56.299  16.950  1.00  0.00     0.210 HD
ENDBRANCH  11  22
ENDBRANCH   5   6
ENDBRANCH   4   5
BRANCH   1  24
HETATM   24  N4  UNL     1      35.365  52.465  18.059  1.00  0.00    -0.405 N 
ATOM     25  H4  UNL     1      36.343  52.634  18.293  1.00  0.00     0.154 HD
BRANCH  24  26
HETATM   26  C4  UNL     1      34.507  52.598  19.077  1.00  0.00     0.128 C 
BRANCH  26  27
HETATM   27  C3  UNL     1      34.352  51.297  19.876  1.00  0.00     0.258 C 
BRANCH  27  28
HETATM   28  N2  UNL     1      35.575  50.629  20.109  1.00  0.00    -0.072 N 
ATOM     29  H22 UNL     1      36.341  51.281  20.277  1.00  0.00     0.277 HD
ATOM     30  H21 UNL     1      35.936  50.188  19.263  1.00  0.00     0.277 HD
BRANCH  28  31
HETATM   31  C2  UNL     1      35.421  49.676  21.198  1.00  0.00     0.259 C 
BRANCH  31  32
HETATM   32  C1  UNL     1      36.706  49.293  21.858  1.00  0.00     0.257 C 
BRANCH  32  33
HETATM   33  N1  UNL     1      37.108  50.189  22.902  1.00  0.00    -0.078 N 
ATOM     34  H13 UNL     1      36.385  50.888  23.075  1.00  0.00     0.274 HD
ATOM     35  H12 UNL     1      37.106  49.714  23.804  1.00  0.00     0.274 HD
ATOM     36  H11 UNL     1      38.008  50.637  22.735  1.00  0.00     0.274 HD
ENDBRANCH  32  33
ENDBRANCH  31  32
ENDBRANCH  28  31
ENDBRANCH  27  28
ENDBRANCH  26  27
BRANCH  26  37
HETATM   37  C5  UNL     1      34.853  53.739  20.071  1.00  0.00     0.256 C 
BRANCH  37  38
HETATM   38  N3  UNL     1      35.787  54.665  19.646  1.00  0.00    -0.077 N 
ATOM     39  H33 UNL     1      36.305  55.024  20.448  1.00  0.00     0.274 HD
ATOM     40  H32 UNL     1      36.535  54.191  19.139  1.00  0.00     0.274 HD
ATOM     41  H31 UNL     1      35.435  55.443  19.089  1.00  0.00     0.274 HD
ENDBRANCH  37  38
ENDBRANCH  26  37
ENDBRANCH  24  26
ENDBRANCH   1  24
BRANCH   3  42
HETATM   42  N7  UNL     1      35.320  51.748  13.933  1.00  0.00    -0.070 N 
ATOM     43  H73 UNL     1      35.125  52.743  14.046  1.00  0.00     0.274 HD
ATOM     44  H72 UNL     1      35.907  51.810  13.101  1.00  0.00     0.274 HD
ATOM     45  H71 UNL     1      34.474  51.204  13.770  1.00  0.00     0.274 HD
ENDBRANCH   3  42
BRANCH   2  46
HETATM   46  N5  UNL     1      35.174  49.538  16.574  1.00  0.00    -0.411 N 
ATOM     47  H5  UNL     1      36.079  49.145  16.835  1.00  0.00     0.153 HD
BRANCH  46  48
HETATM   48  C8  UNL     1      33.988  48.780  16.623  1.00  0.00     0.141 C 
BRANCH  48  49
HETATM   49  C9  UNL     1      33.916  48.245  18.081  1.00  0.00     0.248 C 
BRANCH  49  50
HETATM   50  N6  UNL     1      35.107  47.442  18.302  1.00  0.00    -0.078 N 
ATOM     51  H63 UNL     1      35.885  47.705  17.697  1.00  0.00     0.274 HD
ATOM     52  H62 UNL     1      35.563  47.639  19.193  1.00  0.00     0.274 HD
ATOM     53  H61 UNL     1      34.834  46.464  18.200  1.00  0.00     0.274 HD
ENDBRANCH  49  50
ENDBRANCH  48  49
ENDBRANCH  46  48
ENDBRANCH   2  46
TORSDOF 20
ENDMDL
MODEL 3
REMARK VINA RESULT: -6.726662627      1.238      1.447
REMARK  20 active torsions:
REMARK  status: ('A' for Active; 'I' for Inactive)
REMARK    1  A    between atoms: N1_1  and  C1_5 
REMARK    2  A    between atoms: C1_5  and  C2_6 
REMARK    3  A    between atoms: C2_6  and  N2_7 
REMARK    4  A    between atoms: N2_7  and  C3_10 
REMARK    5  A    between atoms: C3_10  and  C4_11 
REMARK    6  A    between atoms: C4_11  and  C5_12 
REMARK    7  A    between atoms: C4_11  and  N4_17 
REMARK    8  A    between atoms: C5_12  and  N3_13 
REMARK    9  A    between atoms: N4_17  and  C6_19 
REMARK   10  A    between atoms: C7_20  and  N5_21 
REMARK   11  A    between atoms: N5_21  and  C8_23 
REMARK   12  A    between atoms: C8_23  and  C9_24 
REMARK   13  A    between atoms: C9_24  and  N6_25 
REMARK   14  A    between atoms: C10_29  and  N7_30 
REMARK   15  A    between atoms: C11_34  and  O1_35 
REMARK   16  A    between atoms: O1_35  and  C12_36 
REMARK   17  A    between atoms: C13_37  and  O2_38 
REMARK   18  A    between atoms: C14_40  and  N8_41 
REMARK   19  A    between atoms: C16_46  and  N9_47 
REMARK   20  A    between atoms: C17_51  and  O3_52 
ROOT
HETATM    1  C6  UNL     1      35.168  52.266  16.600  1.00  0.00     0.132 C 
HETATM    2  C7  UNL     1      35.002  50.947  16.126  1.00  0.00     0.134 C 
HETATM    3  C10 UNL     1      35.883  51.191  14.922  1.00  0.00     0.238 C 
HETATM    4  C11 UNL     1      36.650  52.201  15.699  1.00  0.00     0.179 C 
ENDROOT
BRANCH   4   5
HETATM    5  O1  UNL     1      36.889  53.364  15.308  1.00  0.00    -0.371 OA
BRANCH   5   6
HETATM    6  C12 UNL     1      37.158  54.505  14.913  1.00  0.00     0.183 C 
HETATM    7  C13 UNL     1      38.284  55.242  15.571  1.00  0.00     0.180 C 
HETATM    8  C14 UNL     1      38.432  56.641  15.047  1.00  0.00     0.216 C 
HETATM    9  C15 UNL     1      37.525  56.996  13.945  1.00  0.00     0.071 C 
HETATM   10  C16 UNL     1      36.076  56.735  14.320  1.00  0.00     0.216 C 
HETATM   11  C17 UNL     1      35.858  55.436  15.055  1.00  0.00     0.180 C 
BRANCH   7  12
HETATM   12  O2  UNL     1      38.075  55.308  16.980  1.00  0.00    -0.391 OA
ATOM     13  H2  UNL     1      37.362  55.903  17.179  1.00  0.00     0.210 HD
ENDBRANCH   7  12
BRANCH   8  14
HETATM   14  N8  UNL     1      38.365  57.609  16.121  1.00  0.00    -0.072 N 
ATOM     15  H83 UNL     1      37.959  58.490  15.807  1.00  0.00     0.274 HD
ATOM     16  H82 UNL     1      37.663  57.352  16.816  1.00  0.00     0.274 HD
ATOM     17  H81 UNL     1      39.281  57.748  16.547  1.00  0.00     0.274 HD
ENDBRANCH   8  14
BRANCH  10  18
HETATM   18  N9  UNL     1      35.261  56.768  13.075  1.00  0.00    -0.072 N 
ATOM     19  H93 UNL     1      35.633  57.412  12.378  1.00  0.00     0.274 HD
ATOM     20  H92 UNL     1      35.342  55.911  12.529  1.00  0.00     0.274 HD
ATOM     21  H91 UNL     1      34.296  56.980  13.332  1.00  0.00     0.274 HD
ENDBRANCH  10  18
BRANCH  11  22
HETATM   22  O3  UNL     1      35.600  55.605  16.351  1.00  0.00    -0.391 OA
ATOM     23  H3  UNL     1      34.984  56.322  16.444  1.00  0.00     0.210 HD
ENDBRANCH  11  22
ENDBRANCH   5   6
ENDBRANCH   4   5
BRANCH   1  24
HETATM   24  N4  UNL     1      35.541  52.694  17.863  1.00  0.00    -0.405 N 
ATOM     25  H4  UNL     1      36.540  52.631  18.063  1.00  0.00     0.154 HD
BRANCH  24  26
HETATM   26  C4  UNL     1      34.793  53.178  18.860  1.00  0.00     0.128 C 
BRANCH  26  27
HETATM   27  C3  UNL     1      34.200  52.062  19.731  1.00  0.00     0.258 C 
BRANCH  27  28
HETATM   28  N2  UNL     1      35.170  51.347  20.471  1.00  0.00    -0.072 N 
ATOM     29  H22 UNL     1      35.903  51.959  20.831  1.00  0.00     0.277 HD
ATOM     30  H21 UNL     1      35.749  50.758  19.872  1.00  0.00     0.277 HD
BRANCH  28  31
HETATM   31  C2  UNL     1      34.527  50.585  21.529  1.00  0.00     0.259 C 
BRANCH  31  32
HETATM   32  C1  UNL     1      33.276  51.209  22.057  1.00  0.00     0.257 C 
BRANCH  32  33
HETATM   33  N1  UNL     1      33.173  51.176  23.487  1.00  0.00    -0.078 N 
ATOM     34  H13 UNL     1      34.067  50.920  23.906  1.00  0.00     0.274 HD
ATOM     35  H12 UNL     1      33.071  52.118  23.862  1.00  0.00     0.274 HD
ATOM     36  H11 UNL     1      32.428  50.570  23.830  1.00  0.00     0.274 HD
ENDBRANCH  32  33
ENDBRANCH  31  32
ENDBRANCH  28  31
ENDBRANCH  27  28
ENDBRANCH  26  27
BRANCH  26  37
HETATM   37  C5  UNL     1      35.524  54.182  19.792  1.00  0.00     0.256 C 
BRANCH  37  38
HETATM   38  N3  UNL     1      36.290  55.152  19.172  1.00  0.00    -0.077 N 
ATOM     39  H33 UNL     1      36.038  55.209  18.185  1.00  0.00     0.274 HD
ATOM     40  H32 UNL     1      35.999  56.076  19.491  1.00  0.00     0.274 HD
ATOM     41  H31 UNL     1      37.301  55.059  19.263  1.00  0.00     0.274 HD
ENDBRANCH  37  38
ENDBRANCH  26  37
ENDBRANCH  24  26
ENDBRANCH   1  24
BRANCH   3  42
HETATM   42  N7  UNL     1      35.072  51.667  13.830  1.00  0.00    -0.070 N 
ATOM     43  H73 UNL     1      34.173  51.187  13.778  1.00  0.00     0.274 HD
ATOM     44  H72 UNL     1      34.723  52.612  13.990  1.00  0.00     0.274 HD
ATOM     45  H71 UNL     1      35.601  51.592  12.962  1.00  0.00     0.274 HD
ENDBRANCH   3  42
BRANCH   2  46
HETATM   46  N5  UNL     1      35.167  49.667  16.636  1.00  0.00    -0.411 N 
ATOM     47  H5  UNL     1      36.071  49.325  16.959  1.00  0.00     0.153 HD
BRANCH  46  48
HETATM   48  C8  UNL     1      34.006  48.870  16.681  1.00  0.00     0.141 C 
BRANCH  48  49
HETATM   49  C9  UNL     1      33.646  48.774  18.191  1.00  0.00     0.248 C 
BRANCH  49  50
HETATM   50  N6  UNL     1      34.757  48.111  18.854  1.00  0.00    -0.078 N 
ATOM     51  H63 UNL     1      34.621  47.106  18.954  1.00  0.00     0.274 HD
ATOM     52  H62 UNL     1      35.600  48.073  18.281  1.00  0.00     0.274 HD
ATOM     53  H61 UNL     1      34.901  48.585  19.746  1.00  0.00     0.274 HD
ENDBRANCH  49  50
ENDBRANCH  48  49
ENDBRANCH  46  48
ENDBRANCH   2  46
TORSDOF 20
ENDMDL
MODEL 4
REMARK VINA RESULT: -6.713421451      1.271      1.425
REMARK  20 active torsions:
REMARK  status: ('A' for Active; 'I' for Inactive)
REMARK    1  A    between atoms: N1_1  and  C1_5 
REMARK    2  A    between atoms: C1_5  and  C2_6 
REMARK    3  A    between atoms: C2_6  and  N2_7 
REMARK    4  A    between atoms: N2_7  and  C3_10 
REMARK    5  A    between atoms: C3_10  and  C4_11 
REMARK    6  A    between atoms: C4_11  and  C5_12 
REMARK    7  A    between atoms: C4_11  and  N4_17 
REMARK    8  A    between atoms: C5_12  and  N3_13 
REMARK    9  A    between atoms: N4_17  and  C6_19 
REMARK   10  A    between atoms: C7_20  and  N5_21 
REMARK   11  A    between atoms: N5_21  and  C8_23 
REMARK   12  A    between atoms: C8_23  and  C9_24 
REMARK   13  A    between atoms: C9_24  and  N6_25 
REMARK   14  A    between atoms: C10_29  and  N7_30 
REMARK   15  A    between atoms: C11_34  and  O1_35 
REMARK   16  A    between atoms: O1_35  and  C12_36 
REMARK   17  A    between atoms: C13_37  and  O2_38 
REMARK   18  A    between atoms: C14_40  and  N8_41 
REMARK   19  A    between atoms: C16_46  and  N9_47 
REMARK   20  A    between atoms: C17_51  and  O3_52 
ROOT
HETATM    1  C6  UNL     1      35.125  52.067  16.699  1.00  0.00     0.132 C 
HETATM    2  C7  UNL     1      34.916  50.777  16.167  1.00  0.00     0.134 C 
HETATM    3  C10 UNL     1      35.860  51.021  15.012  1.00  0.00     0.238 C 
HETATM    4  C11 UNL     1      36.641  51.961  15.860  1.00  0.00     0.179 C 
ENDROOT
BRANCH   4   5
HETATM    5  O1  UNL     1      36.953  53.123  15.526  1.00  0.00    -0.371 OA
BRANCH   5   6
HETATM    6  C12 UNL     1      37.264  54.265  15.163  1.00  0.00     0.183 C 
HETATM    7  C13 UNL     1      36.745  55.430  15.950  1.00  0.00     0.180 C 
HETATM    8  C14 UNL     1      37.131  56.746  15.340  1.00  0.00     0.216 C 
HETATM    9  C15 UNL     1      38.004  56.656  14.160  1.00  0.00     0.071 C 
HETATM   10  C16 UNL     1      37.403  55.751  13.098  1.00  0.00     0.216 C 
HETATM   11  C17 UNL     1      36.788  54.489  13.647  1.00  0.00     0.180 C 
BRANCH   7  12
HETATM   12  O2  UNL     1      35.323  55.373  16.037  1.00  0.00    -0.391 OA
ATOM     13  H2  UNL     1      35.042  55.514  16.932  1.00  0.00     0.210 HD
ENDBRANCH   7  12
BRANCH   8  14
HETATM   14  N8  UNL     1      35.964  57.559  15.074  1.00  0.00    -0.072 N 
ATOM     15  H83 UNL     1      35.341  57.597  15.881  1.00  0.00     0.274 HD
ATOM     16  H82 UNL     1      36.201  58.550  15.015  1.00  0.00     0.274 HD
ATOM     17  H81 UNL     1      35.476  57.239  14.238  1.00  0.00     0.274 HD
ENDBRANCH   8  14
BRANCH  10  18
HETATM   18  N9  UNL     1      38.468  55.420  12.112  1.00  0.00    -0.072 N 
ATOM     19  H93 UNL     1      38.195  54.671  11.475  1.00  0.00     0.274 HD
ATOM     20  H92 UNL     1      38.600  56.153  11.415  1.00  0.00     0.274 HD
ATOM     21  H91 UNL     1      39.323  55.208  12.626  1.00  0.00     0.274 HD
ENDBRANCH  10  18
BRANCH  11  22
HETATM   22  O3  UNL     1      35.455  54.502  13.621  1.00  0.00    -0.391 OA
ATOM     23  H3  UNL     1      35.159  53.802  13.052  1.00  0.00     0.210 HD
ENDBRANCH  11  22
ENDBRANCH   5   6
ENDBRANCH   4   5
BRANCH   1  24
HETATM   24  N4  UNL     1      35.462  52.428  17.993  1.00  0.00    -0.405 N 
ATOM     25  H4  UNL     1      36.462  52.434  18.193  1.00  0.00     0.154 HD
BRANCH  24  26
HETATM   26  C4  UNL     1      34.677  52.770  19.020  1.00  0.00     0.128 C 
BRANCH  26  27
HETATM   27  C3  UNL     1      34.455  51.603  19.992  1.00  0.00     0.258 C 
BRANCH  27  28
HETATM   28  N2  UNL     1      35.562  50.730  20.087  1.00  0.00    -0.072 N 
ATOM     29  H22 UNL     1      36.450  51.232  20.049  1.00  0.00     0.277 HD
ATOM     30  H21 UNL     1      35.675  50.163  19.246  1.00  0.00     0.277 HD
BRANCH  28  31
HETATM   31  C2  UNL     1      35.450  49.913  21.285  1.00  0.00     0.259 C 
BRANCH  31  32
HETATM   32  C1  UNL     1      36.763  49.527  21.886  1.00  0.00     0.257 C 
BRANCH  32  33
HETATM   33  N1  UNL     1      37.086  50.249  23.081  1.00  0.00    -0.078 N 
ATOM     34  H13 UNL     1      36.471  51.056  23.191  1.00  0.00     0.274 HD
ATOM     35  H12 UNL     1      36.816  49.715  23.907  1.00  0.00     0.274 HD
ATOM     36  H11 UNL     1      38.064  50.532  23.140  1.00  0.00     0.274 HD
ENDBRANCH  32  33
ENDBRANCH  31  32
ENDBRANCH  28  31
ENDBRANCH  27  28
ENDBRANCH  26  27
BRANCH  26  37
HETATM   37  C5  UNL     1      35.174  53.993  19.838  1.00  0.00     0.256 C 
BRANCH  37  38
HETATM   38  N3  UNL     1      36.111  54.804  19.225  1.00  0.00    -0.077 N 
ATOM     39  H33 UNL     1      36.922  54.248  18.954  1.00  0.00     0.274 HD
ATOM     40  H32 UNL     1      35.768  55.093  18.309  1.00  0.00     0.274 HD
ATOM     41  H31 UNL     1      36.417  55.622  19.751  1.00  0.00     0.274 HD
ENDBRANCH  37  38
ENDBRANCH  26  37
ENDBRANCH  24  26
ENDBRANCH   1  24
BRANCH   3  42
HETATM   42  N7  UNL     1      35.123  51.577  13.907  1.00  0.00    -0.070 N 
ATOM     43  H73 UNL     1      34.726  50.856  13.304  1.00  0.00     0.274 HD
ATOM     44  H72 UNL     1      34.250  52.013  14.204  1.00  0.00     0.274 HD
ATOM     45  H71 UNL     1      35.723  52.223  13.394  1.00  0.00     0.274 HD
ENDBRANCH   3  42
BRANCH   2  46
HETATM   46  N5  UNL     1      34.994  49.472  16.633  1.00  0.00    -0.411 N 
ATOM     47  H5  UNL     1      35.887  48.999  16.771  1.00  0.00     0.153 HD
BRANCH  46  48
HETATM   48  C8  UNL     1      33.764  48.841  16.904  1.00  0.00     0.141 C 
BRANCH  48  49
HETATM   49  C9  UNL     1      33.921  48.260  18.337  1.00  0.00     0.248 C 
BRANCH  49  50
HETATM   50  N6  UNL     1      35.132  47.456  18.343  1.00  0.00    -0.078 N 
ATOM     51  H63 UNL     1      35.027  46.571  17.846  1.00  0.00     0.274 HD
ATOM     52  H62 UNL     1      35.873  47.845  17.760  1.00  0.00     0.274 HD
ATOM     53  H61 UNL     1      35.410  47.336  19.317  1.00  0.00     0.274 HD
ENDBRANCH  49  50
ENDBRANCH  48  49
ENDBRANCH  46  48
ENDBRANCH   2  46
TORSDOF 20
ENDMDL
MODEL 5
REMARK VINA RESULT: -6.628829381      1.383      1.810
REMARK  20 active torsions:
REMARK  status: ('A' for Active; 'I' for Inactive)
REMARK    1  A    between atoms: N1_1  and  C1_5 
REMARK    2  A    between atoms: C1_5  and  C2_6 
REMARK    3  A    between atoms: C2_6  and  N2_7 
REMARK    4  A    between atoms: N2_7  and  C3_10 
REMARK    5  A    between atoms: C3_10  and  C4_11 
REMARK    6  A    between atoms: C4_11  and  C5_12 
REMARK    7  A    between atoms: C4_11  and  N4_17 
REMARK    8  A    between atoms: C5_12  and  N3_13 
REMARK    9  A    between atoms: N4_17  and  C6_19 
REMARK   10  A    between atoms: C7_20  and  N5_21 
REMARK   11  A    between atoms: N5_21  and  C8_23 
REMARK   12  A    between atoms: C8_23  and  C9_24 
REMARK   13  A    between atoms: C9_24  and  N6_25 
REMARK   14  A    between atoms: C10_29  and  N7_30 
REMARK   15  A    between atoms: C11_34  and  O1_35 
REMARK   16  A    between atoms: O1_35  and  C12_36 
REMARK   17  A    between atoms: C13_37  and  O2_38 
REMARK   18  A    between atoms: C14_40  and  N8_41 
REMARK   19  A    between atoms: C16_46  and  N9_47 
REMARK   20  A    between atoms: C17_51  and  O3_52 
ROOT
HETATM    1  C6  UNL     1      35.215  51.725  17.313  1.00  0.00     0.132 C 
HETATM    2  C7  UNL     1      34.867  50.571  16.579  1.00  0.00     0.134 C 
HETATM    3  C10 UNL     1      35.646  51.019  15.364  1.00  0.00     0.238 C 
HETATM    4  C11 UNL     1      36.587  51.755  16.250  1.00  0.00     0.179 C 
ENDROOT
BRANCH   4   5
HETATM    5  O1  UNL     1      36.907  52.955  16.103  1.00  0.00    -0.371 OA
BRANCH   5   6
HETATM    6  C12 UNL     1      37.247  54.138  15.982  1.00  0.00     0.183 C 
HETATM    7  C13 UNL     1      37.886  54.820  17.153  1.00  0.00     0.180 C 
HETATM    8  C14 UNL     1      38.162  56.271  16.886  1.00  0.00     0.216 C 
HETATM    9  C15 UNL     1      37.847  56.727  15.524  1.00  0.00     0.071 C 
HETATM   10  C16 UNL     1      36.411  56.397  15.151  1.00  0.00     0.216 C 
HETATM   11  C17 UNL     1      35.969  55.021  15.580  1.00  0.00     0.180 C 
BRANCH   7  12
HETATM   12  O2  UNL     1      37.042  54.726  18.300  1.00  0.00    -0.391 OA
ATOM     13  H2  UNL     1      37.252  55.414  18.920  1.00  0.00     0.210 HD
ENDBRANCH   7  12
BRANCH   8  14
HETATM   14  N8  UNL     1      37.537  57.113  17.884  1.00  0.00    -0.072 N 
ATOM     15  H83 UNL     1      36.519  57.061  17.835  1.00  0.00     0.274 HD
ATOM     16  H82 UNL     1      37.667  56.741  18.825  1.00  0.00     0.274 HD
ATOM     17  H81 UNL     1      37.867  58.075  17.811  1.00  0.00     0.274 HD
ENDBRANCH   8  14
BRANCH  10  18
HETATM   18  N9  UNL     1      36.267  56.551  13.677  1.00  0.00    -0.072 N 
ATOM     19  H93 UNL     1      35.356  56.923  13.408  1.00  0.00     0.274 HD
ATOM     20  H92 UNL     1      36.840  57.306  13.302  1.00  0.00     0.274 HD
ATOM     21  H91 UNL     1      36.468  55.650  13.242  1.00  0.00     0.274 HD
ENDBRANCH  10  18
BRANCH  11  22
HETATM   22  O3  UNL     1      35.128  55.040  16.613  1.00  0.00    -0.391 OA
ATOM     23  H3  UNL     1      34.250  55.190  16.283  1.00  0.00     0.210 HD
ENDBRANCH  11  22
ENDBRANCH   5   6
ENDBRANCH   4   5
BRANCH   1  24
HETATM   24  N4  UNL     1      35.754  51.815  18.586  1.00  0.00    -0.405 N 
ATOM     25  H4  UNL     1      36.749  52.036  18.619  1.00  0.00     0.154 HD
BRANCH  24  26
HETATM   26  C4  UNL     1      35.168  51.657  19.778  1.00  0.00     0.128 C 
BRANCH  26  27
HETATM   27  C3  UNL     1      33.639  51.771  19.689  1.00  0.00     0.258 C 
BRANCH  27  28
HETATM   28  N2  UNL     1      32.956  50.763  20.406  1.00  0.00    -0.072 N 
ATOM     29  H22 UNL     1      33.598  50.102  20.844  1.00  0.00     0.277 HD
ATOM     30  H21 UNL     1      32.474  50.113  19.785  1.00  0.00     0.277 HD
BRANCH  28  31
HETATM   31  C2  UNL     1      32.051  51.365  21.372  1.00  0.00     0.259 C 
BRANCH  31  32
HETATM   32  C1  UNL     1      32.740  52.053  22.507  1.00  0.00     0.257 C 
BRANCH  32  33
HETATM   33  N1  UNL     1      33.037  51.188  23.611  1.00  0.00    -0.078 N 
ATOM     34  H13 UNL     1      32.827  51.650  24.496  1.00  0.00     0.274 HD
ATOM     35  H12 UNL     1      32.369  50.420  23.656  1.00  0.00     0.274 HD
ATOM     36  H11 UNL     1      33.993  50.833  23.609  1.00  0.00     0.274 HD
ENDBRANCH  32  33
ENDBRANCH  31  32
ENDBRANCH  28  31
ENDBRANCH  27  28
ENDBRANCH  26  27
BRANCH  26  37
HETATM   37  C5  UNL     1      35.513  50.326  20.499  1.00  0.00     0.256 C 
BRANCH  37  38
HETATM   38  N3  UNL     1      36.030  50.434  21.776  1.00  0.00    -0.077 N 
ATOM     39  H33 UNL     1      35.273  50.395  22.458  1.00  0.00     0.274 HD
ATOM     40  H32 UNL     1      36.538  49.582  22.014  1.00  0.00     0.274 HD
ATOM     41  H31 UNL     1      36.617  51.246  21.962  1.00  0.00     0.274 HD
ENDBRANCH  37  38
ENDBRANCH  26  37
ENDBRANCH  24  26
ENDBRANCH   1  24
BRANCH   3  42
HETATM   42  N7  UNL     1      34.786  51.799  14.511  1.00  0.00    -0.070 N 
ATOM     43  H73 UNL     1      34.641  51.360  13.602  1.00  0.00     0.274 HD
ATOM     44  H72 UNL     1      33.817  51.795  14.830  1.00  0.00     0.274 HD
ATOM     45  H71 UNL     1      35.162  52.744  14.429  1.00  0.00     0.274 HD
ENDBRANCH   3  42
BRANCH   2  46
HETATM   46  N5  UNL     1      34.946  49.198  16.767  1.00  0.00    -0.411 N 
ATOM     47  H5  UNL     1      35.811  48.679  16.614  1.00  0.00     0.153 HD
BRANCH  46  48
HETATM   48  C8  UNL     1      33.758  48.565  17.182  1.00  0.00     0.141 C 
BRANCH  48  49
HETATM   49  C9  UNL     1      34.095  47.959  18.574  1.00  0.00     0.248 C 
BRANCH  49  50
HETATM   50  N6  UNL     1      35.332  47.211  18.428  1.00  0.00    -0.078 N 
ATOM     51  H63 UNL     1      35.184  46.205  18.351  1.00  0.00     0.274 HD
ATOM     52  H62 UNL     1      35.776  47.347  17.519  1.00  0.00     0.274 HD
ATOM     53  H61 UNL     1      35.934  47.468  19.210  1.00  0.00     0.274 HD
ENDBRANCH  49  50
ENDBRANCH  48  49
ENDBRANCH  46  48
ENDBRANCH   2  46
TORSDOF 20
ENDMDL
