MODEL 1
REMARK VINA RESULT: -7.294142359      0.000      0.000
REMARK  22 active torsions:
REMARK  status: ('A' for Active; 'I' for Inactive)
REMARK    1  A    between atoms: N1_1  and  N2_4 
REMARK    2  A    between atoms: N2_4  and  C1_5 
REMARK    3  A    between atoms: C2_6  and  N3_7 
REMARK    4  A    between atoms: C3_11  and  N4_12 
REMARK    5  A    between atoms: C4_16  and  O1_17 
REMARK    6  A    between atoms: C5_19  and  N5_20 
REMARK    7  A    between atoms: C6_24  and  N6_25 
REMARK    8  A    between atoms: N6_25  and  C7_28 
REMARK    9  A    between atoms: C7_28  and  C8_29 
REMARK   10  A    between atoms: C8_29  and  C9_30 
REMARK   11  A    between atoms: C9_30  and  C10_31 
REMARK   12  A    between atoms: C10_31  and  N7_32 
REMARK   13  A    between atoms: N7_32  and  C11_35 
REMARK   14  A    between atoms: C11_35  and  C12_36 
REMARK   15  A    between atoms: C12_36  and  C13_37 
REMARK   16  A    between atoms: C13_37  and  C14_38 
REMARK   17  A    between atoms: C13_37  and  C15_41 
REMARK   18  A    between atoms: C13_37  and  C16_44 
REMARK   19  A    between atoms: C14_38  and  O2_39 
REMARK   20  A    between atoms: C15_41  and  O3_42 
REMARK   21  A    between atoms: C16_44  and  O4_45 
REMARK   22  A    between atoms: C17_47  and  O5_48 
ROOT
HETATM    1  C1  UNL     1      36.082  55.587  16.407  1.00  0.00     0.162 C 
HETATM    2  C2  UNL     1      37.442  56.100  16.708  1.00  0.00     0.239 C 
HETATM    3  C3  UNL     1      38.602  55.387  16.140  1.00  0.00     0.246 C 
HETATM    4  C4  UNL     1      38.900  54.016  16.469  1.00  0.00     0.183 C 
HETATM    5  C5  UNL     1      37.963  53.142  17.177  1.00  0.00     0.247 C 
HETATM    6  C6  UNL     1      36.540  53.121  16.783  1.00  0.00     0.248 C 
HETATM    7  C17 UNL     1      35.744  54.335  17.112  1.00  0.00     0.174 C 
ENDROOT
BRANCH   6   8
HETATM    8  N6  UNL     1      36.221  52.536  15.517  1.00  0.00    -0.066 N 
ATOM      9  H62 UNL     1      35.419  53.005  15.097  1.00  0.00     0.277 HD
ATOM     10  H61 UNL     1      36.936  52.766  14.826  1.00  0.00     0.277 HD
BRANCH   8  11
HETATM   11  C7  UNL     1      36.006  51.101  15.568  1.00  0.00     0.233 C 
BRANCH  11  12
HETATM   12  C8  UNL     1      34.948  50.738  16.585  1.00  0.00     0.029 C 
BRANCH  12  13
HETATM   13  C9  UNL     1      34.421  49.342  16.365  1.00  0.00     0.029 C 
BRANCH  13  14
HETATM   14  C10 UNL     1      33.638  48.827  17.537  1.00  0.00     0.232 C 
BRANCH  14  15
HETATM   15  N7  UNL     1      34.480  48.108  18.441  1.00  0.00    -0.075 N 
ATOM     16  H72 UNL     1      34.293  47.107  18.380  1.00  0.00     0.277 HD
ATOM     17  H71 UNL     1      35.446  48.126  18.116  1.00  0.00     0.277 HD
BRANCH  15  18
HETATM   18  C11 UNL     1      34.402  48.553  19.819  1.00  0.00     0.233 C 
BRANCH  18  19
HETATM   19  C12 UNL     1      33.564  49.770  19.951  1.00  0.00     0.043 C 
BRANCH  19  20
HETATM   20  C13 UNL     1      34.087  50.877  20.801  1.00  0.00     0.025 C 
BRANCH  20  21
HETATM   21  C14 UNL     1      35.553  50.533  21.088  1.00  0.00     0.177 C 
BRANCH  21  22
HETATM   22  O2  UNL     1      36.426  51.544  20.823  1.00  0.00    -0.400 OA
ATOM     23  H2  UNL     1      36.589  52.120  21.560  1.00  0.00     0.209 HD
ENDBRANCH  21  22
ENDBRANCH  20  21
BRANCH  20  24
HETATM   24  C15 UNL     1      34.071  52.218  20.122  1.00  0.00     0.177 C 
BRANCH  24  25
HETATM   25  O3  UNL     1      34.008  53.310  20.939  1.00  0.00    -0.400 OA
ATOM     26  H3  UNL     1      34.820  53.575  21.354  1.00  0.00     0.209 HD
ENDBRANCH  24  25
ENDBRANCH  20  24
BRANCH  20  27
HETATM   27  C16 UNL     1      33.344  50.996  22.112  1.00  0.00     0.177 C 
BRANCH  27  28
HETATM   28  O4  UNL     1      34.154  51.260  23.185  1.00  0.00    -0.400 OA
ATOM     29  H4  UNL     1      34.581  50.489  23.540  1.00  0.00     0.209 HD
ENDBRANCH  27  28
ENDBRANCH  20  27
ENDBRANCH  19  20
ENDBRANCH  18  19
ENDBRANCH  15  18
ENDBRANCH  14  15
ENDBRANCH  13  14
ENDBRANCH  12  13
ENDBRANCH  11  12
ENDBRANCH   8  11
ENDBRANCH   6   8
BRANCH   5  30
HETATM   30  N5  UNL     1      38.083  53.336  18.617  1.00  0.00    -0.070 N 
ATOM     31  H53 UNL     1      38.975  52.993  18.975  1.00  0.00     0.274 HD
ATOM     32  H52 UNL     1      38.192  54.320  18.861  1.00  0.00     0.274 HD
ATOM     33  H51 UNL     1      37.291  52.909  19.097  1.00  0.00     0.274 HD
ENDBRANCH   5  30
BRANCH   7  34
HETATM   34  O5  UNL     1      34.400  54.031  16.785  1.00  0.00    -0.392 OA
ATOM     35  H5  UNL     1      33.856  54.462  17.434  1.00  0.00     0.210 HD
ENDBRANCH   7  34
BRANCH   4  36
HETATM   36  O1  UNL     1      39.308  53.346  15.284  1.00  0.00    -0.391 OA
ATOM     37  H1  UNL     1      40.253  53.413  15.208  1.00  0.00     0.210 HD
ENDBRANCH   4  36
BRANCH   1  38
HETATM   38  N2  UNL     1      35.715  55.609  15.005  1.00  0.00    -0.139 NA
BRANCH  38  39
HETATM   39  N1  UNL     1      35.191  56.891  14.696  1.00  0.00    -0.348 N 
ATOM     40  H12 UNL     1      35.410  57.749  15.202  1.00  0.00     0.172 HD
ATOM     41  H11 UNL     1      34.567  56.801  13.893  1.00  0.00     0.172 HD
ENDBRANCH  38  39
ENDBRANCH   1  38
BRANCH   3  42
HETATM   42  N4  UNL     1      38.551  55.598  14.676  1.00  0.00    -0.070 N 
ATOM     43  H43 UNL     1      38.631  56.579  14.408  1.00  0.00     0.274 HD
ATOM     44  H42 UNL     1      39.386  55.265  14.193  1.00  0.00     0.274 HD
ATOM     45  H41 UNL     1      37.692  55.158  14.348  1.00  0.00     0.274 HD
ENDBRANCH   3  42
BRANCH   2  46
HETATM   46  N3  UNL     1      37.539  56.376  18.129  1.00  0.00    -0.071 N 
ATOM     47  H33 UNL     1      37.377  57.360  18.346  1.00  0.00     0.274 HD
ATOM     48  H32 UNL     1      36.758  55.985  18.655  1.00  0.00     0.274 HD
ATOM     49  H31 UNL     1      38.441  56.046  18.470  1.00  0.00     0.274 HD
ENDBRANCH   2  46
TORSDOF 22
ENDMDL
MODEL 2
REMARK VINA RESULT: -7.277489283      0.083      1.287
REMARK  22 active torsions:
REMARK  status: ('A' for Active; 'I' for Inactive)
REMARK    1  A    between atoms: N1_1  and  N2_4 
REMARK    2  A    between atoms: N2_4  and  C1_5 
REMARK    3  A    between atoms: C2_6  and  N3_7 
REMARK    4  A    between atoms: C3_11  and  N4_12 
REMARK    5  A    between atoms: C4_16  and  O1_17 
REMARK    6  A    between atoms: C5_19  and  N5_20 
REMARK    7  A    between atoms: C6_24  and  N6_25 
REMARK    8  A    between atoms: N6_25  and  C7_28 
REMARK    9  A    between atoms: C7_28  and  C8_29 
REMARK   10  A    between atoms: C8_29  and  C9_30 
REMARK   11  A    between atoms: C9_30  and  C10_31 
REMARK   12  A    between atoms: C10_31  and  N7_32 
REMARK   13  A    between atoms: N7_32  and  C11_35 
REMARK   14  A    between atoms: C11_35  and  C12_36 
REMARK   15  A    between atoms: C12_36  and  C13_37 
REMARK   16  A    between atoms: C13_37  and  C14_38 
REMARK   17  A    between atoms: C13_37  and  C15_41 
REMARK   18  A    between atoms: C13_37  and  C16_44 
REMARK   19  A    between atoms: C14_38  and  O2_39 
REMARK   20  A    between atoms: C15_41  and  O3_42 
REMARK   21  A    between atoms: C16_44  and  O4_45 
REMARK   22  A    between atoms: C17_47  and  O5_48 
ROOT
HETATM    1  C1  UNL     1      36.095  55.573  16.387  1.00  0.00     0.162 C 
HETATM    2  C2  UNL     1      37.456  56.088  16.682  1.00  0.00     0.239 C 
HETATM    3  C3  UNL     1      38.615  55.371  16.117  1.00  0.00     0.246 C 
HETATM    4  C4  UNL     1      38.914  54.002  16.456  1.00  0.00     0.183 C 
HETATM    5  C5  UNL     1      37.977  53.133  17.173  1.00  0.00     0.247 C 
HETATM    6  C6  UNL     1      36.553  53.110  16.782  1.00  0.00     0.248 C 
HETATM    7  C17 UNL     1      35.758  54.326  17.103  1.00  0.00     0.174 C 
ENDROOT
BRANCH   6   8
HETATM    8  N6  UNL     1      36.233  52.515  15.520  1.00  0.00    -0.066 N 
ATOM      9  H62 UNL     1      35.430  52.981  15.098  1.00  0.00     0.277 HD
ATOM     10  H61 UNL     1      36.946  52.739  14.827  1.00  0.00     0.277 HD
BRANCH   8  11
HETATM   11  C7  UNL     1      36.015  51.081  15.584  1.00  0.00     0.233 C 
BRANCH  11  12
HETATM   12  C8  UNL     1      34.962  50.727  16.609  1.00  0.00     0.029 C 
BRANCH  12  13
HETATM   13  C9  UNL     1      34.419  49.336  16.392  1.00  0.00     0.029 C 
BRANCH  13  14
HETATM   14  C10 UNL     1      33.663  48.818  17.580  1.00  0.00     0.232 C 
BRANCH  14  15
HETATM   15  N7  UNL     1      34.533  48.126  18.479  1.00  0.00    -0.075 N 
ATOM     16  H72 UNL     1      34.379  47.119  18.417  1.00  0.00     0.277 HD
ATOM     17  H71 UNL     1      35.497  48.176  18.150  1.00  0.00     0.277 HD
BRANCH  15  18
HETATM   18  C11 UNL     1      34.447  48.565  19.858  1.00  0.00     0.233 C 
BRANCH  18  19
HETATM   19  C12 UNL     1      33.618  49.789  19.988  1.00  0.00     0.043 C 
BRANCH  19  20
HETATM   20  C13 UNL     1      34.110  50.861  20.899  1.00  0.00     0.025 C 
BRANCH  20  21
HETATM   21  C14 UNL     1      33.947  52.176  20.129  1.00  0.00     0.177 C 
BRANCH  21  22
HETATM   22  O2  UNL     1      34.018  53.291  20.908  1.00  0.00    -0.400 OA
ATOM     23  H2  UNL     1      33.239  53.834  20.883  1.00  0.00     0.209 HD
ENDBRANCH  21  22
ENDBRANCH  20  21
BRANCH  20  24
HETATM   24  C15 UNL     1      33.314  50.988  22.168  1.00  0.00     0.177 C 
BRANCH  24  25
HETATM   25  O3  UNL     1      34.005  51.373  23.281  1.00  0.00    -0.400 OA
ATOM     26  H3  UNL     1      33.534  51.333  24.105  1.00  0.00     0.209 HD
ENDBRANCH  24  25
ENDBRANCH  20  24
BRANCH  20  27
HETATM   27  C16 UNL     1      35.566  50.682  21.264  1.00  0.00     0.177 C 
BRANCH  27  28
HETATM   28  O4  UNL     1      36.407  51.559  20.630  1.00  0.00    -0.400 OA
ATOM     29  H4  UNL     1      37.242  51.673  21.068  1.00  0.00     0.209 HD
ENDBRANCH  27  28
ENDBRANCH  20  27
ENDBRANCH  19  20
ENDBRANCH  18  19
ENDBRANCH  15  18
ENDBRANCH  14  15
ENDBRANCH  13  14
ENDBRANCH  12  13
ENDBRANCH  11  12
ENDBRANCH   8  11
ENDBRANCH   6   8
BRANCH   5  30
HETATM   30  N5  UNL     1      38.100  53.338  18.612  1.00  0.00    -0.070 N 
ATOM     31  H53 UNL     1      37.805  54.274  18.890  1.00  0.00     0.274 HD
ATOM     32  H52 UNL     1      37.408  52.801  19.133  1.00  0.00     0.274 HD
ATOM     33  H51 UNL     1      39.051  53.133  18.916  1.00  0.00     0.274 HD
ENDBRANCH   5  30
BRANCH   7  34
HETATM   34  O5  UNL     1      34.414  54.021  16.780  1.00  0.00    -0.392 OA
ATOM     35  H5  UNL     1      33.870  54.485  17.405  1.00  0.00     0.210 HD
ENDBRANCH   7  34
BRANCH   4  36
HETATM   36  O1  UNL     1      39.319  53.322  15.276  1.00  0.00    -0.391 OA
ATOM     37  H1  UNL     1      40.263  53.400  15.192  1.00  0.00     0.210 HD
ENDBRANCH   4  36
BRANCH   1  38
HETATM   38  N2  UNL     1      35.727  55.584  14.985  1.00  0.00    -0.139 NA
BRANCH  38  39
HETATM   39  N1  UNL     1      35.205  56.865  14.667  1.00  0.00    -0.348 N 
ATOM     40  H12 UNL     1      35.631  57.752  14.933  1.00  0.00     0.172 HD
ATOM     41  H11 UNL     1      34.344  56.741  14.134  1.00  0.00     0.172 HD
ENDBRANCH  38  39
ENDBRANCH   1  38
BRANCH   3  42
HETATM   42  N4  UNL     1      38.562  55.569  14.653  1.00  0.00    -0.070 N 
ATOM     43  H43 UNL     1      37.631  55.808  14.312  1.00  0.00     0.274 HD
ATOM     44  H42 UNL     1      39.033  56.421  14.345  1.00  0.00     0.274 HD
ATOM     45  H41 UNL     1      38.942  54.723  14.230  1.00  0.00     0.274 HD
ENDBRANCH   3  42
BRANCH   2  46
HETATM   46  N3  UNL     1      37.555  56.375  18.101  1.00  0.00    -0.071 N 
ATOM     47  H33 UNL     1      36.848  55.883  18.647  1.00  0.00     0.274 HD
ATOM     48  H32 UNL     1      38.381  55.954  18.526  1.00  0.00     0.274 HD
ATOM     49  H31 UNL     1      37.520  57.385  18.238  1.00  0.00     0.274 HD
ENDBRANCH   2  46
TORSDOF 22
ENDMDL
MODEL 3
REMARK VINA RESULT: -6.992106600      1.515      1.911
REMARK  22 active torsions:
REMARK  status: ('A' for Active; 'I' for Inactive)
REMARK    1  A    between atoms: N1_1  and  N2_4 
REMARK    2  A    between atoms: N2_4  and  C1_5 
REMARK    3  A    between atoms: C2_6  and  N3_7 
REMARK    4  A    between atoms: C3_11  and  N4_12 
REMARK    5  A    between atoms: C4_16  and  O1_17 
REMARK    6  A    between atoms: C5_19  and  N5_20 
REMARK    7  A    between atoms: C6_24  and  N6_25 
REMARK    8  A    between atoms: N6_25  and  C7_28 
REMARK    9  A    between atoms: C7_28  and  C8_29 
REMARK   10  A    between atoms: C8_29  and  C9_30 
REMARK   11  A    between atoms: C9_30  and  C10_31 
REMARK   12  A    between atoms: C10_31  and  N7_32 
REMARK   13  A    between atoms: N7_32  and  C11_35 
REMARK   14  A    between atoms: C11_35  and  C12_36 
REMARK   15  A    between atoms: C12_36  and  C13_37 
REMARK   16  A    between atoms: C13_37  and  C14_38 
REMARK   17  A    between atoms: C13_37  and  C15_41 
REMARK   18  A    between atoms: C13_37  and  C16_44 
REMARK   19  A    between atoms: C14_38  and  O2_39 
REMARK   20  A    between atoms: C15_41  and  O3_42 
REMARK   21  A    between atoms: C16_44  and  O4_45 
REMARK   22  A    between atoms: C17_47  and  O5_48 
ROOT
HETATM    1  C1  UNL     1      37.294  55.316  14.588  1.00  0.00     0.162 C 
HETATM    2  C2  UNL     1      37.859  55.753  15.890  1.00  0.00     0.239 C 
HETATM    3  C3  UNL     1      38.168  54.724  16.900  1.00  0.00     0.246 C 
HETATM    4  C4  UNL     1      37.153  53.877  17.473  1.00  0.00     0.183 C 
HETATM    5  C5  UNL     1      35.794  53.781  16.934  1.00  0.00     0.247 C 
HETATM    6  C6  UNL     1      35.591  53.660  15.477  1.00  0.00     0.248 C 
HETATM    7  C17 UNL     1      35.888  54.870  14.664  1.00  0.00     0.174 C 
ENDROOT
BRANCH   6   8
HETATM    8  N6  UNL     1      35.985  52.429  14.862  1.00  0.00    -0.066 N 
ATOM      9  H62 UNL     1      36.285  52.588  13.900  1.00  0.00     0.277 HD
ATOM     10  H61 UNL     1      36.863  52.094  15.262  1.00  0.00     0.277 HD
BRANCH   8  11
HETATM   11  C7  UNL     1      34.971  51.391  14.917  1.00  0.00     0.233 C 
BRANCH  11  12
HETATM   12  C8  UNL     1      35.287  50.367  15.983  1.00  0.00     0.029 C 
BRANCH  12  13
HETATM   13  C9  UNL     1      34.055  49.601  16.399  1.00  0.00     0.029 C 
BRANCH  13  14
HETATM   14  C10 UNL     1      34.383  48.309  17.088  1.00  0.00     0.232 C 
BRANCH  14  15
HETATM   15  N7  UNL     1      34.353  48.464  18.509  1.00  0.00    -0.075 N 
ATOM     16  H72 UNL     1      34.268  47.555  18.964  1.00  0.00     0.277 HD
ATOM     17  H71 UNL     1      35.269  48.748  18.855  1.00  0.00     0.277 HD
BRANCH  15  18
HETATM   18  C11 UNL     1      33.328  49.368  18.995  1.00  0.00     0.233 C 
BRANCH  18  19
HETATM   19  C12 UNL     1      33.301  49.413  20.477  1.00  0.00     0.043 C 
BRANCH  19  20
HETATM   20  C13 UNL     1      33.894  50.608  21.142  1.00  0.00     0.025 C 
BRANCH  20  21
HETATM   21  C14 UNL     1      35.344  50.233  21.468  1.00  0.00     0.177 C 
BRANCH  21  22
HETATM   22  O2  UNL     1      36.258  51.177  21.111  1.00  0.00    -0.400 OA
ATOM     23  H2  UNL     1      36.126  51.537  20.241  1.00  0.00     0.209 HD
ENDBRANCH  21  22
ENDBRANCH  20  21
BRANCH  20  24
HETATM   24  C15 UNL     1      33.937  51.827  20.265  1.00  0.00     0.177 C 
BRANCH  24  25
HETATM   25  O3  UNL     1      33.883  53.034  20.902  1.00  0.00    -0.400 OA
ATOM     26  H3  UNL     1      33.438  53.049  21.741  1.00  0.00     0.209 HD
ENDBRANCH  24  25
ENDBRANCH  20  24
BRANCH  20  27
HETATM   27  C16 UNL     1      33.178  50.966  22.425  1.00  0.00     0.177 C 
BRANCH  27  28
HETATM   28  O4  UNL     1      34.016  51.373  23.430  1.00  0.00    -0.400 OA
ATOM     29  H4  UNL     1      34.423  52.216  23.272  1.00  0.00     0.209 HD
ENDBRANCH  27  28
ENDBRANCH  20  27
ENDBRANCH  19  20
ENDBRANCH  18  19
ENDBRANCH  15  18
ENDBRANCH  14  15
ENDBRANCH  13  14
ENDBRANCH  12  13
ENDBRANCH  11  12
ENDBRANCH   8  11
ENDBRANCH   6   8
BRANCH   5  30
HETATM   30  N5  UNL     1      34.963  54.852  17.470  1.00  0.00    -0.070 N 
ATOM     31  H53 UNL     1      34.030  54.853  17.060  1.00  0.00     0.274 HD
ATOM     32  H52 UNL     1      34.700  54.681  18.441  1.00  0.00     0.274 HD
ATOM     33  H51 UNL     1      35.430  55.751  17.355  1.00  0.00     0.274 HD
ENDBRANCH   5  30
BRANCH   7  34
HETATM   34  O5  UNL     1      35.483  54.572  13.341  1.00  0.00    -0.392 OA
ATOM     35  H5  UNL     1      34.931  53.801  13.390  1.00  0.00     0.210 HD
ENDBRANCH   7  34
BRANCH   4  36
HETATM   36  O1  UNL     1      37.672  52.558  17.579  1.00  0.00    -0.391 OA
ATOM     37  H1  UNL     1      37.012  52.005  17.982  1.00  0.00     0.210 HD
ENDBRANCH   4  36
BRANCH   1  38
HETATM   38  N2  UNL     1      38.159  54.457  13.803  1.00  0.00    -0.139 NA
BRANCH  38  39
HETATM   39  N1  UNL     1      38.520  55.147  12.615  1.00  0.00    -0.348 N 
ATOM     40  H12 UNL     1      38.461  54.759  11.674  1.00  0.00     0.172 HD
ATOM     41  H11 UNL     1      38.842  56.081  12.869  1.00  0.00     0.172 HD
ENDBRANCH  38  39
ENDBRANCH   1  38
BRANCH   3  42
HETATM   42  N4  UNL     1      39.299  53.934  16.367  1.00  0.00    -0.070 N 
ATOM     43  H43 UNL     1      39.808  54.411  15.623  1.00  0.00     0.274 HD
ATOM     44  H42 UNL     1      40.077  53.852  17.022  1.00  0.00     0.274 HD
ATOM     45  H41 UNL     1      38.917  53.034  16.081  1.00  0.00     0.274 HD
ENDBRANCH   3  42
BRANCH   2  46
HETATM   46  N3  UNL     1      37.086  56.876  16.386  1.00  0.00    -0.071 N 
ATOM     47  H33 UNL     1      36.839  57.535  15.648  1.00  0.00     0.274 HD
ATOM     48  H32 UNL     1      36.141  56.607  16.659  1.00  0.00     0.274 HD
ATOM     49  H31 UNL     1      37.598  57.320  17.148  1.00  0.00     0.274 HD
ENDBRANCH   2  46
TORSDOF 22
ENDMDL
MODEL 4
REMARK VINA RESULT: -6.959225918      1.625      2.231
REMARK  22 active torsions:
REMARK  status: ('A' for Active; 'I' for Inactive)
REMARK    1  A    between atoms: N1_1  and  N2_4 
REMARK    2  A    between atoms: N2_4  and  C1_5 
REMARK    3  A    between atoms: C2_6  and  N3_7 
REMARK    4  A    between atoms: C3_11  and  N4_12 
REMARK    5  A    between atoms: C4_16  and  O1_17 
REMARK    6  A    between atoms: C5_19  and  N5_20 
REMARK    7  A    between atoms: C6_24  and  N6_25 
REMARK    8  A    between atoms: N6_25  and  C7_28 
REMARK    9  A    between atoms: C7_28  and  C8_29 
REMARK   10  A    between atoms: C8_29  and  C9_30 
REMARK   11  A    between atoms: C9_30  and  C10_31 
REMARK   12  A    between atoms: C10_31  and  N7_32 
REMARK   13  A    between atoms: N7_32  and  C11_35 
REMARK   14  A    between atoms: C11_35  and  C12_36 
REMARK   15  A    between atoms: C12_36  and  C13_37 
REMARK   16  A    between atoms: C13_37  and  C14_38 
REMARK   17  A    between atoms: C13_37  and  C15_41 
REMARK   18  A    between atoms: C13_37  and  C16_44 
REMARK   19  A    between atoms: C14_38  and  O2_39 
REMARK   20  A    between atoms: C15_41  and  O3_42 
REMARK   21  A    between atoms: C16_44  and  O4_45 
REMARK   22  A    between atoms: C17_47  and  O5_48 
ROOT
HETATM    1  C1  UNL     1      37.187  55.278  14.385  1.00  0.00     0.162 C 
HETATM    2  C2  UNL     1      37.679  56.038  15.561  1.00  0.00     0.239 C 
HETATM    3  C3  UNL     1      38.232  55.285  16.702  1.00  0.00     0.246 C 
HETATM    4  C4  UNL     1      37.440  54.354  17.467  1.00  0.00     0.183 C 
HETATM    5  C5  UNL     1      36.121  53.886  17.038  1.00  0.00     0.247 C 
HETATM    6  C6  UNL     1      35.908  53.479  15.635  1.00  0.00     0.248 C 
HETATM    7  C17 UNL     1      35.913  54.568  14.621  1.00  0.00     0.174 C 
ENDROOT
BRANCH   6   8
HETATM    8  N6  UNL     1      36.542  52.271  15.202  1.00  0.00    -0.066 N 
ATOM      9  H62 UNL     1      36.371  52.112  14.209  1.00  0.00     0.277 HD
ATOM     10  H61 UNL     1      37.556  52.385  15.185  1.00  0.00     0.277 HD
BRANCH   8  11
HETATM   11  C7  UNL     1      36.174  51.101  15.979  1.00  0.00     0.233 C 
BRANCH  11  12
HETATM   12  C8  UNL     1      34.790  50.613  15.618  1.00  0.00     0.029 C 
BRANCH  12  13
HETATM   13  C9  UNL     1      34.393  49.411  16.439  1.00  0.00     0.029 C 
BRANCH  13  14
HETATM   14  C10 UNL     1      34.092  49.759  17.867  1.00  0.00     0.232 C 
BRANCH  14  15
HETATM   15  N7  UNL     1      32.824  49.236  18.266  1.00  0.00    -0.075 N 
ATOM     16  H72 UNL     1      32.075  49.669  17.725  1.00  0.00     0.277 HD
ATOM     17  H71 UNL     1      32.726  48.269  17.958  1.00  0.00     0.277 HD
BRANCH  15  18
HETATM   18  C11 UNL     1      32.548  49.343  19.686  1.00  0.00     0.233 C 
BRANCH  18  19
HETATM   19  C12 UNL     1      32.359  50.756  20.097  1.00  0.00     0.043 C 
BRANCH  19  20
HETATM   20  C13 UNL     1      33.284  51.302  21.132  1.00  0.00     0.025 C 
BRANCH  20  21
HETATM   21  C14 UNL     1      34.056  52.437  20.450  1.00  0.00     0.177 C 
BRANCH  21  22
HETATM   22  O2  UNL     1      34.061  53.606  21.149  1.00  0.00    -0.400 OA
ATOM     23  H2  UNL     1      34.057  54.384  20.605  1.00  0.00     0.209 HD
ENDBRANCH  21  22
ENDBRANCH  20  21
BRANCH  20  24
HETATM   24  C15 UNL     1      32.579  51.894  22.319  1.00  0.00     0.177 C 
BRANCH  24  25
HETATM   25  O3  UNL     1      33.298  51.964  23.478  1.00  0.00    -0.400 OA
ATOM     26  H3  UNL     1      32.910  51.550  24.241  1.00  0.00     0.209 HD
ENDBRANCH  24  25
ENDBRANCH  20  24
BRANCH  20  27
HETATM   27  C16 UNL     1      34.267  50.266  21.627  1.00  0.00     0.177 C 
BRANCH  27  28
HETATM   28  O4  UNL     1      35.431  50.798  22.117  1.00  0.00    -0.400 OA
ATOM     29  H4  UNL     1      35.988  50.165  22.554  1.00  0.00     0.209 HD
ENDBRANCH  27  28
ENDBRANCH  20  27
ENDBRANCH  19  20
ENDBRANCH  18  19
ENDBRANCH  15  18
ENDBRANCH  14  15
ENDBRANCH  13  14
ENDBRANCH  12  13
ENDBRANCH  11  12
ENDBRANCH   8  11
ENDBRANCH   6   8
BRANCH   5  30
HETATM   30  N5  UNL     1      35.092  54.836  17.447  1.00  0.00    -0.070 N 
ATOM     31  H53 UNL     1      35.024  54.910  18.462  1.00  0.00     0.274 HD
ATOM     32  H52 UNL     1      35.359  55.798  17.242  1.00  0.00     0.274 HD
ATOM     33  H51 UNL     1      34.198  54.590  17.023  1.00  0.00     0.274 HD
ENDBRANCH   5  30
BRANCH   7  34
HETATM   34  O5  UNL     1      35.546  53.971  13.391  1.00  0.00    -0.392 OA
ATOM     35  H5  UNL     1      34.646  54.223  13.222  1.00  0.00     0.210 HD
ENDBRANCH   7  34
BRANCH   4  36
HETATM   36  O1  UNL     1      38.235  53.210  17.750  1.00  0.00    -0.391 OA
ATOM     37  H1  UNL     1      38.735  53.378  18.540  1.00  0.00     0.210 HD
ENDBRANCH   4  36
BRANCH   1  38
HETATM   38  N2  UNL     1      38.195  54.498  13.694  1.00  0.00    -0.139 NA
BRANCH  38  39
HETATM   39  N1  UNL     1      38.370  55.039  12.394  1.00  0.00    -0.348 N 
ATOM     40  H12 UNL     1      38.955  55.844  12.170  1.00  0.00     0.172 HD
ATOM     41  H11 UNL     1      37.816  54.489  11.737  1.00  0.00     0.172 HD
ENDBRANCH  38  39
ENDBRANCH   1  38
BRANCH   3  42
HETATM   42  N4  UNL     1      39.492  54.669  16.232  1.00  0.00    -0.070 N 
ATOM     43  H43 UNL     1      40.128  55.337  15.796  1.00  0.00     0.274 HD
ATOM     44  H42 UNL     1      40.108  54.383  16.992  1.00  0.00     0.274 HD
ATOM     45  H41 UNL     1      39.229  53.902  15.615  1.00  0.00     0.274 HD
ENDBRANCH   3  42
BRANCH   2  46
HETATM   46  N3  UNL     1      36.695  57.043  15.919  1.00  0.00    -0.071 N 
ATOM     47  H33 UNL     1      37.040  57.993  15.777  1.00  0.00     0.274 HD
ATOM     48  H32 UNL     1      35.915  57.075  15.263  1.00  0.00     0.274 HD
ATOM     49  H31 UNL     1      36.390  56.881  16.879  1.00  0.00     0.274 HD
ENDBRANCH   2  46
TORSDOF 22
ENDMDL
MODEL 5
REMARK VINA RESULT: -6.930199305      1.379      2.242
REMARK  22 active torsions:
REMARK  status: ('A' for Active; 'I' for Inactive)
REMARK    1  A    between atoms: N1_1  and  N2_4 
REMARK    2  A    between atoms: N2_4  and  C1_5 
REMARK    3  A    between atoms: C2_6  and  N3_7 
REMARK    4  A    between atoms: C3_11  and  N4_12 
REMARK    5  A    between atoms: C4_16  and  O1_17 
REMARK    6  A    between atoms: C5_19  and  N5_20 
REMARK    7  A    between atoms: C6_24  and  N6_25 
REMARK    8  A    between atoms: N6_25  and  C7_28 
REMARK    9  A    between atoms: C7_28  and  C8_29 
REMARK   10  A    between atoms: C8_29  and  C9_30 
REMARK   11  A    between atoms: C9_30  and  C10_31 
REMARK   12  A    between atoms: C10_31  and  N7_32 
REMARK   13  A    between atoms: N7_32  and  C11_35 
REMARK   14  A    between atoms: C11_35  and  C12_36 
REMARK   15  A    between atoms: C12_36  and  C13_37 
REMARK   16  A    between atoms: C13_37  and  C14_38 
REMARK   17  A    between atoms: C13_37  and  C15_41 
REMARK   18  A    between atoms: C13_37  and  C16_44 
REMARK   19  A    between atoms: C14_38  and  O2_39 
REMARK   20  A    between atoms: C15_41  and  O3_42 
REMARK   21  A    between atoms: C16_44  and  O4_45 
REMARK   22  A    between atoms: C17_47  and  O5_48 
ROOT
HETATM    1  C1  UNL     1      37.382  54.948  18.090  1.00  0.00     0.162 C 
HETATM    2  C2  UNL     1      37.358  55.912  16.961  1.00  0.00     0.239 C 
HETATM    3  C3  UNL     1      36.578  55.564  15.758  1.00  0.00     0.246 C 
HETATM    4  C4  UNL     1      36.887  54.414  14.946  1.00  0.00     0.183 C 
HETATM    5  C5  UNL     1      37.816  53.363  15.367  1.00  0.00     0.247 C 
HETATM    6  C6  UNL     1      37.744  52.830  16.742  1.00  0.00     0.248 C 
HETATM    7  C17 UNL     1      38.192  53.741  17.831  1.00  0.00     0.174 C 
ENDROOT
BRANCH   6   8
HETATM    8  N6  UNL     1      36.601  52.035  17.075  1.00  0.00    -0.066 N 
ATOM      9  H62 UNL     1      36.721  51.601  17.990  1.00  0.00     0.277 HD
ATOM     10  H61 UNL     1      35.796  52.630  17.272  1.00  0.00     0.277 HD
BRANCH   8  11
HETATM   11  C7  UNL     1      36.266  51.037  16.075  1.00  0.00     0.233 C 
BRANCH  11  12
HETATM   12  C8  UNL     1      34.781  50.756  16.053  1.00  0.00     0.029 C 
BRANCH  12  13
HETATM   13  C9  UNL     1      34.489  49.292  16.269  1.00  0.00     0.029 C 
BRANCH  13  14
HETATM   14  C10 UNL     1      33.740  49.033  17.544  1.00  0.00     0.232 C 
BRANCH  14  15
HETATM   15  N7  UNL     1      34.507  48.217  18.432  1.00  0.00    -0.075 N 
ATOM     16  H72 UNL     1      34.185  47.250  18.393  1.00  0.00     0.277 HD
ATOM     17  H71 UNL     1      35.456  48.099  18.076  1.00  0.00     0.277 HD
BRANCH  15  18
HETATM   18  C11 UNL     1      34.537  48.683  19.804  1.00  0.00     0.233 C 
BRANCH  18  19
HETATM   19  C12 UNL     1      33.525  49.742  20.040  1.00  0.00     0.043 C 
BRANCH  19  20
HETATM   20  C13 UNL     1      33.936  50.919  20.858  1.00  0.00     0.025 C 
BRANCH  20  21
HETATM   21  C14 UNL     1      35.458  50.813  21.014  1.00  0.00     0.177 C 
BRANCH  21  22
HETATM   22  O2  UNL     1      36.154  51.779  20.355  1.00  0.00    -0.400 OA
ATOM     23  H2  UNL     1      36.967  52.031  20.778  1.00  0.00     0.209 HD
ENDBRANCH  21  22
ENDBRANCH  20  21
BRANCH  20  24
HETATM   24  C15 UNL     1      33.648  52.240  20.203  1.00  0.00     0.177 C 
BRANCH  24  25
HETATM   25  O3  UNL     1      33.974  53.356  20.920  1.00  0.00    -0.400 OA
ATOM     26  H3  UNL     1      33.493  53.494  21.727  1.00  0.00     0.209 HD
ENDBRANCH  24  25
ENDBRANCH  20  24
BRANCH  20  27
HETATM   27  C16 UNL     1      33.300  50.916  22.230  1.00  0.00     0.177 C 
BRANCH  27  28
HETATM   28  O4  UNL     1      34.163  51.253  23.240  1.00  0.00    -0.400 OA
ATOM     29  H4  UNL     1      34.375  50.531  23.819  1.00  0.00     0.209 HD
ENDBRANCH  27  28
ENDBRANCH  20  27
ENDBRANCH  19  20
ENDBRANCH  18  19
ENDBRANCH  15  18
ENDBRANCH  14  15
ENDBRANCH  13  14
ENDBRANCH  12  13
ENDBRANCH  11  12
ENDBRANCH   8  11
ENDBRANCH   6   8
BRANCH   5  30
HETATM   30  N5  UNL     1      39.186  53.746  15.047  1.00  0.00    -0.070 N 
ATOM     31  H53 UNL     1      39.537  53.254  14.225  1.00  0.00     0.274 HD
ATOM     32  H52 UNL     1      39.242  54.699  14.689  1.00  0.00     0.274 HD
ATOM     33  H51 UNL     1      39.789  53.608  15.859  1.00  0.00     0.274 HD
ENDBRANCH   5  30
BRANCH   7  34
HETATM   34  O5  UNL     1      38.178  52.977  19.022  1.00  0.00    -0.392 OA
ATOM     35  H5  UNL     1      39.051  52.616  19.127  1.00  0.00     0.210 HD
ENDBRANCH   7  34
BRANCH   4  36
HETATM   36  O1  UNL     1      35.668  53.789  14.567  1.00  0.00    -0.391 OA
ATOM     37  H1  UNL     1      35.850  52.884  14.341  1.00  0.00     0.210 HD
ENDBRANCH   4  36
BRANCH   1  38
HETATM   38  N2  UNL     1      36.094  54.691  18.703  1.00  0.00    -0.139 NA
BRANCH  38  39
HETATM   39  N1  UNL     1      36.181  55.008  20.084  1.00  0.00    -0.348 N 
ATOM     40  H12 UNL     1      36.998  55.415  20.540  1.00  0.00     0.172 HD
ATOM     41  H11 UNL     1      35.298  54.759  20.530  1.00  0.00     0.172 HD
ENDBRANCH  38  39
ENDBRANCH   1  38
BRANCH   3  42
HETATM   42  N4  UNL     1      35.154  55.582  16.158  1.00  0.00    -0.070 N 
ATOM     43  H43 UNL     1      34.941  56.296  16.856  1.00  0.00     0.274 HD
ATOM     44  H42 UNL     1      34.535  55.929  15.426  1.00  0.00     0.274 HD
ATOM     45  H41 UNL     1      34.926  54.637  16.465  1.00  0.00     0.274 HD
ENDBRANCH   3  42
BRANCH   2  46
HETATM   46  N3  UNL     1      38.712  56.361  16.695  1.00  0.00    -0.071 N 
ATOM     47  H33 UNL     1      39.382  55.998  17.373  1.00  0.00     0.274 HD
ATOM     48  H32 UNL     1      39.108  55.929  15.860  1.00  0.00     0.274 HD
ATOM     49  H31 UNL     1      38.721  57.379  16.646  1.00  0.00     0.274 HD
ENDBRANCH   2  46
TORSDOF 22
ENDMDL
