MODEL 1
REMARK VINA RESULT: -7.585237198      0.000      0.000
REMARK  18 active torsions:
REMARK  status: ('A' for Active; 'I' for Inactive)
REMARK    1  A    between atoms: N1_1  and  C1_5 
REMARK    2  A    between atoms: C1_5  and  N2_6 
REMARK    3  A    between atoms: N2_6  and  N3_8 
REMARK    4  A    between atoms: N3_8  and  C2_10 
REMARK    5  A    between atoms: C2_10  and  C3_11 
REMARK    6  A    between atoms: N4_12  and  C4_14 
REMARK    7  A    between atoms: C6_16  and  C7_17 
REMARK    8  A    between atoms: C7_17  and  N5_18 
REMARK    9  A    between atoms: N5_18  and  C8_21 
REMARK   10  A    between atoms: C8_21  and  C9_22 
REMARK   11  A    between atoms: C9_22  and  O1_23 
REMARK   12  A    between atoms: C10_25  and  O2_26 
REMARK   13  A    between atoms: C11_28  and  O3_29 
REMARK   14  A    between atoms: O3_29  and  C12_30 
REMARK   15  A    between atoms: C13_31  and  N6_32 
REMARK   16  A    between atoms: C15_37  and  N7_38 
REMARK   17  A    between atoms: C16_42  and  O4_43 
REMARK   18  A    between atoms: C17_45  and  N8_46 
ROOT
HETATM    1  C4  UNL     1      34.673  51.281  17.642  1.00  0.00     0.112 C 
HETATM    2  C5  UNL     1      34.709  50.502  18.892  1.00  0.00     0.036 C 
HETATM    3  C6  UNL     1      33.709  51.402  19.747  1.00  0.00     0.044 C 
HETATM    4  C10 UNL     1      34.731  52.609  19.669  1.00  0.00     0.154 C 
HETATM    5  C11 UNL     1      34.782  52.824  18.216  1.00  0.00     0.173 C 
ENDROOT
BRANCH   5   6
HETATM    6  O3  UNL     1      35.955  53.377  17.857  1.00  0.00    -0.372 OA
BRANCH   6   7
HETATM    7  C12 UNL     1      36.079  54.623  17.313  1.00  0.00     0.185 C 
HETATM    8  C13 UNL     1      37.477  55.203  17.774  1.00  0.00     0.216 C 
HETATM    9  C14 UNL     1      38.126  56.030  16.773  1.00  0.00     0.070 C 
HETATM   10  C15 UNL     1      38.122  55.518  15.381  1.00  0.00     0.216 C 
HETATM   11  C16 UNL     1      37.220  54.300  15.234  1.00  0.00     0.181 C 
HETATM   12  C17 UNL     1      35.886  54.728  15.904  1.00  0.00     0.244 C 
BRANCH   8  13
HETATM   13  N6  UNL     1      37.119  56.119  18.882  1.00  0.00    -0.072 N 
ATOM     14  H63 UNL     1      36.422  55.749  19.527  1.00  0.00     0.274 HD
ATOM     15  H62 UNL     1      37.852  56.247  19.580  1.00  0.00     0.274 HD
ATOM     16  H61 UNL     1      36.839  56.973  18.400  1.00  0.00     0.274 HD
ENDBRANCH   8  13
BRANCH  10  17
HETATM   17  N7  UNL     1      39.474  55.262  14.893  1.00  0.00    -0.072 N 
ATOM     18  H73 UNL     1      39.855  56.074  14.408  1.00  0.00     0.274 HD
ATOM     19  H72 UNL     1      40.142  55.207  15.662  1.00  0.00     0.274 HD
ATOM     20  H71 UNL     1      39.514  54.428  14.307  1.00  0.00     0.274 HD
ENDBRANCH  10  17
BRANCH  11  21
HETATM   21  O4  UNL     1      37.121  54.000  13.915  1.00  0.00    -0.391 OA
ATOM     22  H4  UNL     1      36.602  53.210  13.827  1.00  0.00     0.210 HD
ENDBRANCH  11  21
BRANCH  12  23
HETATM   23  N8  UNL     1      35.516  56.022  15.342  1.00  0.00    -0.070 N 
ATOM     24  H83 UNL     1      34.735  56.402  15.876  1.00  0.00     0.274 HD
ATOM     25  H82 UNL     1      36.249  56.697  15.557  1.00  0.00     0.274 HD
ATOM     26  H81 UNL     1      35.296  56.079  14.348  1.00  0.00     0.274 HD
ENDBRANCH  12  23
ENDBRANCH   6   7
ENDBRANCH   5   6
BRANCH   1  27
HETATM   27  N4  UNL     1      35.731  51.187  16.702  1.00  0.00    -0.393 N 
HETATM   28  C3  UNL     1      35.535  50.821  15.407  1.00  0.00     0.077 C 
ATOM     29  H4  UNL     1      36.678  51.403  17.010  1.00  0.00     0.159 HD
BRANCH  28  30
HETATM   30  C2  UNL     1      34.791  51.529  14.310  1.00  0.00     0.183 C 
BRANCH  30  31
HETATM   31  N3  UNL     1      35.559  51.269  13.110  1.00  0.00    -0.335 N 
ATOM     32  H3  UNL     1      36.563  51.426  13.207  1.00  0.00     0.180 HD
BRANCH  31  33
HETATM   33  N2  UNL     1      35.176  50.858  11.897  1.00  0.00    -0.315 N 
ATOM     34  H2  UNL     1      34.196  50.936  11.626  1.00  0.00     0.181 HD
BRANCH  33  35
HETATM   35  C1  UNL     1      36.125  50.307  10.967  1.00  0.00     0.368 C 
BRANCH  35  36
HETATM   36  N1  UNL     1      35.277  49.629   9.948  1.00  0.00    -0.062 N 
ATOM     37  H13 UNL     1      34.861  48.753  10.265  1.00  0.00     0.276 HD
ATOM     38  H12 UNL     1      34.396  50.105   9.752  1.00  0.00     0.276 HD
ATOM     39  H11 UNL     1      35.892  49.534   9.141  1.00  0.00     0.276 HD
ENDBRANCH  35  36
ENDBRANCH  33  35
ENDBRANCH  31  33
ENDBRANCH  30  31
ENDBRANCH  28  30
ENDBRANCH   1  27
BRANCH   4  40
HETATM   40  O2  UNL     1      34.600  53.590  20.542  1.00  0.00    -0.392 OA
ATOM     41  H2  UNL     1      35.247  54.285  20.533  1.00  0.00     0.210 HD
ENDBRANCH   4  40
BRANCH   3  42
HETATM   42  C7  UNL     1      33.750  50.913  21.143  1.00  0.00     0.239 C 
BRANCH  42  43
HETATM   43  N5  UNL     1      32.378  50.319  21.390  1.00  0.00    -0.073 N 
ATOM     44  H52 UNL     1      31.906  49.873  20.603  1.00  0.00     0.277 HD
ATOM     45  H51 UNL     1      32.322  49.476  21.961  1.00  0.00     0.277 HD
BRANCH  43  46
HETATM   46  C8  UNL     1      31.751  51.632  21.966  1.00  0.00     0.258 C 
BRANCH  46  47
HETATM   47  C9  UNL     1      32.555  52.162  23.063  1.00  0.00     0.191 C 
BRANCH  47  48
HETATM   48  O1  UNL     1      32.827  53.538  22.754  1.00  0.00    -0.399 OA
ATOM     49  H1  UNL     1      33.172  53.936  23.545  1.00  0.00     0.209 HD
ENDBRANCH  47  48
ENDBRANCH  46  47
ENDBRANCH  43  46
ENDBRANCH  42  43
ENDBRANCH   3  42
TORSDOF 18
ENDMDL
MODEL 2
REMARK VINA RESULT: -7.361527126      1.286      1.436
REMARK  18 active torsions:
REMARK  status: ('A' for Active; 'I' for Inactive)
REMARK    1  A    between atoms: N1_1  and  C1_5 
REMARK    2  A    between atoms: C1_5  and  N2_6 
REMARK    3  A    between atoms: N2_6  and  N3_8 
REMARK    4  A    between atoms: N3_8  and  C2_10 
REMARK    5  A    between atoms: C2_10  and  C3_11 
REMARK    6  A    between atoms: N4_12  and  C4_14 
REMARK    7  A    between atoms: C6_16  and  C7_17 
REMARK    8  A    between atoms: C7_17  and  N5_18 
REMARK    9  A    between atoms: N5_18  and  C8_21 
REMARK   10  A    between atoms: C8_21  and  C9_22 
REMARK   11  A    between atoms: C9_22  and  O1_23 
REMARK   12  A    between atoms: C10_25  and  O2_26 
REMARK   13  A    between atoms: C11_28  and  O3_29 
REMARK   14  A    between atoms: O3_29  and  C12_30 
REMARK   15  A    between atoms: C13_31  and  N6_32 
REMARK   16  A    between atoms: C15_37  and  N7_38 
REMARK   17  A    between atoms: C16_42  and  O4_43 
REMARK   18  A    between atoms: C17_45  and  N8_46 
ROOT
HETATM    1  C4  UNL     1      34.687  51.373  17.981  1.00  0.00     0.112 C 
HETATM    2  C5  UNL     1      34.763  50.826  19.346  1.00  0.00     0.036 C 
HETATM    3  C6  UNL     1      33.781  51.859  20.059  1.00  0.00     0.044 C 
HETATM    4  C10 UNL     1      34.792  53.036  19.741  1.00  0.00     0.154 C 
HETATM    5  C11 UNL     1      34.801  52.994  18.272  1.00  0.00     0.173 C 
ENDROOT
BRANCH   5   6
HETATM    6  O3  UNL     1      35.959  53.478  17.789  1.00  0.00    -0.372 OA
BRANCH   6   7
HETATM    7  C12 UNL     1      36.094  54.709  17.215  1.00  0.00     0.185 C 
HETATM    8  C13 UNL     1      37.515  55.270  17.627  1.00  0.00     0.216 C 
HETATM    9  C14 UNL     1      38.155  56.062  16.592  1.00  0.00     0.070 C 
HETATM   10  C15 UNL     1      38.103  55.521  15.211  1.00  0.00     0.216 C 
HETATM   11  C16 UNL     1      37.173  54.319  15.115  1.00  0.00     0.181 C 
HETATM   12  C17 UNL     1      35.866  54.788  15.809  1.00  0.00     0.244 C 
BRANCH   8  13
HETATM   13  N6  UNL     1      37.205  56.215  18.724  1.00  0.00    -0.072 N 
ATOM     14  H63 UNL     1      36.808  57.103  18.417  1.00  0.00     0.274 HD
ATOM     15  H62 UNL     1      36.414  55.942  19.308  1.00  0.00     0.274 HD
ATOM     16  H61 UNL     1      38.091  56.297  19.222  1.00  0.00     0.274 HD
ENDBRANCH   8  13
BRANCH  10  17
HETATM   17  N7  UNL     1      39.437  55.226  14.695  1.00  0.00    -0.072 N 
ATOM     18  H73 UNL     1      39.801  56.001  14.141  1.00  0.00     0.274 HD
ATOM     19  H72 UNL     1      40.132  55.222  15.442  1.00  0.00     0.274 HD
ATOM     20  H71 UNL     1      39.454  54.353  14.168  1.00  0.00     0.274 HD
ENDBRANCH  10  17
BRANCH  11  21
HETATM   21  O4  UNL     1      37.034  53.993  13.806  1.00  0.00    -0.391 OA
ATOM     22  H4  UNL     1      36.111  53.852  13.630  1.00  0.00     0.210 HD
ENDBRANCH  11  21
BRANCH  12  23
HETATM   23  N8  UNL     1      35.509  56.077  15.229  1.00  0.00    -0.070 N 
ATOM     24  H83 UNL     1      35.919  56.146  14.298  1.00  0.00     0.274 HD
ATOM     25  H82 UNL     1      34.514  56.074  15.006  1.00  0.00     0.274 HD
ATOM     26  H81 UNL     1      35.728  56.926  15.750  1.00  0.00     0.274 HD
ENDBRANCH  12  23
ENDBRANCH   6   7
ENDBRANCH   5   6
BRANCH   1  27
HETATM   27  N4  UNL     1      35.718  51.119  17.042  1.00  0.00    -0.393 N 
HETATM   28  C3  UNL     1      35.472  50.688  15.776  1.00  0.00     0.077 C 
ATOM     29  H4  UNL     1      36.686  51.265  17.328  1.00  0.00     0.159 HD
BRANCH  28  30
HETATM   30  C2  UNL     1      34.784  51.389  14.638  1.00  0.00     0.183 C 
BRANCH  30  31
HETATM   31  N3  UNL     1      35.729  51.340  13.542  1.00  0.00    -0.335 N 
ATOM     32  H3  UNL     1      36.681  51.093  13.814  1.00  0.00     0.180 HD
BRANCH  31  33
HETATM   33  N2  UNL     1      35.565  51.562  12.234  1.00  0.00    -0.315 N 
ATOM     34  H2  UNL     1      35.172  52.449  11.921  1.00  0.00     0.181 HD
BRANCH  33  35
HETATM   35  C1  UNL     1      35.935  50.569  11.262  1.00  0.00     0.368 C 
BRANCH  35  36
HETATM   36  N1  UNL     1      34.681  49.797  11.042  1.00  0.00    -0.062 N 
ATOM     37  H13 UNL     1      34.500  49.080  11.746  1.00  0.00     0.276 HD
ATOM     38  H12 UNL     1      33.826  50.330  11.206  1.00  0.00     0.276 HD
ATOM     39  H11 UNL     1      34.776  49.437  10.093  1.00  0.00     0.276 HD
ENDBRANCH  35  36
ENDBRANCH  33  35
ENDBRANCH  31  33
ENDBRANCH  30  31
ENDBRANCH  28  30
ENDBRANCH   1  27
BRANCH   4  40
HETATM   40  O2  UNL     1      34.678  54.155  20.433  1.00  0.00    -0.392 OA
ATOM     41  H2  UNL     1      34.606  54.971  19.953  1.00  0.00     0.210 HD
ENDBRANCH   4  40
BRANCH   3  42
HETATM   42  C7  UNL     1      33.864  51.623  21.517  1.00  0.00     0.239 C 
BRANCH  42  43
HETATM   43  N5  UNL     1      33.963  50.118  21.664  1.00  0.00    -0.073 N 
ATOM     44  H52 UNL     1      34.574  49.618  21.018  1.00  0.00     0.277 HD
ATOM     45  H51 UNL     1      34.451  49.753  22.481  1.00  0.00     0.277 HD
BRANCH  43  46
HETATM   46  C8  UNL     1      32.424  49.858  21.559  1.00  0.00     0.258 C 
BRANCH  46  47
HETATM   47  C9  UNL     1      32.138  48.742  20.661  1.00  0.00     0.191 C 
BRANCH  47  48
HETATM   48  O1  UNL     1      31.467  49.288  19.516  1.00  0.00    -0.399 OA
ATOM     49  H1  UNL     1      31.583  50.230  19.551  1.00  0.00     0.209 HD
ENDBRANCH  47  48
ENDBRANCH  46  47
ENDBRANCH  43  46
ENDBRANCH  42  43
ENDBRANCH   3  42
TORSDOF 18
ENDMDL
MODEL 3
REMARK VINA RESULT: -7.161514848      2.270      7.696
REMARK  18 active torsions:
REMARK  status: ('A' for Active; 'I' for Inactive)
REMARK    1  A    between atoms: N1_1  and  C1_5 
REMARK    2  A    between atoms: C1_5  and  N2_6 
REMARK    3  A    between atoms: N2_6  and  N3_8 
REMARK    4  A    between atoms: N3_8  and  C2_10 
REMARK    5  A    between atoms: C2_10  and  C3_11 
REMARK    6  A    between atoms: N4_12  and  C4_14 
REMARK    7  A    between atoms: C6_16  and  C7_17 
REMARK    8  A    between atoms: C7_17  and  N5_18 
REMARK    9  A    between atoms: N5_18  and  C8_21 
REMARK   10  A    between atoms: C8_21  and  C9_22 
REMARK   11  A    between atoms: C9_22  and  O1_23 
REMARK   12  A    between atoms: C10_25  and  O2_26 
REMARK   13  A    between atoms: C11_28  and  O3_29 
REMARK   14  A    between atoms: O3_29  and  C12_30 
REMARK   15  A    between atoms: C13_31  and  N6_32 
REMARK   16  A    between atoms: C15_37  and  N7_38 
REMARK   17  A    between atoms: C16_42  and  O4_43 
REMARK   18  A    between atoms: C17_45  and  N8_46 
ROOT
HETATM    1  C4  UNL     1      35.689  52.838  17.080  1.00  0.00     0.112 C 
HETATM    2  C5  UNL     1      36.395  52.368  15.875  1.00  0.00     0.036 C 
HETATM    3  C6  UNL     1      35.132  51.816  15.075  1.00  0.00     0.044 C 
HETATM    4  C10 UNL     1      34.902  50.722  16.198  1.00  0.00     0.154 C 
HETATM    5  C11 UNL     1      34.657  51.582  17.364  1.00  0.00     0.173 C 
ENDROOT
BRANCH   5   6
HETATM    6  O3  UNL     1      34.992  50.948  18.502  1.00  0.00    -0.372 OA
BRANCH   6   7
HETATM    7  C12 UNL     1      34.242  49.962  19.077  1.00  0.00     0.185 C 
HETATM    8  C13 UNL     1      34.933  49.582  20.449  1.00  0.00     0.216 C 
HETATM    9  C14 UNL     1      33.994  49.229  21.499  1.00  0.00     0.070 C 
HETATM   10  C15 UNL     1      32.805  50.102  21.651  1.00  0.00     0.216 C 
HETATM   11  C16 UNL     1      32.687  51.094  20.502  1.00  0.00     0.181 C 
HETATM   12  C17 UNL     1      32.847  50.224  19.226  1.00  0.00     0.244 C 
BRANCH   8  13
HETATM   13  N6  UNL     1      35.666  48.336  20.129  1.00  0.00    -0.072 N 
ATOM     14  H63 UNL     1      35.104  47.487  20.185  1.00  0.00     0.274 HD
ATOM     15  H62 UNL     1      35.915  48.232  19.144  1.00  0.00     0.274 HD
ATOM     16  H61 UNL     1      36.462  48.360  20.766  1.00  0.00     0.274 HD
ENDBRANCH   8  13
BRANCH  10  17
HETATM   17  N7  UNL     1      32.782  50.764  22.952  1.00  0.00    -0.072 N 
ATOM     18  H73 UNL     1      32.425  50.144  23.679  1.00  0.00     0.274 HD
ATOM     19  H72 UNL     1      33.725  50.907  23.313  1.00  0.00     0.274 HD
ATOM     20  H71 UNL     1      32.259  51.639  22.923  1.00  0.00     0.274 HD
ENDBRANCH  10  17
BRANCH  11  21
HETATM   21  O4  UNL     1      31.493  51.729  20.608  1.00  0.00    -0.391 OA
ATOM     22  H4  UNL     1      30.938  51.442  19.893  1.00  0.00     0.210 HD
ENDBRANCH  11  21
BRANCH  12  23
HETATM   23  N8  UNL     1      31.933  49.095  19.355  1.00  0.00    -0.070 N 
ATOM     24  H83 UNL     1      32.203  48.544  20.170  1.00  0.00     0.274 HD
ATOM     25  H82 UNL     1      31.019  49.442  19.646  1.00  0.00     0.274 HD
ATOM     26  H81 UNL     1      31.811  48.470  18.559  1.00  0.00     0.274 HD
ENDBRANCH  12  23
ENDBRANCH   6   7
ENDBRANCH   5   6
BRANCH   1  27
HETATM   27  N4  UNL     1      36.382  52.999  18.307  1.00  0.00    -0.393 N 
HETATM   28  C3  UNL     1      37.352  53.935  18.487  1.00  0.00     0.077 C 
ATOM     29  H4  UNL     1      36.143  52.387  19.086  1.00  0.00     0.159 HD
BRANCH  28  30
HETATM   30  C2  UNL     1      37.252  55.435  18.493  1.00  0.00     0.183 C 
BRANCH  30  31
HETATM   31  N3  UNL     1      37.616  55.839  17.151  1.00  0.00    -0.335 N 
ATOM     32  H3  UNL     1      38.513  55.476  16.828  1.00  0.00     0.180 HD
BRANCH  31  33
HETATM   33  N2  UNL     1      36.976  56.607  16.264  1.00  0.00    -0.315 N 
ATOM     34  H2  UNL     1      37.046  57.621  16.335  1.00  0.00     0.181 HD
BRANCH  33  35
HETATM   35  C1  UNL     1      36.190  56.024  15.210  1.00  0.00     0.368 C 
BRANCH  35  36
HETATM   36  N1  UNL     1      35.203  57.085  14.870  1.00  0.00    -0.062 N 
ATOM     37  H13 UNL     1      34.246  56.749  14.759  1.00  0.00     0.276 HD
ATOM     38  H12 UNL     1      35.003  57.733  15.633  1.00  0.00     0.276 HD
ATOM     39  H11 UNL     1      35.592  57.526  14.037  1.00  0.00     0.276 HD
ENDBRANCH  35  36
ENDBRANCH  33  35
ENDBRANCH  31  33
ENDBRANCH  30  31
ENDBRANCH  28  30
ENDBRANCH   1  27
BRANCH   4  40
HETATM   40  O2  UNL     1      34.154  49.675  15.900  1.00  0.00    -0.392 OA
ATOM     41  H2  UNL     1      34.314  48.865  16.368  1.00  0.00     0.210 HD
ENDBRANCH   4  40
BRANCH   3  42
HETATM   42  C7  UNL     1      35.637  51.091  13.888  1.00  0.00     0.239 C 
BRANCH  42  43
HETATM   43  N5  UNL     1      34.683  51.459  12.770  1.00  0.00    -0.073 N 
ATOM     44  H52 UNL     1      33.696  51.230  12.895  1.00  0.00     0.277 HD
ATOM     45  H51 UNL     1      34.483  52.448  12.624  1.00  0.00     0.277 HD
BRANCH  43  46
HETATM   46  C8  UNL     1      35.469  50.702  11.649  1.00  0.00     0.258 C 
BRANCH  46  47
HETATM   47  C9  UNL     1      34.591  49.806  10.903  1.00  0.00     0.191 C 
BRANCH  47  48
HETATM   48  O1  UNL     1      35.220  49.566   9.634  1.00  0.00    -0.399 OA
ATOM     49  H1  UNL     1      34.857  48.757   9.294  1.00  0.00     0.209 HD
ENDBRANCH  47  48
ENDBRANCH  46  47
ENDBRANCH  43  46
ENDBRANCH  42  43
ENDBRANCH   3  42
TORSDOF 18
ENDMDL
MODEL 4
REMARK VINA RESULT: -7.153610231      1.348      1.800
REMARK  18 active torsions:
REMARK  status: ('A' for Active; 'I' for Inactive)
REMARK    1  A    between atoms: N1_1  and  C1_5 
REMARK    2  A    between atoms: C1_5  and  N2_6 
REMARK    3  A    between atoms: N2_6  and  N3_8 
REMARK    4  A    between atoms: N3_8  and  C2_10 
REMARK    5  A    between atoms: C2_10  and  C3_11 
REMARK    6  A    between atoms: N4_12  and  C4_14 
REMARK    7  A    between atoms: C6_16  and  C7_17 
REMARK    8  A    between atoms: C7_17  and  N5_18 
REMARK    9  A    between atoms: N5_18  and  C8_21 
REMARK   10  A    between atoms: C8_21  and  C9_22 
REMARK   11  A    between atoms: C9_22  and  O1_23 
REMARK   12  A    between atoms: C10_25  and  O2_26 
REMARK   13  A    between atoms: C11_28  and  O3_29 
REMARK   14  A    between atoms: O3_29  and  C12_30 
REMARK   15  A    between atoms: C13_31  and  N6_32 
REMARK   16  A    between atoms: C15_37  and  N7_38 
REMARK   17  A    between atoms: C16_42  and  O4_43 
REMARK   18  A    between atoms: C17_45  and  N8_46 
ROOT
HETATM    1  C4  UNL     1      34.712  51.499  17.577  1.00  0.00     0.112 C 
HETATM    2  C5  UNL     1      34.766  50.798  18.871  1.00  0.00     0.036 C 
HETATM    3  C6  UNL     1      33.786  51.755  19.687  1.00  0.00     0.044 C 
HETATM    4  C10 UNL     1      34.813  52.949  19.517  1.00  0.00     0.154 C 
HETATM    5  C11 UNL     1      34.840  53.074  18.053  1.00  0.00     0.173 C 
ENDROOT
BRANCH   5   6
HETATM    6  O3  UNL     1      36.009  53.597  17.640  1.00  0.00    -0.372 OA
BRANCH   6   7
HETATM    7  C12 UNL     1      36.138  54.834  17.077  1.00  0.00     0.185 C 
HETATM    8  C13 UNL     1      37.551  55.402  17.504  1.00  0.00     0.216 C 
HETATM    9  C14 UNL     1      38.192  56.207  16.479  1.00  0.00     0.070 C 
HETATM   10  C15 UNL     1      38.155  55.677  15.095  1.00  0.00     0.216 C 
HETATM   11  C16 UNL     1      37.235  54.468  14.982  1.00  0.00     0.181 C 
HETATM   12  C17 UNL     1      35.919  54.921  15.670  1.00  0.00     0.244 C 
BRANCH   8  13
HETATM   13  N6  UNL     1      37.225  56.337  18.605  1.00  0.00    -0.072 N 
ATOM     14  H63 UNL     1      37.416  55.975  19.539  1.00  0.00     0.274 HD
ATOM     15  H62 UNL     1      37.847  57.143  18.675  1.00  0.00     0.274 HD
ATOM     16  H61 UNL     1      36.247  56.571  18.433  1.00  0.00     0.274 HD
ENDBRANCH   8  13
BRANCH  10  17
HETATM   17  N7  UNL     1      39.495  55.396  14.586  1.00  0.00    -0.072 N 
ATOM     18  H73 UNL     1      39.986  54.729  15.181  1.00  0.00     0.274 HD
ATOM     19  H72 UNL     1      39.459  54.849  13.726  1.00  0.00     0.274 HD
ATOM     20  H71 UNL     1      40.038  56.250  14.460  1.00  0.00     0.274 HD
ENDBRANCH  10  17
BRANCH  11  21
HETATM   21  O4  UNL     1      37.108  54.151  13.669  1.00  0.00    -0.391 OA
ATOM     22  H4  UNL     1      36.845  54.932  13.198  1.00  0.00     0.210 HD
ENDBRANCH  11  21
BRANCH  12  23
HETATM   23  N8  UNL     1      35.556  56.212  15.097  1.00  0.00    -0.070 N 
ATOM     24  H83 UNL     1      35.634  56.928  15.820  1.00  0.00     0.274 HD
ATOM     25  H82 UNL     1      36.287  56.504  14.450  1.00  0.00     0.274 HD
ATOM     26  H81 UNL     1      34.651  56.306  14.637  1.00  0.00     0.274 HD
ENDBRANCH  12  23
ENDBRANCH   6   7
ENDBRANCH   5   6
BRANCH   1  27
HETATM   27  N4  UNL     1      35.752  51.342  16.626  1.00  0.00    -0.393 N 
HETATM   28  C3  UNL     1      35.526  50.940  15.347  1.00  0.00     0.077 C 
ATOM     29  H4  UNL     1      36.710  51.538  16.913  1.00  0.00     0.159 HD
BRANCH  28  30
HETATM   30  C2  UNL     1      34.788  51.634  14.236  1.00  0.00     0.183 C 
BRANCH  30  31
HETATM   31  N3  UNL     1      35.530  51.311  13.036  1.00  0.00    -0.335 N 
ATOM     32  H3  UNL     1      36.514  51.582  13.059  1.00  0.00     0.180 HD
BRANCH  31  33
HETATM   33  N2  UNL     1      35.145  50.717  11.901  1.00  0.00    -0.315 N 
ATOM     34  H2  UNL     1      34.152  50.571  11.723  1.00  0.00     0.181 HD
BRANCH  33  35
HETATM   35  C1  UNL     1      36.110  50.281  10.928  1.00  0.00     0.368 C 
BRANCH  35  36
HETATM   36  N1  UNL     1      35.283  49.677   9.848  1.00  0.00    -0.062 N 
ATOM     37  H13 UNL     1      35.816  49.356   9.040  1.00  0.00     0.276 HD
ATOM     38  H12 UNL     1      34.884  48.768  10.084  1.00  0.00     0.276 HD
ATOM     39  H11 UNL     1      34.592  50.396   9.636  1.00  0.00     0.276 HD
ENDBRANCH  35  36
ENDBRANCH  33  35
ENDBRANCH  31  33
ENDBRANCH  30  31
ENDBRANCH  28  30
ENDBRANCH   1  27
BRANCH   4  40
HETATM   40  O2  UNL     1      34.703  53.982  20.331  1.00  0.00    -0.392 OA
ATOM     41  H2  UNL     1      35.460  54.544  20.445  1.00  0.00     0.210 HD
ENDBRANCH   4  40
BRANCH   3  42
HETATM   42  C7  UNL     1      33.849  51.352  21.109  1.00  0.00     0.239 C 
BRANCH  42  43
HETATM   43  N5  UNL     1      34.355  49.924  21.089  1.00  0.00    -0.073 N 
ATOM     44  H52 UNL     1      33.764  49.206  21.509  1.00  0.00     0.277 HD
ATOM     45  H51 UNL     1      34.381  49.443  20.190  1.00  0.00     0.277 HD
BRANCH  43  46
HETATM   46  C8  UNL     1      35.720  50.241  21.784  1.00  0.00     0.258 C 
BRANCH  46  47
HETATM   47  C9  UNL     1      36.606  49.081  21.760  1.00  0.00     0.191 C 
BRANCH  47  48
HETATM   48  O1  UNL     1      37.922  49.553  22.086  1.00  0.00    -0.399 OA
ATOM     49  H1  UNL     1      37.973  50.455  21.792  1.00  0.00     0.209 HD
ENDBRANCH  47  48
ENDBRANCH  46  47
ENDBRANCH  43  46
ENDBRANCH  42  43
ENDBRANCH   3  42
TORSDOF 18
ENDMDL
MODEL 5
REMARK VINA RESULT: -7.137637151      2.206      7.593
REMARK  18 active torsions:
REMARK  status: ('A' for Active; 'I' for Inactive)
REMARK    1  A    between atoms: N1_1  and  C1_5 
REMARK    2  A    between atoms: C1_5  and  N2_6 
REMARK    3  A    between atoms: N2_6  and  N3_8 
REMARK    4  A    between atoms: N3_8  and  C2_10 
REMARK    5  A    between atoms: C2_10  and  C3_11 
REMARK    6  A    between atoms: N4_12  and  C4_14 
REMARK    7  A    between atoms: C6_16  and  C7_17 
REMARK    8  A    between atoms: C7_17  and  N5_18 
REMARK    9  A    between atoms: N5_18  and  C8_21 
REMARK   10  A    between atoms: C8_21  and  C9_22 
REMARK   11  A    between atoms: C9_22  and  O1_23 
REMARK   12  A    between atoms: C10_25  and  O2_26 
REMARK   13  A    between atoms: C11_28  and  O3_29 
REMARK   14  A    between atoms: O3_29  and  C12_30 
REMARK   15  A    between atoms: C13_31  and  N6_32 
REMARK   16  A    between atoms: C15_37  and  N7_38 
REMARK   17  A    between atoms: C16_42  and  O4_43 
REMARK   18  A    between atoms: C17_45  and  N8_46 
ROOT
HETATM    1  C4  UNL     1      36.107  53.053  16.572  1.00  0.00     0.112 C 
HETATM    2  C5  UNL     1      36.763  52.560  15.348  1.00  0.00     0.036 C 
HETATM    3  C6  UNL     1      35.451  52.256  14.497  1.00  0.00     0.044 C 
HETATM    4  C10 UNL     1      35.033  51.140  15.540  1.00  0.00     0.154 C 
HETATM    5  C11 UNL     1      34.892  51.951  16.758  1.00  0.00     0.173 C 
ENDROOT
BRANCH   5   6
HETATM    6  O3  UNL     1      35.102  51.203  17.856  1.00  0.00    -0.372 OA
BRANCH   6   7
HETATM    7  C12 UNL     1      34.105  50.641  18.601  1.00  0.00     0.185 C 
HETATM    8  C13 UNL     1      34.772  49.569  19.554  1.00  0.00     0.216 C 
HETATM    9  C14 UNL     1      34.141  49.471  20.858  1.00  0.00     0.070 C 
HETATM   10  C15 UNL     1      33.809  50.748  21.535  1.00  0.00     0.216 C 
HETATM   11  C16 UNL     1      33.999  51.941  20.607  1.00  0.00     0.181 C 
HETATM   12  C17 UNL     1      33.251  51.540  19.307  1.00  0.00     0.244 C 
BRANCH   8  13
HETATM   13  N6  UNL     1      34.492  48.284  18.873  1.00  0.00    -0.072 N 
ATOM     14  H63 UNL     1      35.159  48.038  18.143  1.00  0.00     0.274 HD
ATOM     15  H62 UNL     1      34.653  47.456  19.447  1.00  0.00     0.274 HD
ATOM     16  H61 UNL     1      33.531  48.395  18.549  1.00  0.00     0.274 HD
ENDBRANCH   8  13
BRANCH  10  17
HETATM   17  N7  UNL     1      34.543  50.904  22.787  1.00  0.00    -0.072 N 
ATOM     18  H73 UNL     1      34.471  50.068  23.367  1.00  0.00     0.274 HD
ATOM     19  H72 UNL     1      35.551  50.904  22.630  1.00  0.00     0.274 HD
ATOM     20  H71 UNL     1      34.248  51.736  23.299  1.00  0.00     0.274 HD
ENDBRANCH  10  17
BRANCH  11  21
HETATM   21  O4  UNL     1      33.509  53.044  21.226  1.00  0.00    -0.391 OA
ATOM     22  H4  UNL     1      32.749  53.345  20.742  1.00  0.00     0.210 HD
ENDBRANCH  11  21
BRANCH  12  23
HETATM   23  N8  UNL     1      31.923  51.082  19.698  1.00  0.00    -0.070 N 
ATOM     24  H83 UNL     1      31.813  50.108  19.416  1.00  0.00     0.274 HD
ATOM     25  H82 UNL     1      31.888  50.999  20.714  1.00  0.00     0.274 HD
ATOM     26  H81 UNL     1      31.110  51.611  19.382  1.00  0.00     0.274 HD
ENDBRANCH  12  23
ENDBRANCH   6   7
ENDBRANCH   5   6
BRANCH   1  27
HETATM   27  N4  UNL     1      36.787  53.030  17.816  1.00  0.00    -0.393 N 
HETATM   28  C3  UNL     1      37.528  54.075  18.270  1.00  0.00     0.077 C 
ATOM     29  H4  UNL     1      36.718  52.193  18.395  1.00  0.00     0.159 HD
BRANCH  28  30
HETATM   30  C2  UNL     1      37.096  55.456  18.677  1.00  0.00     0.183 C 
BRANCH  30  31
HETATM   31  N3  UNL     1      37.707  56.340  17.708  1.00  0.00    -0.335 N 
ATOM     32  H3  UNL     1      38.718  56.441  17.804  1.00  0.00     0.180 HD
BRANCH  31  33
HETATM   33  N2  UNL     1      37.173  57.047  16.707  1.00  0.00    -0.315 N 
ATOM     34  H2  UNL     1      36.889  58.013  16.870  1.00  0.00     0.181 HD
BRANCH  33  35
HETATM   35  C1  UNL     1      36.990  56.467  15.404  1.00  0.00     0.368 C 
BRANCH  35  36
HETATM   36  N1  UNL     1      35.512  56.362  15.262  1.00  0.00    -0.062 N 
ATOM     37  H13 UNL     1      34.985  56.796  16.020  1.00  0.00     0.276 HD
ATOM     38  H12 UNL     1      35.121  56.935  14.514  1.00  0.00     0.276 HD
ATOM     39  H11 UNL     1      35.346  55.361  15.155  1.00  0.00     0.276 HD
ENDBRANCH  35  36
ENDBRANCH  33  35
ENDBRANCH  31  33
ENDBRANCH  30  31
ENDBRANCH  28  30
ENDBRANCH   1  27
BRANCH   4  40
HETATM   40  O2  UNL     1      34.145  50.239  15.163  1.00  0.00    -0.392 OA
ATOM     41  H2  UNL     1      33.271  50.539  14.944  1.00  0.00     0.210 HD
ENDBRANCH   4  40
BRANCH   3  42
HETATM   42  C7  UNL     1      35.869  51.541  13.271  1.00  0.00     0.239 C 
BRANCH  42  43
HETATM   43  N5  UNL     1      34.598  51.370  12.464  1.00  0.00    -0.073 N 
ATOM     44  H52 UNL     1      33.755  51.085  12.963  1.00  0.00     0.277 HD
ATOM     45  H51 UNL     1      34.153  52.211  12.097  1.00  0.00     0.277 HD
BRANCH  43  46
HETATM   46  C8  UNL     1      35.211  50.363  11.435  1.00  0.00     0.258 C 
BRANCH  46  47
HETATM   47  C9  UNL     1      34.165  49.688  10.672  1.00  0.00     0.191 C 
BRANCH  47  48
HETATM   48  O1  UNL     1      34.633  49.591   9.318  1.00  0.00    -0.399 OA
ATOM     49  H1  UNL     1      34.034  50.096   8.781  1.00  0.00     0.209 HD
ENDBRANCH  47  48
ENDBRANCH  46  47
ENDBRANCH  43  46
ENDBRANCH  42  43
ENDBRANCH   3  42
TORSDOF 18
ENDMDL
