MODEL 1
REMARK VINA RESULT: -7.732511672      0.000      0.000
REMARK  20 active torsions:
REMARK  status: ('A' for Active; 'I' for Inactive)
REMARK    1  A    between atoms: N1_1  and  C1_5 
REMARK    2  A    between atoms: C1_5  and  C2_6 
REMARK    3  A    between atoms: C2_6  and  C3_7 
REMARK    4  A    between atoms: C2_6  and  N3_18 
REMARK    5  A    between atoms: C3_7  and  O1_8 
REMARK    6  A    between atoms: O1_8  and  C4_9 
REMARK    7  A    between atoms: C4_9  and  C5_10 
REMARK    8  A    between atoms: C5_10  and  N2_11 
REMARK    9  A    between atoms: N2_11  and  C6_14 
REMARK   10  A    between atoms: C6_14  and  C7_15 
REMARK   11  A    between atoms: C7_15  and  O2_16 
REMARK   12  A    between atoms: N3_18  and  C8_20 
REMARK   13  A    between atoms: C8_20  and  C9_21 
REMARK   14  A    between atoms: C10_24  and  O3_25 
REMARK   15  A    between atoms: O3_25  and  C11_26 
REMARK   16  A    between atoms: C12_30  and  N6_31 
REMARK   17  A    between atoms: C14_36  and  N7_37 
REMARK   18  A    between atoms: C15_41  and  N8_42 
REMARK   19  A    between atoms: C16_46  and  O4_47 
REMARK   20  A    between atoms: C17_49  and  O5_50 
ROOT
HETATM    1  C9  UNL     1      34.870  52.575  17.285  1.00  0.00     0.127 C 
HETATM    2  N4  UNL     1      35.719  52.147  16.249  1.00  0.00    -0.387 N 
ATOM      3  H4  UNL     1      35.776  51.163  15.989  1.00  0.00     0.156 HD
HETATM    4  C10 UNL     1      36.501  53.139  15.570  1.00  0.00     0.253 C 
HETATM    5  C15 UNL     1      37.378  53.808  16.569  1.00  0.00     0.262 C 
HETATM    6  C16 UNL     1      36.705  54.192  17.840  1.00  0.00     0.183 C 
HETATM    7  C17 UNL     1      35.231  53.903  17.901  1.00  0.00     0.173 C 
ENDROOT
BRANCH   1   8
HETATM    8  C8  UNL     1      34.682  51.521  18.356  1.00  0.00     0.141 C 
BRANCH   8   9
HETATM    9  N3  UNL     1      34.949  50.216  17.878  1.00  0.00    -0.411 N 
ATOM     10  H3  UNL     1      35.902  49.863  17.784  1.00  0.00     0.153 HD
BRANCH   9  11
HETATM   11  C2  UNL     1      33.821  49.420  17.535  1.00  0.00     0.125 C 
BRANCH  11  12
HETATM   12  C1  UNL     1      34.193  47.963  17.353  1.00  0.00     0.256 C 
BRANCH  12  13
HETATM   13  N1  UNL     1      35.126  47.476  18.324  1.00  0.00    -0.077 N 
ATOM     14  H13 UNL     1      35.563  48.253  18.822  1.00  0.00     0.274 HD
ATOM     15  H12 UNL     1      34.637  47.028  19.098  1.00  0.00     0.274 HD
ATOM     16  H11 UNL     1      35.836  46.853  17.939  1.00  0.00     0.274 HD
ENDBRANCH  12  13
ENDBRANCH  11  12
BRANCH  11  17
HETATM   17  C3  UNL     1      32.668  49.522  18.470  1.00  0.00     0.194 C 
BRANCH  17  18
HETATM   18  O1  UNL     1      32.720  48.463  19.371  1.00  0.00    -0.387 OA
BRANCH  18  19
HETATM   19  C4  UNL     1      32.481  48.906  20.668  1.00  0.00     0.195 C 
BRANCH  19  20
HETATM   20  C5  UNL     1      33.825  49.253  21.286  1.00  0.00     0.258 C 
BRANCH  20  21
HETATM   21  N2  UNL     1      33.706  50.425  22.138  1.00  0.00    -0.071 N 
ATOM     22  H22 UNL     1      33.446  50.165  23.089  1.00  0.00     0.277 HD
ATOM     23  H21 UNL     1      34.620  50.837  22.329  1.00  0.00     0.277 HD
BRANCH  21  24
HETATM   24  C6  UNL     1      32.802  51.393  21.599  1.00  0.00     0.258 C 
BRANCH  24  25
HETATM   25  C7  UNL     1      32.340  52.267  22.773  1.00  0.00     0.191 C 
BRANCH  25  26
HETATM   26  O2  UNL     1      32.903  53.520  22.704  1.00  0.00    -0.399 OA
ATOM     27  H2  UNL     1      32.561  54.083  23.388  1.00  0.00     0.209 HD
ENDBRANCH  25  26
ENDBRANCH  24  25
ENDBRANCH  21  24
ENDBRANCH  20  21
ENDBRANCH  19  20
ENDBRANCH  18  19
ENDBRANCH  17  18
ENDBRANCH  11  17
ENDBRANCH   9  11
ENDBRANCH   8   9
ENDBRANCH   1   8
BRANCH   7  28
HETATM   28  O5  UNL     1      34.456  54.959  17.417  1.00  0.00    -0.391 OA
ATOM     29  H5  UNL     1      34.959  55.595  16.922  1.00  0.00     0.210 HD
ENDBRANCH   7  28
BRANCH   4  30
HETATM   30  O3  UNL     1      35.673  53.964  14.857  1.00  0.00    -0.330 OA
BRANCH  30  31
HETATM   31  C11 UNL     1      36.185  54.469  13.695  1.00  0.00     0.356 C 
HETATM   32  N5  UNL     1      35.425  55.514  13.093  1.00  0.00    -0.018 N 
HETATM   33  C12 UNL     1      35.903  56.713  13.760  1.00  0.00     0.385 C 
ATOM     34  H52 UNL     1      35.485  55.546  12.075  1.00  0.00     0.282 HD
ATOM     35  H51 UNL     1      34.415  55.381  13.137  1.00  0.00     0.282 HD
HETATM   36  C13 UNL     1      37.375  56.456  14.050  1.00  0.00     0.099 C 
HETATM   37  C14 UNL     1      37.574  54.988  13.748  1.00  0.00     0.243 C 
BRANCH  33  38
HETATM   38  N6  UNL     1      35.218  56.932  15.001  1.00  0.00    -0.050 N 
ATOM     39  H63 UNL     1      34.223  56.726  14.919  1.00  0.00     0.276 HD
ATOM     40  H62 UNL     1      35.469  56.227  15.695  1.00  0.00     0.276 HD
ATOM     41  H61 UNL     1      35.377  57.876  15.354  1.00  0.00     0.276 HD
ENDBRANCH  33  38
BRANCH  37  42
HETATM   42  N7  UNL     1      38.240  54.883  12.469  1.00  0.00    -0.071 N 
ATOM     43  H73 UNL     1      38.598  53.940  12.315  1.00  0.00     0.274 HD
ATOM     44  H72 UNL     1      37.572  54.928  11.699  1.00  0.00     0.274 HD
ATOM     45  H71 UNL     1      38.975  55.581  12.363  1.00  0.00     0.274 HD
ENDBRANCH  37  42
ENDBRANCH  30  31
ENDBRANCH   4  30
BRANCH   6  46
HETATM   46  O4  UNL     1      36.870  55.571  18.110  1.00  0.00    -0.391 OA
ATOM     47  H4  UNL     1      36.057  55.963  18.408  1.00  0.00     0.210 HD
ENDBRANCH   6  46
BRANCH   5  48
HETATM   48  N8  UNL     1      38.488  52.875  16.844  1.00  0.00    -0.068 N 
ATOM     49  H83 UNL     1      38.569  52.622  17.828  1.00  0.00     0.275 HD
ATOM     50  H82 UNL     1      38.323  51.935  16.484  1.00  0.00     0.275 HD
ATOM     51  H81 UNL     1      39.332  53.309  16.467  1.00  0.00     0.275 HD
ENDBRANCH   5  48
TORSDOF 20
ENDMDL
MODEL 2
REMARK VINA RESULT: -7.637627998      2.116      2.910
REMARK  20 active torsions:
REMARK  status: ('A' for Active; 'I' for Inactive)
REMARK    1  A    between atoms: N1_1  and  C1_5 
REMARK    2  A    between atoms: C1_5  and  C2_6 
REMARK    3  A    between atoms: C2_6  and  C3_7 
REMARK    4  A    between atoms: C2_6  and  N3_18 
REMARK    5  A    between atoms: C3_7  and  O1_8 
REMARK    6  A    between atoms: O1_8  and  C4_9 
REMARK    7  A    between atoms: C4_9  and  C5_10 
REMARK    8  A    between atoms: C5_10  and  N2_11 
REMARK    9  A    between atoms: N2_11  and  C6_14 
REMARK   10  A    between atoms: C6_14  and  C7_15 
REMARK   11  A    between atoms: C7_15  and  O2_16 
REMARK   12  A    between atoms: N3_18  and  C8_20 
REMARK   13  A    between atoms: C8_20  and  C9_21 
REMARK   14  A    between atoms: C10_24  and  O3_25 
REMARK   15  A    between atoms: O3_25  and  C11_26 
REMARK   16  A    between atoms: C12_30  and  N6_31 
REMARK   17  A    between atoms: C14_36  and  N7_37 
REMARK   18  A    between atoms: C15_41  and  N8_42 
REMARK   19  A    between atoms: C16_46  and  O4_47 
REMARK   20  A    between atoms: C17_49  and  O5_50 
ROOT
HETATM    1  C9  UNL     1      36.823  55.078  17.436  1.00  0.00     0.127 C 
HETATM    2  N4  UNL     1      35.779  54.972  16.502  1.00  0.00    -0.387 N 
ATOM      3  H4  UNL     1      34.804  54.955  16.803  1.00  0.00     0.156 HD
HETATM    4  C10 UNL     1      36.125  54.889  15.113  1.00  0.00     0.253 C 
HETATM    5  C15 UNL     1      36.977  53.684  14.914  1.00  0.00     0.262 C 
HETATM    6  C16 UNL     1      38.059  53.506  15.922  1.00  0.00     0.183 C 
HETATM    7  C17 UNL     1      38.167  54.598  16.950  1.00  0.00     0.173 C 
ENDROOT
BRANCH   1   8
HETATM    8  C8  UNL     1      36.478  54.450  18.770  1.00  0.00     0.141 C 
BRANCH   8   9
HETATM    9  N3  UNL     1      35.092  54.198  18.902  1.00  0.00    -0.411 N 
ATOM     10  H3  UNL     1      34.396  54.925  18.734  1.00  0.00     0.153 HD
BRANCH   9  11
HETATM   11  C2  UNL     1      34.718  52.878  19.281  1.00  0.00     0.125 C 
BRANCH  11  12
HETATM   12  C1  UNL     1      34.244  52.064  18.095  1.00  0.00     0.256 C 
BRANCH  12  13
HETATM   13  N1  UNL     1      35.017  50.883  17.855  1.00  0.00    -0.077 N 
ATOM     14  H13 UNL     1      35.424  50.905  16.920  1.00  0.00     0.274 HD
ATOM     15  H12 UNL     1      35.869  50.893  18.415  1.00  0.00     0.274 HD
ATOM     16  H11 UNL     1      34.502  50.015  18.001  1.00  0.00     0.274 HD
ENDBRANCH  12  13
ENDBRANCH  11  12
BRANCH  11  17
HETATM   17  C3  UNL     1      35.759  52.114  20.020  1.00  0.00     0.194 C 
BRANCH  17  18
HETATM   18  O1  UNL     1      35.202  51.600  21.186  1.00  0.00    -0.387 OA
BRANCH  18  19
HETATM   19  C4  UNL     1      35.343  50.217  21.234  1.00  0.00     0.195 C 
BRANCH  19  20
HETATM   20  C5  UNL     1      33.948  49.617  21.244  1.00  0.00     0.258 C 
BRANCH  20  21
HETATM   21  N2  UNL     1      33.147  50.207  22.304  1.00  0.00    -0.071 N 
ATOM     22  H22 UNL     1      32.690  49.489  22.865  1.00  0.00     0.277 HD
ATOM     23  H21 UNL     1      33.738  50.622  23.025  1.00  0.00     0.277 HD
BRANCH  21  24
HETATM   24  C6  UNL     1      32.201  51.153  21.801  1.00  0.00     0.258 C 
BRANCH  24  25
HETATM   25  C7  UNL     1      32.122  52.289  22.831  1.00  0.00     0.191 C 
BRANCH  25  26
HETATM   26  O2  UNL     1      32.975  53.315  22.497  1.00  0.00    -0.399 OA
ATOM     27  H2  UNL     1      33.354  53.707  23.275  1.00  0.00     0.209 HD
ENDBRANCH  25  26
ENDBRANCH  24  25
ENDBRANCH  21  24
ENDBRANCH  20  21
ENDBRANCH  19  20
ENDBRANCH  18  19
ENDBRANCH  17  18
ENDBRANCH  11  17
ENDBRANCH   9  11
ENDBRANCH   8   9
ENDBRANCH   1   8
BRANCH   7  28
HETATM   28  O5  UNL     1      39.006  55.637  16.544  1.00  0.00    -0.391 OA
ATOM     29  H5  UNL     1      39.916  55.496  16.782  1.00  0.00     0.210 HD
ENDBRANCH   7  28
BRANCH   4  30
HETATM   30  O3  UNL     1      36.671  56.077  14.706  1.00  0.00    -0.330 OA
BRANCH  30  31
HETATM   31  C11 UNL     1      36.442  56.428  13.406  1.00  0.00     0.356 C 
HETATM   32  N5  UNL     1      35.075  56.640  13.059  1.00  0.00    -0.018 N 
HETATM   33  C12 UNL     1      34.841  58.027  13.418  1.00  0.00     0.385 C 
ATOM     34  H52 UNL     1      34.846  56.410  12.092  1.00  0.00     0.282 HD
ATOM     35  H51 UNL     1      34.425  55.979  13.484  1.00  0.00     0.282 HD
HETATM   36  C13 UNL     1      36.160  58.741  13.158  1.00  0.00     0.099 C 
HETATM   37  C14 UNL     1      37.153  57.630  12.905  1.00  0.00     0.243 C 
BRANCH  33  38
HETATM   38  N6  UNL     1      34.509  58.161  14.807  1.00  0.00    -0.050 N 
ATOM     39  H63 UNL     1      33.879  58.947  14.966  1.00  0.00     0.276 HD
ATOM     40  H62 UNL     1      33.899  57.404  15.120  1.00  0.00     0.276 HD
ATOM     41  H61 UNL     1      35.345  58.230  15.387  1.00  0.00     0.276 HD
ENDBRANCH  33  38
BRANCH  37  42
HETATM   42  N7  UNL     1      37.391  57.563  11.480  1.00  0.00    -0.071 N 
ATOM     43  H73 UNL     1      38.372  57.735  11.260  1.00  0.00     0.274 HD
ATOM     44  H72 UNL     1      37.316  56.605  11.137  1.00  0.00     0.274 HD
ATOM     45  H71 UNL     1      36.779  58.192  10.961  1.00  0.00     0.274 HD
ENDBRANCH  37  42
ENDBRANCH  30  31
ENDBRANCH   4  30
BRANCH   6  46
HETATM   46  O4  UNL     1      39.324  53.393  15.301  1.00  0.00    -0.391 OA
ATOM     47  H4  UNL     1      40.004  53.795  15.828  1.00  0.00     0.210 HD
ENDBRANCH   6  46
BRANCH   5  48
HETATM   48  N8  UNL     1      36.069  52.521  14.933  1.00  0.00    -0.068 N 
ATOM     49  H83 UNL     1      35.123  52.752  15.236  1.00  0.00     0.275 HD
ATOM     50  H82 UNL     1      35.825  52.185  14.002  1.00  0.00     0.275 HD
ATOM     51  H81 UNL     1      36.518  51.812  15.514  1.00  0.00     0.275 HD
ENDBRANCH   5  48
TORSDOF 20
ENDMDL
MODEL 3
REMARK VINA RESULT: -7.596137658      1.199      1.468
REMARK  20 active torsions:
REMARK  status: ('A' for Active; 'I' for Inactive)
REMARK    1  A    between atoms: N1_1  and  C1_5 
REMARK    2  A    between atoms: C1_5  and  C2_6 
REMARK    3  A    between atoms: C2_6  and  C3_7 
REMARK    4  A    between atoms: C2_6  and  N3_18 
REMARK    5  A    between atoms: C3_7  and  O1_8 
REMARK    6  A    between atoms: O1_8  and  C4_9 
REMARK    7  A    between atoms: C4_9  and  C5_10 
REMARK    8  A    between atoms: C5_10  and  N2_11 
REMARK    9  A    between atoms: N2_11  and  C6_14 
REMARK   10  A    between atoms: C6_14  and  C7_15 
REMARK   11  A    between atoms: C7_15  and  O2_16 
REMARK   12  A    between atoms: N3_18  and  C8_20 
REMARK   13  A    between atoms: C8_20  and  C9_21 
REMARK   14  A    between atoms: C10_24  and  O3_25 
REMARK   15  A    between atoms: O3_25  and  C11_26 
REMARK   16  A    between atoms: C12_30  and  N6_31 
REMARK   17  A    between atoms: C14_36  and  N7_37 
REMARK   18  A    between atoms: C15_41  and  N8_42 
REMARK   19  A    between atoms: C16_46  and  O4_47 
REMARK   20  A    between atoms: C17_49  and  O5_50 
ROOT
HETATM    1  C9  UNL     1      34.853  52.594  17.309  1.00  0.00     0.127 C 
HETATM    2  N4  UNL     1      35.730  52.185  16.290  1.00  0.00    -0.387 N 
ATOM      3  H4  UNL     1      35.806  51.203  16.025  1.00  0.00     0.156 HD
HETATM    4  C10 UNL     1      36.514  53.190  15.635  1.00  0.00     0.253 C 
HETATM    5  C15 UNL     1      37.360  53.865  16.657  1.00  0.00     0.262 C 
HETATM    6  C16 UNL     1      36.653  54.232  17.915  1.00  0.00     0.183 C 
HETATM    7  C17 UNL     1      35.181  53.923  17.941  1.00  0.00     0.173 C 
ENDROOT
BRANCH   1   8
HETATM    8  C8  UNL     1      34.655  51.531  18.369  1.00  0.00     0.141 C 
BRANCH   8   9
HETATM    9  N3  UNL     1      34.912  50.228  17.878  1.00  0.00    -0.411 N 
ATOM     10  H3  UNL     1      35.863  49.880  17.754  1.00  0.00     0.153 HD
BRANCH   9  11
HETATM   11  C2  UNL     1      33.777  49.429  17.566  1.00  0.00     0.125 C 
BRANCH  11  12
HETATM   12  C1  UNL     1      34.162  47.996  17.265  1.00  0.00     0.256 C 
BRANCH  12  13
HETATM   13  N1  UNL     1      35.127  47.451  18.172  1.00  0.00    -0.077 N 
ATOM     14  H13 UNL     1      35.801  48.165  18.451  1.00  0.00     0.274 HD
ATOM     15  H12 UNL     1      34.698  47.256  19.076  1.00  0.00     0.274 HD
ATOM     16  H11 UNL     1      35.607  46.624  17.817  1.00  0.00     0.274 HD
ENDBRANCH  12  13
ENDBRANCH  11  12
BRANCH  11  17
HETATM   17  C3  UNL     1      32.694  49.445  18.586  1.00  0.00     0.194 C 
BRANCH  17  18
HETATM   18  O1  UNL     1      33.017  48.553  19.604  1.00  0.00    -0.387 OA
BRANCH  18  19
HETATM   19  C4  UNL     1      32.263  48.811  20.745  1.00  0.00     0.195 C 
BRANCH  19  20
HETATM   20  C5  UNL     1      32.638  50.199  21.235  1.00  0.00     0.258 C 
BRANCH  20  21
HETATM   21  N2  UNL     1      33.747  50.126  22.171  1.00  0.00    -0.071 N 
ATOM     22  H22 UNL     1      33.491  50.515  23.079  1.00  0.00     0.277 HD
ATOM     23  H21 UNL     1      33.929  49.163  22.455  1.00  0.00     0.277 HD
BRANCH  21  24
HETATM   24  C6  UNL     1      34.929  50.746  21.656  1.00  0.00     0.258 C 
BRANCH  24  25
HETATM   25  C7  UNL     1      36.008  49.657  21.595  1.00  0.00     0.191 C 
BRANCH  25  26
HETATM   26  O2  UNL     1      35.868  48.889  20.462  1.00  0.00    -0.399 OA
ATOM     27  H2  UNL     1      35.878  49.431  19.682  1.00  0.00     0.209 HD
ENDBRANCH  25  26
ENDBRANCH  24  25
ENDBRANCH  21  24
ENDBRANCH  20  21
ENDBRANCH  19  20
ENDBRANCH  18  19
ENDBRANCH  17  18
ENDBRANCH  11  17
ENDBRANCH   9  11
ENDBRANCH   8   9
ENDBRANCH   1   8
BRANCH   7  28
HETATM   28  O5  UNL     1      34.404  54.971  17.446  1.00  0.00    -0.391 OA
ATOM     29  H5  UNL     1      34.528  55.785  17.921  1.00  0.00     0.210 HD
ENDBRANCH   7  28
BRANCH   4  30
HETATM   30  O3  UNL     1      35.692  54.010  14.909  1.00  0.00    -0.330 OA
BRANCH  30  31
HETATM   31  C11 UNL     1      36.217  54.515  13.753  1.00  0.00     0.356 C 
HETATM   32  N5  UNL     1      35.458  55.552  13.135  1.00  0.00    -0.018 N 
HETATM   33  C12 UNL     1      35.915  56.757  13.805  1.00  0.00     0.385 C 
ATOM     34  H52 UNL     1      35.533  55.580  12.118  1.00  0.00     0.282 HD
ATOM     35  H51 UNL     1      34.448  55.410  13.165  1.00  0.00     0.282 HD
HETATM   36  C13 UNL     1      37.384  56.513  14.118  1.00  0.00     0.099 C 
HETATM   37  C14 UNL     1      37.600  55.046  13.825  1.00  0.00     0.243 C 
BRANCH  33  38
HETATM   38  N6  UNL     1      35.210  56.973  15.035  1.00  0.00    -0.050 N 
ATOM     39  H63 UNL     1      34.354  57.507  14.885  1.00  0.00     0.276 HD
ATOM     40  H62 UNL     1      34.798  56.108  15.386  1.00  0.00     0.276 HD
ATOM     41  H61 UNL     1      35.806  57.414  15.735  1.00  0.00     0.276 HD
ENDBRANCH  33  38
BRANCH  37  42
HETATM   42  N7  UNL     1      38.287  54.942  12.557  1.00  0.00    -0.071 N 
ATOM     43  H73 UNL     1      37.645  54.680  11.809  1.00  0.00     0.274 HD
ATOM     44  H72 UNL     1      38.568  55.860  12.212  1.00  0.00     0.274 HD
ATOM     45  H71 UNL     1      39.081  54.304  12.604  1.00  0.00     0.274 HD
ENDBRANCH  37  42
ENDBRANCH  30  31
ENDBRANCH   4  30
BRANCH   6  46
HETATM   46  O4  UNL     1      36.793  55.611  18.198  1.00  0.00    -0.391 OA
ATOM     47  H4  UNL     1      37.659  55.924  17.966  1.00  0.00     0.210 HD
ENDBRANCH   6  46
BRANCH   5  48
HETATM   48  N8  UNL     1      38.476  52.945  16.952  1.00  0.00    -0.068 N 
ATOM     49  H83 UNL     1      38.169  52.036  17.295  1.00  0.00     0.275 HD
ATOM     50  H82 UNL     1      38.953  52.610  16.115  1.00  0.00     0.275 HD
ATOM     51  H81 UNL     1      39.092  53.435  17.600  1.00  0.00     0.275 HD
ENDBRANCH   5  48
TORSDOF 20
ENDMDL
MODEL 4
REMARK VINA RESULT: -7.578096798      2.102      3.268
REMARK  20 active torsions:
REMARK  status: ('A' for Active; 'I' for Inactive)
REMARK    1  A    between atoms: N1_1  and  C1_5 
REMARK    2  A    between atoms: C1_5  and  C2_6 
REMARK    3  A    between atoms: C2_6  and  C3_7 
REMARK    4  A    between atoms: C2_6  and  N3_18 
REMARK    5  A    between atoms: C3_7  and  O1_8 
REMARK    6  A    between atoms: O1_8  and  C4_9 
REMARK    7  A    between atoms: C4_9  and  C5_10 
REMARK    8  A    between atoms: C5_10  and  N2_11 
REMARK    9  A    between atoms: N2_11  and  C6_14 
REMARK   10  A    between atoms: C6_14  and  C7_15 
REMARK   11  A    between atoms: C7_15  and  O2_16 
REMARK   12  A    between atoms: N3_18  and  C8_20 
REMARK   13  A    between atoms: C8_20  and  C9_21 
REMARK   14  A    between atoms: C10_24  and  O3_25 
REMARK   15  A    between atoms: O3_25  and  C11_26 
REMARK   16  A    between atoms: C12_30  and  N6_31 
REMARK   17  A    between atoms: C14_36  and  N7_37 
REMARK   18  A    between atoms: C15_41  and  N8_42 
REMARK   19  A    between atoms: C16_46  and  O4_47 
REMARK   20  A    between atoms: C17_49  and  O5_50 
ROOT
HETATM    1  C9  UNL     1      36.838  55.128  17.382  1.00  0.00     0.127 C 
HETATM    2  N4  UNL     1      35.794  55.031  16.447  1.00  0.00    -0.387 N 
ATOM      3  H4  UNL     1      34.819  55.023  16.746  1.00  0.00     0.156 HD
HETATM    4  C10 UNL     1      36.141  54.943  15.058  1.00  0.00     0.253 C 
HETATM    5  C15 UNL     1      36.982  53.731  14.861  1.00  0.00     0.262 C 
HETATM    6  C16 UNL     1      38.061  53.543  15.870  1.00  0.00     0.183 C 
HETATM    7  C17 UNL     1      38.179  54.635  16.898  1.00  0.00     0.173 C 
ENDROOT
BRANCH   1   8
HETATM    8  C8  UNL     1      36.486  54.503  18.715  1.00  0.00     0.141 C 
BRANCH   8   9
HETATM    9  N3  UNL     1      35.098  54.261  18.845  1.00  0.00    -0.411 N 
ATOM     10  H3  UNL     1      34.408  54.995  18.680  1.00  0.00     0.153 HD
BRANCH   9  11
HETATM   11  C2  UNL     1      34.713  52.943  19.217  1.00  0.00     0.125 C 
BRANCH  11  12
HETATM   12  C1  UNL     1      34.284  52.122  18.019  1.00  0.00     0.256 C 
BRANCH  12  13
HETATM   13  N1  UNL     1      35.136  51.003  17.747  1.00  0.00    -0.077 N 
ATOM     14  H13 UNL     1      35.259  50.882  16.741  1.00  0.00     0.274 HD
ATOM     15  H12 UNL     1      36.098  51.212  18.014  1.00  0.00     0.274 HD
ATOM     16  H11 UNL     1      34.826  50.133  18.177  1.00  0.00     0.274 HD
ENDBRANCH  12  13
ENDBRANCH  11  12
BRANCH  11  17
HETATM   17  C3  UNL     1      35.728  52.185  19.998  1.00  0.00     0.194 C 
BRANCH  17  18
HETATM   18  O1  UNL     1      35.090  51.503  21.028  1.00  0.00    -0.387 OA
BRANCH  18  19
HETATM   19  C4  UNL     1      35.663  50.249  21.219  1.00  0.00     0.195 C 
BRANCH  19  20
HETATM   20  C5  UNL     1      34.640  49.211  20.788  1.00  0.00     0.258 C 
BRANCH  20  21
HETATM   21  N2  UNL     1      33.529  49.171  21.725  1.00  0.00    -0.071 N 
ATOM     22  H22 UNL     1      33.638  48.410  22.394  1.00  0.00     0.277 HD
ATOM     23  H21 UNL     1      33.563  49.959  22.372  1.00  0.00     0.277 HD
BRANCH  21  24
HETATM   24  C6  UNL     1      32.266  49.100  21.059  1.00  0.00     0.258 C 
BRANCH  24  25
HETATM   25  C7  UNL     1      32.560  49.104  19.552  1.00  0.00     0.191 C 
BRANCH  25  26
HETATM   26  O2  UNL     1      31.534  49.695  18.853  1.00  0.00    -0.399 OA
ATOM     27  H2  UNL     1      31.046  49.048  18.356  1.00  0.00     0.209 HD
ENDBRANCH  25  26
ENDBRANCH  24  25
ENDBRANCH  21  24
ENDBRANCH  20  21
ENDBRANCH  19  20
ENDBRANCH  18  19
ENDBRANCH  17  18
ENDBRANCH  11  17
ENDBRANCH   9  11
ENDBRANCH   8   9
ENDBRANCH   1   8
BRANCH   7  28
HETATM   28  O5  UNL     1      39.028  55.665  16.492  1.00  0.00    -0.391 OA
ATOM     29  H5  UNL     1      38.649  56.216  15.816  1.00  0.00     0.210 HD
ENDBRANCH   7  28
BRANCH   4  30
HETATM   30  O3  UNL     1      36.699  56.126  14.652  1.00  0.00    -0.330 OA
BRANCH  30  31
HETATM   31  C11 UNL     1      36.455  56.490  13.357  1.00  0.00     0.356 C 
HETATM   32  N5  UNL     1      35.084  56.689  13.023  1.00  0.00    -0.018 N 
HETATM   33  C12 UNL     1      34.835  58.069  13.400  1.00  0.00     0.385 C 
ATOM     34  H52 UNL     1      34.850  56.467  12.055  1.00  0.00     0.282 HD
ATOM     35  H51 UNL     1      34.445  56.015  13.444  1.00  0.00     0.282 HD
HETATM   36  C13 UNL     1      36.143  58.802  13.139  1.00  0.00     0.099 C 
HETATM   37  C14 UNL     1      37.148  57.706  12.865  1.00  0.00     0.243 C 
BRANCH  33  38
HETATM   38  N6  UNL     1      34.512  58.182  14.793  1.00  0.00    -0.050 N 
ATOM     39  H63 UNL     1      34.187  57.294  15.174  1.00  0.00     0.276 HD
ATOM     40  H62 UNL     1      35.350  58.302  15.362  1.00  0.00     0.276 HD
ATOM     41  H61 UNL     1      33.837  58.929  14.960  1.00  0.00     0.276 HD
ENDBRANCH  33  38
BRANCH  37  42
HETATM   42  N7  UNL     1      37.376  57.658  11.438  1.00  0.00    -0.071 N 
ATOM     43  H73 UNL     1      37.660  56.725  11.139  1.00  0.00     0.274 HD
ATOM     44  H72 UNL     1      36.501  57.733  10.920  1.00  0.00     0.274 HD
ATOM     45  H71 UNL     1      38.047  58.365  11.135  1.00  0.00     0.274 HD
ENDBRANCH  37  42
ENDBRANCH  30  31
ENDBRANCH   4  30
BRANCH   6  46
HETATM   46  O4  UNL     1      39.326  53.418  15.250  1.00  0.00    -0.391 OA
ATOM     47  H4  UNL     1      39.979  53.951  15.689  1.00  0.00     0.210 HD
ENDBRANCH   6  46
BRANCH   5  48
HETATM   48  N8  UNL     1      36.063  52.576  14.880  1.00  0.00    -0.068 N 
ATOM     49  H83 UNL     1      35.541  52.489  15.751  1.00  0.00     0.275 HD
ATOM     50  H82 UNL     1      35.260  52.690  14.261  1.00  0.00     0.275 HD
ATOM     51  H81 UNL     1      36.627  51.754  14.662  1.00  0.00     0.275 HD
ENDBRANCH   5  48
TORSDOF 20
ENDMDL
MODEL 5
REMARK VINA RESULT: -7.431993087      1.447      1.687
REMARK  20 active torsions:
REMARK  status: ('A' for Active; 'I' for Inactive)
REMARK    1  A    between atoms: N1_1  and  C1_5 
REMARK    2  A    between atoms: C1_5  and  C2_6 
REMARK    3  A    between atoms: C2_6  and  C3_7 
REMARK    4  A    between atoms: C2_6  and  N3_18 
REMARK    5  A    between atoms: C3_7  and  O1_8 
REMARK    6  A    between atoms: O1_8  and  C4_9 
REMARK    7  A    between atoms: C4_9  and  C5_10 
REMARK    8  A    between atoms: C5_10  and  N2_11 
REMARK    9  A    between atoms: N2_11  and  C6_14 
REMARK   10  A    between atoms: C6_14  and  C7_15 
REMARK   11  A    between atoms: C7_15  and  O2_16 
REMARK   12  A    between atoms: N3_18  and  C8_20 
REMARK   13  A    between atoms: C8_20  and  C9_21 
REMARK   14  A    between atoms: C10_24  and  O3_25 
REMARK   15  A    between atoms: O3_25  and  C11_26 
REMARK   16  A    between atoms: C12_30  and  N6_31 
REMARK   17  A    between atoms: C14_36  and  N7_37 
REMARK   18  A    between atoms: C15_41  and  N8_42 
REMARK   19  A    between atoms: C16_46  and  O4_47 
REMARK   20  A    between atoms: C17_49  and  O5_50 
ROOT
HETATM    1  C9  UNL     1      35.948  53.137  15.862  1.00  0.00     0.127 C 
HETATM    2  N4  UNL     1      36.807  53.615  14.858  1.00  0.00    -0.387 N 
ATOM      3  H4  UNL     1      37.198  52.986  14.157  1.00  0.00     0.156 HD
HETATM    4  C10 UNL     1      37.118  55.015  14.850  1.00  0.00     0.253 C 
HETATM    5  C15 UNL     1      37.769  55.358  16.144  1.00  0.00     0.262 C 
HETATM    6  C16 UNL     1      37.107  54.790  17.351  1.00  0.00     0.183 C 
HETATM    7  C17 UNL     1      35.849  54.009  17.088  1.00  0.00     0.173 C 
ENDROOT
BRANCH   1   8
HETATM    8  C8  UNL     1      36.243  51.702  16.247  1.00  0.00     0.141 C 
BRANCH   8   9
HETATM    9  N3  UNL     1      35.679  51.355  17.498  1.00  0.00    -0.411 N 
ATOM     10  H3  UNL     1      36.129  51.606  18.378  1.00  0.00     0.153 HD
BRANCH   9  11
HETATM   11  C2  UNL     1      34.450  50.638  17.464  1.00  0.00     0.125 C 
BRANCH  11  12
HETATM   12  C1  UNL     1      34.494  49.489  16.479  1.00  0.00     0.256 C 
BRANCH  12  13
HETATM   13  N1  UNL     1      34.469  48.196  17.092  1.00  0.00    -0.077 N 
ATOM     14  H13 UNL     1      34.844  47.490  16.458  1.00  0.00     0.274 HD
ATOM     15  H12 UNL     1      35.161  48.141  17.840  1.00  0.00     0.274 HD
ATOM     16  H11 UNL     1      33.549  47.918  17.434  1.00  0.00     0.274 HD
ENDBRANCH  12  13
ENDBRANCH  11  12
BRANCH  11  17
HETATM   17  C3  UNL     1      33.974  50.139  18.783  1.00  0.00     0.194 C 
BRANCH  17  18
HETATM   18  O1  UNL     1      32.583  50.096  18.776  1.00  0.00    -0.387 OA
BRANCH  18  19
HETATM   19  C4  UNL     1      32.113  49.177  19.709  1.00  0.00     0.195 C 
BRANCH  19  20
HETATM   20  C5  UNL     1      33.061  49.207  20.896  1.00  0.00     0.258 C 
BRANCH  20  21
HETATM   21  N2  UNL     1      32.456  49.914  22.012  1.00  0.00    -0.071 N 
ATOM     22  H22 UNL     1      31.491  50.172  21.807  1.00  0.00     0.277 HD
ATOM     23  H21 UNL     1      32.292  49.288  22.801  1.00  0.00     0.277 HD
BRANCH  21  24
HETATM   24  C6  UNL     1      33.224  51.055  22.407  1.00  0.00     0.258 C 
BRANCH  24  25
HETATM   25  C7  UNL     1      32.234  52.215  22.583  1.00  0.00     0.191 C 
BRANCH  25  26
HETATM   26  O2  UNL     1      32.896  53.417  22.660  1.00  0.00    -0.399 OA
ATOM     27  H2  UNL     1      33.461  53.445  23.423  1.00  0.00     0.209 HD
ENDBRANCH  25  26
ENDBRANCH  24  25
ENDBRANCH  21  24
ENDBRANCH  20  21
ENDBRANCH  19  20
ENDBRANCH  18  19
ENDBRANCH  17  18
ENDBRANCH  11  17
ENDBRANCH   9  11
ENDBRANCH   8   9
ENDBRANCH   1   8
BRANCH   7  28
HETATM   28  O5  UNL     1      34.706  54.812  17.098  1.00  0.00    -0.391 OA
ATOM     29  H5  UNL     1      34.541  55.215  17.942  1.00  0.00     0.210 HD
ENDBRANCH   7  28
BRANCH   4  30
HETATM   30  O3  UNL     1      35.992  55.731  14.543  1.00  0.00    -0.330 OA
BRANCH  30  31
HETATM   31  C11 UNL     1      35.968  56.309  13.305  1.00  0.00     0.356 C 
HETATM   32  N5  UNL     1      34.737  56.928  12.940  1.00  0.00    -0.018 N 
HETATM   33  C12 UNL     1      34.844  58.263  13.501  1.00  0.00     0.385 C 
ATOM     34  H52 UNL     1      34.534  56.906  11.940  1.00  0.00     0.282 HD
ATOM     35  H51 UNL     1      33.904  56.415  13.230  1.00  0.00     0.282 HD
HETATM   36  C13 UNL     1      36.320  58.623  13.409  1.00  0.00     0.099 C 
HETATM   37  C14 UNL     1      37.006  57.331  13.026  1.00  0.00     0.243 C 
BRANCH  33  38
HETATM   38  N6  UNL     1      34.448  58.287  14.879  1.00  0.00    -0.050 N 
ATOM     39  H63 UNL     1      34.087  57.382  15.180  1.00  0.00     0.276 HD
ATOM     40  H62 UNL     1      35.256  58.349  15.499  1.00  0.00     0.276 HD
ATOM     41  H61 UNL     1      33.778  59.035  15.063  1.00  0.00     0.276 HD
ENDBRANCH  33  38
BRANCH  37  42
HETATM   42  N7  UNL     1      37.333  57.401  11.619  1.00  0.00    -0.071 N 
ATOM     43  H73 UNL     1      36.500  57.294  11.040  1.00  0.00     0.274 HD
ATOM     44  H72 UNL     1      37.596  58.348  11.347  1.00  0.00     0.274 HD
ATOM     45  H71 UNL     1      38.054  56.727  11.361  1.00  0.00     0.274 HD
ENDBRANCH  37  42
ENDBRANCH  30  31
ENDBRANCH   4  30
BRANCH   6  46
HETATM   46  O4  UNL     1      36.779  55.805  18.281  1.00  0.00    -0.391 OA
ATOM     47  H4  UNL     1      35.993  55.586  18.767  1.00  0.00     0.210 HD
ENDBRANCH   6  46
BRANCH   5  48
HETATM   48  N8  UNL     1      39.161  54.874  16.054  1.00  0.00    -0.068 N 
ATOM     49  H83 UNL     1      39.677  55.276  15.272  1.00  0.00     0.275 HD
ATOM     50  H82 UNL     1      39.760  55.230  16.798  1.00  0.00     0.275 HD
ATOM     51  H81 UNL     1      39.112  53.856  16.025  1.00  0.00     0.275 HD
ENDBRANCH   5  48
TORSDOF 20
ENDMDL
