MODEL 1
REMARK VINA RESULT: -7.001054911      0.000      0.000
REMARK  21 active torsions:
REMARK  status: ('A' for Active; 'I' for Inactive)
REMARK    1  A    between atoms: C1_4  and  N2_5 
REMARK    2  A    between atoms: C1_4  and  O1_10 
REMARK    3  A    between atoms: N2_5  and  N3_7 
REMARK    4  A    between atoms: O1_10  and  C2_11 
REMARK    5  A    between atoms: C3_12  and  O2_13 
REMARK    6  A    between atoms: C4_15  and  C5_16 
REMARK    7  A    between atoms: C5_16  and  N4_17 
REMARK    8  A    between atoms: C6_21  and  O3_22 
REMARK    9  A    between atoms: C7_24  and  N5_25 
REMARK   10  A    between atoms: C8_29  and  O4_30 
REMARK   11  A    between atoms: C9_32  and  N6_33 
REMARK   12  A    between atoms: N6_33  and  C10_35 
REMARK   13  A    between atoms: C10_35  and  C11_36 
REMARK   14  A    between atoms: C11_36  and  N7_37 
REMARK   15  A    between atoms: N7_37  and  C12_40 
REMARK   16  A    between atoms: C12_40  and  C13_41 
REMARK   17  A    between atoms: C13_41  and  N8_42 
REMARK   18  A    between atoms: N8_42  and  C14_45 
REMARK   19  A    between atoms: C14_45  and  C15_46 
REMARK   20  A    between atoms: C15_46  and  N9_47 
REMARK   21  A    between atoms: N9_47  and  N10_48 
ROOT
HETATM    1  C2  UNL     1      35.746  52.095  14.801  1.00  0.00     0.186 C 
HETATM    2  C3  UNL     1      36.449  53.393  14.675  1.00  0.00     0.158 C 
HETATM    3  C4  UNL     1      37.602  53.576  15.605  1.00  0.00     0.073 C 
HETATM    4  C6  UNL     1      37.405  53.402  17.036  1.00  0.00     0.159 C 
HETATM    5  C7  UNL     1      36.055  53.482  17.642  1.00  0.00     0.243 C 
HETATM    6  C8  UNL     1      35.095  52.385  17.242  1.00  0.00     0.176 C 
HETATM    7  C9  UNL     1      35.600  51.515  16.161  1.00  0.00     0.139 C 
ENDROOT
BRANCH   7   8
HETATM    8  N6  UNL     1      34.805  50.319  16.065  1.00  0.00    -0.411 N 
ATOM      9  H6  UNL     1      34.644  49.840  15.178  1.00  0.00     0.153 HD
BRANCH   8  10
HETATM   10  C10 UNL     1      34.253  49.846  17.306  1.00  0.00     0.142 C 
BRANCH  10  11
HETATM   11  C11 UNL     1      34.321  48.304  17.317  1.00  0.00     0.251 C 
BRANCH  11  12
HETATM   12  N7  UNL     1      34.742  47.937  18.633  1.00  0.00    -0.072 N 
ATOM     13  H72 UNL     1      34.502  46.969  18.848  1.00  0.00     0.277 HD
ATOM     14  H71 UNL     1      35.757  47.862  18.696  1.00  0.00     0.277 HD
BRANCH  12  15
HETATM   15  C12 UNL     1      34.216  48.842  19.612  1.00  0.00     0.259 C 
BRANCH  15  16
HETATM   16  C13 UNL     1      35.272  49.134  20.644  1.00  0.00     0.259 C 
BRANCH  16  17
HETATM   17  N8  UNL     1      34.948  50.443  21.207  1.00  0.00    -0.072 N 
ATOM     18  H82 UNL     1      35.525  50.680  22.014  1.00  0.00     0.277 HD
ATOM     19  H81 UNL     1      35.234  51.215  20.604  1.00  0.00     0.277 HD
BRANCH  17  20
HETATM   20  C14 UNL     1      33.534  50.459  21.505  1.00  0.00     0.250 C 
BRANCH  20  21
HETATM   21  C15 UNL     1      33.060  51.910  21.643  1.00  0.00     0.161 C 
BRANCH  21  22
HETATM   22  N9  UNL     1      33.017  52.237  23.058  1.00  0.00    -0.147 NA
BRANCH  22  23
HETATM   23  N10 UNL     1      32.912  51.111  23.845  1.00  0.00    -0.348 N 
ATOM     24 2H10 UNL     1      33.239  50.191  23.549  1.00  0.00     0.172 HD
ATOM     25 1H10 UNL     1      32.473  51.313  24.743  1.00  0.00     0.172 HD
ENDBRANCH  22  23
ENDBRANCH  21  22
ENDBRANCH  20  21
ENDBRANCH  17  20
ENDBRANCH  16  17
ENDBRANCH  15  16
ENDBRANCH  12  15
ENDBRANCH  11  12
ENDBRANCH  10  11
ENDBRANCH   8  10
ENDBRANCH   7   8
BRANCH   1  26
HETATM   26  O1  UNL     1      34.537  52.134  14.070  1.00  0.00    -0.311 OA
BRANCH  26  27
HETATM   27  C1  UNL     1      34.440  51.592  12.775  1.00  0.00     0.232 C 
HETATM   28  N1  UNL     1      33.260  51.654  12.264  1.00  0.00    -0.364 N 
ATOM     29  H12 UNL     1      33.190  51.262  11.325  1.00  0.00     0.159 HD
ATOM     30  H11 UNL     1      32.467  52.061  12.760  1.00  0.00     0.159 HD
BRANCH  27  31
HETATM   31  N2  UNL     1      35.532  51.031  12.091  1.00  0.00    -0.272 N 
ATOM     32  H2  UNL     1      36.482  51.294  12.352  1.00  0.00     0.190 HD
BRANCH  31  33
HETATM   33  N3  UNL     1      35.325  50.124  11.064  1.00  0.00    -0.342 N 
ATOM     34  H32 UNL     1      35.171  49.143  11.299  1.00  0.00     0.176 HD
ATOM     35  H31 UNL     1      35.328  50.435  10.093  1.00  0.00     0.176 HD
ENDBRANCH  31  33
ENDBRANCH  27  31
ENDBRANCH  26  27
ENDBRANCH   1  26
BRANCH   6  36
HETATM   36  O4  UNL     1      33.813  52.885  16.992  1.00  0.00    -0.391 OA
ATOM     37  H4  UNL     1      33.140  52.248  17.202  1.00  0.00     0.210 HD
ENDBRANCH   6  36
BRANCH   2  38
HETATM   38  O2  UNL     1      35.596  54.492  14.605  1.00  0.00    -0.392 OA
ATOM     39  H2  UNL     1      35.796  55.175  15.233  1.00  0.00     0.210 HD
ENDBRANCH   2  38
BRANCH   5  40
HETATM   40  N5  UNL     1      35.420  54.784  17.575  1.00  0.00    -0.070 N 
ATOM     41  H53 UNL     1      35.652  55.242  16.694  1.00  0.00     0.274 HD
ATOM     42  H52 UNL     1      34.412  54.676  17.461  1.00  0.00     0.274 HD
ATOM     43  H51 UNL     1      35.620  55.408  18.357  1.00  0.00     0.274 HD
ENDBRANCH   5  40
BRANCH   3  44
HETATM   44  C5  UNL     1      38.298  54.901  15.241  1.00  0.00     0.239 C 
BRANCH  44  45
HETATM   45  N4  UNL     1      38.573  54.989  13.842  1.00  0.00    -0.079 N 
ATOM     46  H43 UNL     1      37.946  54.391  13.302  1.00  0.00     0.274 HD
ATOM     47  H42 UNL     1      38.293  55.894  13.464  1.00  0.00     0.274 HD
ATOM     48  H41 UNL     1      39.551  54.785  13.635  1.00  0.00     0.274 HD
ENDBRANCH  44  45
ENDBRANCH   3  44
BRANCH   4  49
HETATM   49  O3  UNL     1      38.177  54.397  17.697  1.00  0.00    -0.393 OA
ATOM     50  H3  UNL     1      38.433  54.046  18.541  1.00  0.00     0.210 HD
ENDBRANCH   4  49
TORSDOF 21
ENDMDL
MODEL 2
REMARK VINA RESULT: -6.969588498      2.316      4.610
REMARK  21 active torsions:
REMARK  status: ('A' for Active; 'I' for Inactive)
REMARK    1  A    between atoms: C1_4  and  N2_5 
REMARK    2  A    between atoms: C1_4  and  O1_10 
REMARK    3  A    between atoms: N2_5  and  N3_7 
REMARK    4  A    between atoms: O1_10  and  C2_11 
REMARK    5  A    between atoms: C3_12  and  O2_13 
REMARK    6  A    between atoms: C4_15  and  C5_16 
REMARK    7  A    between atoms: C5_16  and  N4_17 
REMARK    8  A    between atoms: C6_21  and  O3_22 
REMARK    9  A    between atoms: C7_24  and  N5_25 
REMARK   10  A    between atoms: C8_29  and  O4_30 
REMARK   11  A    between atoms: C9_32  and  N6_33 
REMARK   12  A    between atoms: N6_33  and  C10_35 
REMARK   13  A    between atoms: C10_35  and  C11_36 
REMARK   14  A    between atoms: C11_36  and  N7_37 
REMARK   15  A    between atoms: N7_37  and  C12_40 
REMARK   16  A    between atoms: C12_40  and  C13_41 
REMARK   17  A    between atoms: C13_41  and  N8_42 
REMARK   18  A    between atoms: N8_42  and  C14_45 
REMARK   19  A    between atoms: C14_45  and  C15_46 
REMARK   20  A    between atoms: C15_46  and  N9_47 
REMARK   21  A    between atoms: N9_47  and  N10_48 
ROOT
HETATM    1  C2  UNL     1      35.978  54.581  15.710  1.00  0.00     0.186 C 
HETATM    2  C3  UNL     1      35.942  56.049  15.508  1.00  0.00     0.158 C 
HETATM    3  C4  UNL     1      35.551  56.484  14.135  1.00  0.00     0.073 C 
HETATM    4  C6  UNL     1      36.278  55.973  12.984  1.00  0.00     0.159 C 
HETATM    5  C7  UNL     1      37.636  55.397  13.127  1.00  0.00     0.243 C 
HETATM    6  C8  UNL     1      37.720  54.112  13.918  1.00  0.00     0.176 C 
HETATM    7  C9  UNL     1      36.457  53.738  14.584  1.00  0.00     0.139 C 
ENDROOT
BRANCH   7   8
HETATM    8  N6  UNL     1      36.507  52.369  15.028  1.00  0.00    -0.411 N 
ATOM      9  H6  UNL     1      37.303  51.991  15.543  1.00  0.00     0.153 HD
BRANCH   8  10
HETATM   10  C10 UNL     1      35.357  51.572  14.694  1.00  0.00     0.142 C 
BRANCH  10  11
HETATM   11  C11 UNL     1      35.128  50.545  15.822  1.00  0.00     0.251 C 
BRANCH  11  12
HETATM   12  N7  UNL     1      35.522  51.193  17.032  1.00  0.00    -0.072 N 
ATOM     13  H72 UNL     1      36.445  50.887  17.341  1.00  0.00     0.277 HD
ATOM     14  H71 UNL     1      35.730  52.180  16.880  1.00  0.00     0.277 HD
BRANCH  12  15
HETATM   15  C12 UNL     1      34.536  51.013  18.057  1.00  0.00     0.259 C 
BRANCH  15  16
HETATM   16  C13 UNL     1      35.190  51.129  19.408  1.00  0.00     0.259 C 
BRANCH  16  17
HETATM   17  N8  UNL     1      35.218  49.780  19.969  1.00  0.00    -0.072 N 
ATOM     18  H82 UNL     1      34.592  49.137  19.484  1.00  0.00     0.277 HD
ATOM     19  H81 UNL     1      36.092  49.290  19.777  1.00  0.00     0.277 HD
BRANCH  17  20
HETATM   20  C14 UNL     1      34.931  49.882  21.381  1.00  0.00     0.250 C 
BRANCH  20  21
HETATM   21  C15 UNL     1      33.568  50.554  21.576  1.00  0.00     0.161 C 
BRANCH  21  22
HETATM   22  N9  UNL     1      33.694  51.526  22.651  1.00  0.00    -0.147 NA
BRANCH  22  23
HETATM   23  N10 UNL     1      32.969  51.159  23.764  1.00  0.00    -0.348 N 
ATOM     24 2H10 UNL     1      33.318  50.508  24.467  1.00  0.00     0.172 HD
ATOM     25 1H10 UNL     1      32.057  51.616  23.792  1.00  0.00     0.172 HD
ENDBRANCH  22  23
ENDBRANCH  21  22
ENDBRANCH  20  21
ENDBRANCH  17  20
ENDBRANCH  16  17
ENDBRANCH  15  16
ENDBRANCH  12  15
ENDBRANCH  11  12
ENDBRANCH  10  11
ENDBRANCH   8  10
ENDBRANCH   7   8
BRANCH   1  26
HETATM   26  O1  UNL     1      36.600  54.284  16.944  1.00  0.00    -0.311 OA
BRANCH  26  27
HETATM   27  C1  UNL     1      36.065  54.728  18.167  1.00  0.00     0.232 C 
HETATM   28  N1  UNL     1      34.809  54.487  18.312  1.00  0.00    -0.364 N 
ATOM     29  H12 UNL     1      34.421  54.809  19.199  1.00  0.00     0.159 HD
ATOM     30  H11 UNL     1      34.254  54.015  17.598  1.00  0.00     0.159 HD
BRANCH  27  31
HETATM   31  N2  UNL     1      36.829  55.378  19.151  1.00  0.00    -0.272 N 
ATOM     32  H2  UNL     1      36.933  54.955  20.073  1.00  0.00     0.190 HD
BRANCH  31  33
HETATM   33  N3  UNL     1      37.440  56.591  18.878  1.00  0.00    -0.342 N 
ATOM     34  H32 UNL     1      38.453  56.613  18.753  1.00  0.00     0.176 HD
ATOM     35  H31 UNL     1      36.885  57.443  18.803  1.00  0.00     0.176 HD
ENDBRANCH  31  33
ENDBRANCH  27  31
ENDBRANCH  26  27
ENDBRANCH   1  26
BRANCH   6  36
HETATM   36  O4  UNL     1      38.820  54.108  14.783  1.00  0.00    -0.391 OA
ATOM     37  H4  UNL     1      38.567  53.887  15.672  1.00  0.00     0.210 HD
ENDBRANCH   6  36
BRANCH   2  38
HETATM   38  O2  UNL     1      37.052  56.716  16.021  1.00  0.00    -0.392 OA
ATOM     39  H2  UNL     1      37.718  56.910  15.372  1.00  0.00     0.210 HD
ENDBRANCH   2  38
BRANCH   5  40
HETATM   40  N5  UNL     1      38.667  56.332  13.535  1.00  0.00    -0.070 N 
ATOM     41  H53 UNL     1      38.265  57.258  13.675  1.00  0.00     0.274 HD
ATOM     42  H52 UNL     1      38.973  56.123  14.486  1.00  0.00     0.274 HD
ATOM     43  H51 UNL     1      39.474  56.391  12.913  1.00  0.00     0.274 HD
ENDBRANCH   5  40
BRANCH   3  44
HETATM   44  C5  UNL     1      35.423  58.019  14.144  1.00  0.00     0.239 C 
BRANCH  44  45
HETATM   45  N4  UNL     1      34.388  58.460  15.025  1.00  0.00    -0.079 N 
ATOM     46  H43 UNL     1      33.634  57.777  15.084  1.00  0.00     0.274 HD
ATOM     47  H42 UNL     1      34.695  58.442  15.997  1.00  0.00     0.274 HD
ATOM     48  H41 UNL     1      34.036  59.381  14.764  1.00  0.00     0.274 HD
ENDBRANCH  44  45
ENDBRANCH   3  44
BRANCH   4  49
HETATM   49  O3  UNL     1      36.415  57.041  12.056  1.00  0.00    -0.393 OA
ATOM     50  H3  UNL     1      37.307  57.024  11.731  1.00  0.00     0.210 HD
ENDBRANCH   4  49
TORSDOF 21
ENDMDL
MODEL 3
REMARK VINA RESULT: -6.947097355      2.553      4.763
REMARK  21 active torsions:
REMARK  status: ('A' for Active; 'I' for Inactive)
REMARK    1  A    between atoms: C1_4  and  N2_5 
REMARK    2  A    between atoms: C1_4  and  O1_10 
REMARK    3  A    between atoms: N2_5  and  N3_7 
REMARK    4  A    between atoms: O1_10  and  C2_11 
REMARK    5  A    between atoms: C3_12  and  O2_13 
REMARK    6  A    between atoms: C4_15  and  C5_16 
REMARK    7  A    between atoms: C5_16  and  N4_17 
REMARK    8  A    between atoms: C6_21  and  O3_22 
REMARK    9  A    between atoms: C7_24  and  N5_25 
REMARK   10  A    between atoms: C8_29  and  O4_30 
REMARK   11  A    between atoms: C9_32  and  N6_33 
REMARK   12  A    between atoms: N6_33  and  C10_35 
REMARK   13  A    between atoms: C10_35  and  C11_36 
REMARK   14  A    between atoms: C11_36  and  N7_37 
REMARK   15  A    between atoms: N7_37  and  C12_40 
REMARK   16  A    between atoms: C12_40  and  C13_41 
REMARK   17  A    between atoms: C13_41  and  N8_42 
REMARK   18  A    between atoms: N8_42  and  C14_45 
REMARK   19  A    between atoms: C14_45  and  C15_46 
REMARK   20  A    between atoms: C15_46  and  N9_47 
REMARK   21  A    between atoms: N9_47  and  N10_48 
ROOT
HETATM    1  C2  UNL     1      35.987  54.438  15.978  1.00  0.00     0.186 C 
HETATM    2  C3  UNL     1      36.045  55.897  15.723  1.00  0.00     0.158 C 
HETATM    3  C4  UNL     1      35.641  56.311  14.347  1.00  0.00     0.073 C 
HETATM    4  C6  UNL     1      36.295  55.710  13.195  1.00  0.00     0.159 C 
HETATM    5  C7  UNL     1      37.614  55.047  13.319  1.00  0.00     0.243 C 
HETATM    6  C8  UNL     1      37.636  53.788  14.154  1.00  0.00     0.176 C 
HETATM    7  C9  UNL     1      36.372  53.525  14.870  1.00  0.00     0.139 C 
ENDROOT
BRANCH   7   8
HETATM    8  N6  UNL     1      36.343  52.172  15.362  1.00  0.00    -0.411 N 
ATOM      9  H6  UNL     1      37.134  51.752  15.850  1.00  0.00     0.153 HD
BRANCH   8  10
HETATM   10  C10 UNL     1      35.120  51.455  15.117  1.00  0.00     0.142 C 
BRANCH  10  11
HETATM   11  C11 UNL     1      34.855  50.515  16.311  1.00  0.00     0.251 C 
BRANCH  11  12
HETATM   12  N7  UNL     1      35.532  51.096  17.428  1.00  0.00    -0.072 N 
ATOM     13  H72 UNL     1      36.472  50.717  17.537  1.00  0.00     0.277 HD
ATOM     14  H71 UNL     1      35.777  52.071  17.254  1.00  0.00     0.277 HD
BRANCH  12  15
HETATM   15  C12 UNL     1      34.762  50.951  18.629  1.00  0.00     0.259 C 
BRANCH  15  16
HETATM   16  C13 UNL     1      34.055  49.623  18.615  1.00  0.00     0.259 C 
BRANCH  16  17
HETATM   17  N8  UNL     1      34.818  48.740  19.493  1.00  0.00    -0.072 N 
ATOM     18  H82 UNL     1      34.401  47.813  19.581  1.00  0.00     0.277 HD
ATOM     19  H81 UNL     1      35.708  48.451  19.087  1.00  0.00     0.277 HD
BRANCH  17  20
HETATM   20  C14 UNL     1      34.973  49.407  20.765  1.00  0.00     0.250 C 
BRANCH  20  21
HETATM   21  C15 UNL     1      36.251  48.908  21.449  1.00  0.00     0.161 C 
BRANCH  21  22
HETATM   22  N9  UNL     1      37.044  50.067  21.824  1.00  0.00    -0.147 NA
BRANCH  22  23
HETATM   23  N10 UNL     1      37.033  50.279  23.186  1.00  0.00    -0.348 N 
ATOM     24 2H10 UNL     1      36.419  49.774  23.825  1.00  0.00     0.172 HD
ATOM     25 1H10 UNL     1      37.705  50.994  23.465  1.00  0.00     0.172 HD
ENDBRANCH  22  23
ENDBRANCH  21  22
ENDBRANCH  20  21
ENDBRANCH  17  20
ENDBRANCH  16  17
ENDBRANCH  15  16
ENDBRANCH  12  15
ENDBRANCH  11  12
ENDBRANCH  10  11
ENDBRANCH   8  10
ENDBRANCH   7   8
BRANCH   1  26
HETATM   26  O1  UNL     1      36.627  54.141  17.203  1.00  0.00    -0.311 OA
BRANCH  26  27
HETATM   27  C1  UNL     1      36.149  54.645  18.426  1.00  0.00     0.232 C 
HETATM   28  N1  UNL     1      34.906  54.397  18.650  1.00  0.00    -0.364 N 
ATOM     29  H12 UNL     1      34.559  54.762  19.537  1.00  0.00     0.159 HD
ATOM     30  H11 UNL     1      34.322  53.881  17.992  1.00  0.00     0.159 HD
BRANCH  27  31
HETATM   31  N2  UNL     1      36.953  55.357  19.333  1.00  0.00    -0.272 N 
ATOM     32  H2  UNL     1      37.235  54.921  20.211  1.00  0.00     0.190 HD
BRANCH  31  33
HETATM   33  N3  UNL     1      37.363  56.648  19.043  1.00  0.00    -0.342 N 
ATOM     34  H32 UNL     1      37.177  57.026  18.114  1.00  0.00     0.176 HD
ATOM     35  H31 UNL     1      37.844  57.207  19.748  1.00  0.00     0.176 HD
ENDBRANCH  31  33
ENDBRANCH  27  31
ENDBRANCH  26  27
ENDBRANCH   1  26
BRANCH   6  36
HETATM   36  O4  UNL     1      38.760  53.737  14.986  1.00  0.00    -0.391 OA
ATOM     37  H4  UNL     1      38.939  52.852  15.280  1.00  0.00     0.210 HD
ENDBRANCH   6  36
BRANCH   2  38
HETATM   38  O2  UNL     1      37.214  56.503  16.179  1.00  0.00    -0.392 OA
ATOM     39  H2  UNL     1      37.725  56.915  15.493  1.00  0.00     0.210 HD
ENDBRANCH   2  38
BRANCH   5  40
HETATM   40  N5  UNL     1      38.719  55.922  13.662  1.00  0.00    -0.070 N 
ATOM     41  H53 UNL     1      38.431  56.897  13.585  1.00  0.00     0.274 HD
ATOM     42  H52 UNL     1      38.910  55.869  14.663  1.00  0.00     0.274 HD
ATOM     43  H51 UNL     1      39.578  55.769  13.133  1.00  0.00     0.274 HD
ENDBRANCH   5  40
BRANCH   3  44
HETATM   44  C5  UNL     1      35.619  57.850  14.303  1.00  0.00     0.239 C 
BRANCH  44  45
HETATM   45  N4  UNL     1      34.409  58.379  14.850  1.00  0.00    -0.079 N 
ATOM     46  H43 UNL     1      33.600  57.824  14.568  1.00  0.00     0.274 HD
ATOM     47  H42 UNL     1      34.360  58.230  15.857  1.00  0.00     0.274 HD
ATOM     48  H41 UNL     1      34.285  59.363  14.613  1.00  0.00     0.274 HD
ENDBRANCH  44  45
ENDBRANCH   3  44
BRANCH   4  49
HETATM   49  O3  UNL     1      36.475  56.734  12.224  1.00  0.00    -0.393 OA
ATOM     50  H3  UNL     1      37.145  56.440  11.620  1.00  0.00     0.210 HD
ENDBRANCH   4  49
TORSDOF 21
ENDMDL
MODEL 4
REMARK VINA RESULT: -6.841667861      2.342      4.431
REMARK  21 active torsions:
REMARK  status: ('A' for Active; 'I' for Inactive)
REMARK    1  A    between atoms: C1_4  and  N2_5 
REMARK    2  A    between atoms: C1_4  and  O1_10 
REMARK    3  A    between atoms: N2_5  and  N3_7 
REMARK    4  A    between atoms: O1_10  and  C2_11 
REMARK    5  A    between atoms: C3_12  and  O2_13 
REMARK    6  A    between atoms: C4_15  and  C5_16 
REMARK    7  A    between atoms: C5_16  and  N4_17 
REMARK    8  A    between atoms: C6_21  and  O3_22 
REMARK    9  A    between atoms: C7_24  and  N5_25 
REMARK   10  A    between atoms: C8_29  and  O4_30 
REMARK   11  A    between atoms: C9_32  and  N6_33 
REMARK   12  A    between atoms: N6_33  and  C10_35 
REMARK   13  A    between atoms: C10_35  and  C11_36 
REMARK   14  A    between atoms: C11_36  and  N7_37 
REMARK   15  A    between atoms: N7_37  and  C12_40 
REMARK   16  A    between atoms: C12_40  and  C13_41 
REMARK   17  A    between atoms: C13_41  and  N8_42 
REMARK   18  A    between atoms: N8_42  and  C14_45 
REMARK   19  A    between atoms: C14_45  and  C15_46 
REMARK   20  A    between atoms: C15_46  and  N9_47 
REMARK   21  A    between atoms: N9_47  and  N10_48 
ROOT
HETATM    1  C2  UNL     1      35.893  54.451  16.658  1.00  0.00     0.186 C 
HETATM    2  C3  UNL     1      36.197  55.812  16.158  1.00  0.00     0.158 C 
HETATM    3  C4  UNL     1      35.640  56.124  14.809  1.00  0.00     0.073 C 
HETATM    4  C6  UNL     1      35.936  55.245  13.688  1.00  0.00     0.159 C 
HETATM    5  C7  UNL     1      37.094  54.321  13.721  1.00  0.00     0.243 C 
HETATM    6  C8  UNL     1      37.013  53.210  14.742  1.00  0.00     0.176 C 
HETATM    7  C9  UNL     1      35.874  53.338  15.674  1.00  0.00     0.139 C 
ENDROOT
BRANCH   7   8
HETATM    8  N6  UNL     1      35.663  52.103  16.384  1.00  0.00    -0.411 N 
ATOM      9  H6  UNL     1      35.567  52.067  17.399  1.00  0.00     0.153 HD
BRANCH   8  10
HETATM   10  C10 UNL     1      35.596  50.925  15.561  1.00  0.00     0.142 C 
BRANCH  10  11
HETATM   11  C11 UNL     1      34.546  49.967  16.162  1.00  0.00     0.251 C 
BRANCH  11  12
HETATM   12  N7  UNL     1      34.791  49.946  17.570  1.00  0.00    -0.072 N 
ATOM     13  H72 UNL     1      35.779  49.800  17.778  1.00  0.00     0.277 HD
ATOM     14  H71 UNL     1      34.681  50.871  17.984  1.00  0.00     0.277 HD
BRANCH  12  15
HETATM   15  C12 UNL     1      33.965  48.972  18.222  1.00  0.00     0.259 C 
BRANCH  15  16
HETATM   16  C13 UNL     1      34.195  49.033  19.708  1.00  0.00     0.259 C 
BRANCH  16  17
HETATM   17  N8  UNL     1      35.229  50.043  19.924  1.00  0.00    -0.072 N 
ATOM     18  H82 UNL     1      36.173  49.676  19.798  1.00  0.00     0.277 HD
ATOM     19  H81 UNL     1      35.257  50.745  19.184  1.00  0.00     0.277 HD
BRANCH  17  20
HETATM   20  C14 UNL     1      35.021  50.616  21.233  1.00  0.00     0.250 C 
BRANCH  20  21
HETATM   21  C15 UNL     1      33.571  51.098  21.353  1.00  0.00     0.161 C 
BRANCH  21  22
HETATM   22  N9  UNL     1      33.458  51.896  22.563  1.00  0.00    -0.147 NA
BRANCH  22  23
HETATM   23  N10 UNL     1      33.046  51.141  23.641  1.00  0.00    -0.348 N 
ATOM     24 2H10 UNL     1      33.675  50.843  24.386  1.00  0.00     0.172 HD
ATOM     25 1H10 UNL     1      32.050  50.925  23.595  1.00  0.00     0.172 HD
ENDBRANCH  22  23
ENDBRANCH  21  22
ENDBRANCH  20  21
ENDBRANCH  17  20
ENDBRANCH  16  17
ENDBRANCH  15  16
ENDBRANCH  12  15
ENDBRANCH  11  12
ENDBRANCH  10  11
ENDBRANCH   8  10
ENDBRANCH   7   8
BRANCH   1  26
HETATM   26  O1  UNL     1      36.673  54.178  17.805  1.00  0.00    -0.311 OA
BRANCH  26  27
HETATM   27  C1  UNL     1      36.286  54.621  19.084  1.00  0.00     0.232 C 
HETATM   28  N1  UNL     1      35.210  54.073  19.529  1.00  0.00    -0.364 N 
ATOM     29  H12 UNL     1      34.930  54.394  20.456  1.00  0.00     0.159 HD
ATOM     30  H11 UNL     1      34.686  53.378  18.997  1.00  0.00     0.159 HD
BRANCH  27  31
HETATM   31  N2  UNL     1      37.007  55.578  19.818  1.00  0.00    -0.272 N 
ATOM     32  H2  UNL     1      37.215  55.410  20.803  1.00  0.00     0.190 HD
BRANCH  31  33
HETATM   33  N3  UNL     1      37.437  56.748  19.214  1.00  0.00    -0.342 N 
ATOM     34  H32 UNL     1      37.976  56.685  18.350  1.00  0.00     0.176 HD
ATOM     35  H31 UNL     1      37.218  57.653  19.628  1.00  0.00     0.176 HD
ENDBRANCH  31  33
ENDBRANCH  27  31
ENDBRANCH  26  27
ENDBRANCH   1  26
BRANCH   6  36
HETATM   36  O4  UNL     1      38.235  53.012  15.392  1.00  0.00    -0.391 OA
ATOM     37  H4  UNL     1      38.971  53.175  14.813  1.00  0.00     0.210 HD
ENDBRANCH   6  36
BRANCH   2  38
HETATM   38  O2  UNL     1      37.528  56.189  16.324  1.00  0.00    -0.392 OA
ATOM     39  H2  UNL     1      38.012  56.260  15.510  1.00  0.00     0.210 HD
ENDBRANCH   2  38
BRANCH   5  40
HETATM   40  N5  UNL     1      38.397  54.957  13.742  1.00  0.00    -0.070 N 
ATOM     41  H53 UNL     1      38.816  54.865  14.667  1.00  0.00     0.274 HD
ATOM     42  H52 UNL     1      39.061  54.414  13.189  1.00  0.00     0.274 HD
ATOM     43  H51 UNL     1      38.411  55.934  13.448  1.00  0.00     0.274 HD
ENDBRANCH   5  40
BRANCH   3  44
HETATM   44  C5  UNL     1      35.923  57.609  14.512  1.00  0.00     0.239 C 
BRANCH  44  45
HETATM   45  N4  UNL     1      34.722  58.383  14.493  1.00  0.00    -0.079 N 
ATOM     46  H43 UNL     1      34.854  59.285  14.952  1.00  0.00     0.274 HD
ATOM     47  H42 UNL     1      34.509  58.714  13.552  1.00  0.00     0.274 HD
ATOM     48  H41 UNL     1      33.936  57.872  14.895  1.00  0.00     0.274 HD
ENDBRANCH  44  45
ENDBRANCH   3  44
BRANCH   4  49
HETATM   49  O3  UNL     1      36.139  56.066  12.544  1.00  0.00    -0.393 OA
ATOM     50  H3  UNL     1      36.397  55.498  11.828  1.00  0.00     0.210 HD
ENDBRANCH   4  49
TORSDOF 21
ENDMDL
MODEL 5
REMARK VINA RESULT: -6.816082686      2.568      4.811
REMARK  21 active torsions:
REMARK  status: ('A' for Active; 'I' for Inactive)
REMARK    1  A    between atoms: C1_4  and  N2_5 
REMARK    2  A    between atoms: C1_4  and  O1_10 
REMARK    3  A    between atoms: N2_5  and  N3_7 
REMARK    4  A    between atoms: O1_10  and  C2_11 
REMARK    5  A    between atoms: C3_12  and  O2_13 
REMARK    6  A    between atoms: C4_15  and  C5_16 
REMARK    7  A    between atoms: C5_16  and  N4_17 
REMARK    8  A    between atoms: C6_21  and  O3_22 
REMARK    9  A    between atoms: C7_24  and  N5_25 
REMARK   10  A    between atoms: C8_29  and  O4_30 
REMARK   11  A    between atoms: C9_32  and  N6_33 
REMARK   12  A    between atoms: N6_33  and  C10_35 
REMARK   13  A    between atoms: C10_35  and  C11_36 
REMARK   14  A    between atoms: C11_36  and  N7_37 
REMARK   15  A    between atoms: N7_37  and  C12_40 
REMARK   16  A    between atoms: C12_40  and  C13_41 
REMARK   17  A    between atoms: C13_41  and  N8_42 
REMARK   18  A    between atoms: N8_42  and  C14_45 
REMARK   19  A    between atoms: C14_45  and  C15_46 
REMARK   20  A    between atoms: C15_46  and  N9_47 
REMARK   21  A    between atoms: N9_47  and  N10_48 
ROOT
HETATM    1  C2  UNL     1      35.982  54.540  15.721  1.00  0.00     0.186 C 
HETATM    2  C3  UNL     1      35.950  56.005  15.503  1.00  0.00     0.158 C 
HETATM    3  C4  UNL     1      35.566  56.427  14.124  1.00  0.00     0.073 C 
HETATM    4  C6  UNL     1      36.299  55.901  12.982  1.00  0.00     0.159 C 
HETATM    5  C7  UNL     1      37.655  55.325  13.138  1.00  0.00     0.243 C 
HETATM    6  C8  UNL     1      37.733  54.049  13.944  1.00  0.00     0.176 C 
HETATM    7  C9  UNL     1      36.465  53.683  14.607  1.00  0.00     0.139 C 
ENDROOT
BRANCH   7   8
HETATM    8  N6  UNL     1      36.511  52.319  15.065  1.00  0.00    -0.411 N 
ATOM      9  H6  UNL     1      37.335  51.923  15.519  1.00  0.00     0.153 HD
BRANCH   8  10
HETATM   10  C10 UNL     1      35.314  51.555  14.839  1.00  0.00     0.142 C 
BRANCH  10  11
HETATM   11  C11 UNL     1      35.162  50.532  15.984  1.00  0.00     0.251 C 
BRANCH  11  12
HETATM   12  N7  UNL     1      35.571  51.209  17.175  1.00  0.00    -0.072 N 
ATOM     13  H72 UNL     1      36.439  50.825  17.547  1.00  0.00     0.277 HD
ATOM     14  H71 UNL     1      35.893  52.156  16.977  1.00  0.00     0.277 HD
BRANCH  12  15
HETATM   15  C12 UNL     1      34.526  51.201  18.157  1.00  0.00     0.259 C 
BRANCH  15  16
HETATM   16  C13 UNL     1      35.121  50.972  19.520  1.00  0.00     0.259 C 
BRANCH  16  17
HETATM   17  N8  UNL     1      35.043  49.534  19.768  1.00  0.00    -0.072 N 
ATOM     18  H82 UNL     1      34.529  49.035  19.041  1.00  0.00     0.277 HD
ATOM     19  H81 UNL     1      35.940  49.063  19.649  1.00  0.00     0.277 HD
BRANCH  17  20
HETATM   20  C14 UNL     1      34.480  49.342  21.084  1.00  0.00     0.250 C 
BRANCH  20  21
HETATM   21  C15 UNL     1      32.955  49.232  20.974  1.00  0.00     0.161 C 
BRANCH  21  22
HETATM   22  N9  UNL     1      32.642  48.506  19.754  1.00  0.00    -0.147 NA
BRANCH  22  23
HETATM   23  N10 UNL     1      31.677  49.146  19.006  1.00  0.00    -0.348 N 
ATOM     24 2H10 UNL     1      31.701  50.145  18.803  1.00  0.00     0.172 HD
ATOM     25 1H10 UNL     1      30.952  48.503  18.690  1.00  0.00     0.172 HD
ENDBRANCH  22  23
ENDBRANCH  21  22
ENDBRANCH  20  21
ENDBRANCH  17  20
ENDBRANCH  16  17
ENDBRANCH  15  16
ENDBRANCH  12  15
ENDBRANCH  11  12
ENDBRANCH  10  11
ENDBRANCH   8  10
ENDBRANCH   7   8
BRANCH   1  26
HETATM   26  O1  UNL     1      36.598  54.254  16.961  1.00  0.00    -0.311 OA
BRANCH  26  27
HETATM   27  C1  UNL     1      36.079  54.746  18.174  1.00  0.00     0.232 C 
HETATM   28  N1  UNL     1      34.813  54.566  18.318  1.00  0.00    -0.364 N 
ATOM     29  H12 UNL     1      34.438  54.923  19.197  1.00  0.00     0.159 HD
ATOM     30  H11 UNL     1      34.239  54.107  17.610  1.00  0.00     0.159 HD
BRANCH  27  31
HETATM   31  N2  UNL     1      36.869  55.378  19.149  1.00  0.00    -0.272 N 
ATOM     32  H2  UNL     1      37.064  54.903  20.030  1.00  0.00     0.190 HD
BRANCH  31  33
HETATM   33  N3  UNL     1      37.385  56.644  18.922  1.00  0.00    -0.342 N 
ATOM     34  H32 UNL     1      38.345  56.842  19.204  1.00  0.00     0.176 HD
ATOM     35  H31 UNL     1      36.811  57.363  18.481  1.00  0.00     0.176 HD
ENDBRANCH  31  33
ENDBRANCH  27  31
ENDBRANCH  26  27
ENDBRANCH   1  26
BRANCH   6  36
HETATM   36  O4  UNL     1      38.828  54.051  14.814  1.00  0.00    -0.391 OA
ATOM     37  H4  UNL     1      39.457  54.726  14.586  1.00  0.00     0.210 HD
ENDBRANCH   6  36
BRANCH   2  38
HETATM   38  O2  UNL     1      37.058  56.676  16.015  1.00  0.00    -0.392 OA
ATOM     39  H2  UNL     1      37.615  57.062  15.350  1.00  0.00     0.210 HD
ENDBRANCH   2  38
BRANCH   5  40
HETATM   40  N5  UNL     1      38.686  56.263  13.541  1.00  0.00    -0.070 N 
ATOM     41  H53 UNL     1      39.085  56.719  12.721  1.00  0.00     0.274 HD
ATOM     42  H52 UNL     1      38.265  57.067  14.007  1.00  0.00     0.274 HD
ATOM     43  H51 UNL     1      39.429  55.872  14.120  1.00  0.00     0.274 HD
ENDBRANCH   5  40
BRANCH   3  44
HETATM   44  C5  UNL     1      35.441  57.962  14.116  1.00  0.00     0.239 C 
BRANCH  44  45
HETATM   45  N4  UNL     1      34.427  58.416  15.014  1.00  0.00    -0.079 N 
ATOM     46  H43 UNL     1      34.465  59.428  15.137  1.00  0.00     0.274 HD
ATOM     47  H42 UNL     1      33.500  58.341  14.595  1.00  0.00     0.274 HD
ATOM     48  H41 UNL     1      34.471  57.930  15.910  1.00  0.00     0.274 HD
ENDBRANCH  44  45
ENDBRANCH   3  44
BRANCH   4  49
HETATM   49  O3  UNL     1      36.442  56.960  12.044  1.00  0.00    -0.393 OA
ATOM     50  H3  UNL     1      36.294  56.596  11.179  1.00  0.00     0.210 HD
ENDBRANCH   4  49
TORSDOF 21
ENDMDL
