MODEL 1
REMARK VINA RESULT: -6.158655420      0.000      0.000
REMARK  3 active torsions:
REMARK  status: ('A' for Active; 'I' for Inactive)
REMARK    1  A    between atoms: C6_8  and  C7_9 
REMARK    2  A    between atoms: C7_9  and  O3_10 
REMARK    3  A    between atoms: C8_12  and  O4_13 
ROOT
HETATM    1  C1  UNL     1      17.321   8.750  25.877  1.00  0.00     0.048 C 
HETATM    2  C2  UNL     1      18.186   7.731  26.632  1.00  0.00     0.076 C 
HETATM    3  C3  UNL     1      19.634   8.149  26.338  1.00  0.00     0.048 C 
HETATM    4  C4  UNL     1      17.976   6.382  26.102  1.00  0.00     0.208 C 
HETATM    5  O1  UNL     1      17.229   5.514  26.834  1.00  0.00    -0.356 OA
HETATM    6  C5  UNL     1      16.959   5.860  28.115  1.00  0.00     0.289 C 
HETATM    7  O2  UNL     1      16.785   4.828  29.002  1.00  0.00    -0.349 OA
HETATM    8  C6  UNL     1      16.105   5.351  30.104  1.00  0.00     0.177 C 
HETATM    9  C8  UNL     1      16.859   6.451  30.777  1.00  0.00     0.151 C 
HETATM   10  C9  UNL     1      18.134   6.833  30.112  1.00  0.00     0.071 C 
HETATM   11  C10 UNL     1      18.125   6.717  28.624  1.00  0.00     0.180 C 
HETATM   12  O5  UNL     1      17.974   7.927  27.963  1.00  0.00    -0.368 OA
ENDROOT
BRANCH   8  13
HETATM   13  C7  UNL     1      15.786   4.284  31.127  1.00  0.00     0.198 C 
BRANCH  13  14
HETATM   14  O3  UNL     1      14.454   4.372  31.502  1.00  0.00    -0.398 OA
ATOM     15  H3  UNL     1      13.895   4.243  30.745  1.00  0.00     0.209 HD
ENDBRANCH  13  14
ENDBRANCH   8  13
BRANCH   9  16
HETATM   16  O4  UNL     1      17.160   6.123  32.113  1.00  0.00    -0.393 OA
ATOM     17  H4  UNL     1      17.794   6.728  32.483  1.00  0.00     0.210 HD
ENDBRANCH   9  16
TORSDOF 3
ENDMDL
MODEL 2
REMARK VINA RESULT: -5.751276404      3.515      4.668
REMARK  3 active torsions:
REMARK  status: ('A' for Active; 'I' for Inactive)
REMARK    1  A    between atoms: C6_8  and  C7_9 
REMARK    2  A    between atoms: C7_9  and  O3_10 
REMARK    3  A    between atoms: C8_12  and  O4_13 
ROOT
HETATM    1  C1  UNL     1      18.159   4.312  22.848  1.00  0.00     0.048 C 
HETATM    2  C2  UNL     1      18.434   4.394  24.355  1.00  0.00     0.076 C 
HETATM    3  C3  UNL     1      19.348   3.197  24.656  1.00  0.00     0.048 C 
HETATM    4  C4  UNL     1      17.193   4.233  25.116  1.00  0.00     0.208 C 
HETATM    5  O1  UNL     1      16.639   5.337  25.682  1.00  0.00    -0.356 OA
HETATM    6  C5  UNL     1      17.402   6.454  25.735  1.00  0.00     0.289 C 
HETATM    7  O2  UNL     1      17.156   7.314  26.774  1.00  0.00    -0.349 OA
HETATM    8  C6  UNL     1      17.698   8.550  26.415  1.00  0.00     0.177 C 
HETATM    9  C8  UNL     1      19.171   8.484  26.176  1.00  0.00     0.151 C 
HETATM   10  C9  UNL     1      19.762   7.122  26.283  1.00  0.00     0.071 C 
HETATM   11  C10 UNL     1      18.869   6.015  25.835  1.00  0.00     0.180 C 
HETATM   12  O5  UNL     1      19.166   5.523  24.573  1.00  0.00    -0.368 OA
ENDROOT
BRANCH   8  13
HETATM   13  C7  UNL     1      17.422   9.610  27.457  1.00  0.00     0.198 C 
BRANCH  13  14
HETATM   14  O3  UNL     1      17.453   9.047  28.724  1.00  0.00    -0.398 OA
ATOM     15  H3  UNL     1      16.864   9.517  29.302  1.00  0.00     0.209 HD
ENDBRANCH  13  14
ENDBRANCH   8  13
BRANCH   9  16
HETATM   16  O4  UNL     1      19.873   9.321  27.065  1.00  0.00    -0.393 OA
ATOM     17  H4  UNL     1      19.279   9.803  27.629  1.00  0.00     0.210 HD
ENDBRANCH   9  16
TORSDOF 3
ENDMDL
MODEL 3
REMARK VINA RESULT: -5.686438300      2.797      4.262
REMARK  3 active torsions:
REMARK  status: ('A' for Active; 'I' for Inactive)
REMARK    1  A    between atoms: C6_8  and  C7_9 
REMARK    2  A    between atoms: C7_9  and  O3_10 
REMARK    3  A    between atoms: C8_12  and  O4_13 
ROOT
HETATM    1  C1  UNL     1      17.339  10.256  26.937  1.00  0.00     0.048 C 
HETATM    2  C2  UNL     1      18.080   9.044  27.515  1.00  0.00     0.076 C 
HETATM    3  C3  UNL     1      18.341   9.405  28.984  1.00  0.00     0.048 C 
HETATM    4  C4  UNL     1      19.371   8.860  26.846  1.00  0.00     0.208 C 
HETATM    5  O1  UNL     1      19.489   7.850  25.945  1.00  0.00    -0.356 OA
HETATM    6  C5  UNL     1      18.502   6.922  25.923  1.00  0.00     0.289 C 
HETATM    7  O2  UNL     1      18.861   5.659  25.529  1.00  0.00    -0.349 OA
HETATM    8  C6  UNL     1      17.687   5.001  25.156  1.00  0.00     0.177 C 
HETATM    9  C8  UNL     1      16.703   4.902  26.276  1.00  0.00     0.151 C 
HETATM   10  C9  UNL     1      17.117   5.581  27.534  1.00  0.00     0.071 C 
HETATM   11  C10 UNL     1      17.926   6.819  27.342  1.00  0.00     0.180 C 
HETATM   12  O5  UNL     1      17.210   7.995  27.508  1.00  0.00    -0.368 OA
ENDROOT
BRANCH   8  13
HETATM   13  C7  UNL     1      17.962   3.613  24.627  1.00  0.00     0.198 C 
BRANCH  13  14
HETATM   14  O3  UNL     1      16.853   3.139  23.943  1.00  0.00    -0.398 OA
ATOM     15  H3  UNL     1      17.095   2.904  23.055  1.00  0.00     0.209 HD
ENDBRANCH  13  14
ENDBRANCH   8  13
BRANCH   9  16
HETATM   16  O4  UNL     1      16.421   3.559  26.593  1.00  0.00    -0.393 OA
ATOM     17  H4  UNL     1      15.489   3.421  26.717  1.00  0.00     0.210 HD
ENDBRANCH   9  16
TORSDOF 3
ENDMDL
MODEL 4
REMARK VINA RESULT: -5.571004342      2.117      2.896
REMARK  3 active torsions:
REMARK  status: ('A' for Active; 'I' for Inactive)
REMARK    1  A    between atoms: C6_8  and  C7_9 
REMARK    2  A    between atoms: C7_9  and  O3_10 
REMARK    3  A    between atoms: C8_12  and  O4_13 
ROOT
HETATM    1  C1  UNL     1      17.455  12.039  27.145  1.00  0.00     0.048 C 
HETATM    2  C2  UNL     1      17.413  10.559  26.745  1.00  0.00     0.076 C 
HETATM    3  C3  UNL     1      18.042  10.511  25.344  1.00  0.00     0.048 C 
HETATM    4  C4  UNL     1      16.028  10.090  26.647  1.00  0.00     0.208 C 
HETATM    5  O1  UNL     1      15.547   9.299  27.642  1.00  0.00    -0.356 OA
HETATM    6  C5  UNL     1      16.448   8.781  28.511  1.00  0.00     0.289 C 
HETATM    7  O2  UNL     1      16.124   7.576  29.079  1.00  0.00    -0.349 OA
HETATM    8  C6  UNL     1      16.917   7.440  30.221  1.00  0.00     0.177 C 
HETATM    9  C8  UNL     1      18.379   7.456  29.910  1.00  0.00     0.151 C 
HETATM   10  C9  UNL     1      18.711   7.691  28.479  1.00  0.00     0.071 C 
HETATM   11  C10 UNL     1      17.771   8.597  27.757  1.00  0.00     0.180 C 
HETATM   12  O5  UNL     1      18.250   9.887  27.584  1.00  0.00    -0.368 OA
ENDROOT
BRANCH   8  13
HETATM   13  C7  UNL     1      16.597   6.174  30.982  1.00  0.00     0.198 C 
BRANCH  13  14
HETATM   14  O3  UNL     1      16.990   6.305  32.305  1.00  0.00    -0.398 OA
ATOM     15  H3  UNL     1      16.237   6.214  32.877  1.00  0.00     0.209 HD
ENDBRANCH  13  14
ENDBRANCH   8  13
BRANCH   9  16
HETATM   16  O4  UNL     1      18.998   6.251  30.296  1.00  0.00    -0.393 OA
ATOM     17  H4  UNL     1      18.363   5.626  30.628  1.00  0.00     0.210 HD
ENDBRANCH   9  16
TORSDOF 3
ENDMDL
MODEL 5
REMARK VINA RESULT: -5.487550711      1.966      5.542
REMARK  3 active torsions:
REMARK  status: ('A' for Active; 'I' for Inactive)
REMARK    1  A    between atoms: C6_8  and  C7_9 
REMARK    2  A    between atoms: C7_9  and  O3_10 
REMARK    3  A    between atoms: C8_12  and  O4_13 
ROOT
HETATM    1  C1  UNL     1      15.431   6.731  30.530  1.00  0.00     0.048 C 
HETATM    2  C2  UNL     1      16.711   6.362  29.770  1.00  0.00     0.076 C 
HETATM    3  C3  UNL     1      16.638   4.839  29.589  1.00  0.00     0.048 C 
HETATM    4  C4  UNL     1      17.896   6.677  30.572  1.00  0.00     0.208 C 
HETATM    5  O1  UNL     1      18.628   7.770  30.233  1.00  0.00    -0.356 OA
HETATM    6  C5  UNL     1      18.374   8.336  29.030  1.00  0.00     0.289 C 
HETATM    7  O2  UNL     1      19.424   8.977  28.422  1.00  0.00    -0.349 OA
HETATM    8  C6  UNL     1      18.877   9.834  27.465  1.00  0.00     0.177 C 
HETATM    9  C8  UNL     1      18.083   9.108  26.429  1.00  0.00     0.151 C 
HETATM   10  C9  UNL     1      17.958   7.641  26.651  1.00  0.00     0.071 C 
HETATM   11  C10 UNL     1      17.898   7.227  28.083  1.00  0.00     0.180 C 
HETATM   12  O5  UNL     1      16.622   6.919  28.530  1.00  0.00    -0.368 OA
ENDROOT
BRANCH   8  13
HETATM   13  C7  UNL     1      19.939  10.658  26.774  1.00  0.00     0.198 C 
BRANCH  13  14
HETATM   14  O3  UNL     1      21.091   9.904  26.612  1.00  0.00    -0.398 OA
ATOM     15  H3  UNL     1      21.831  10.356  26.999  1.00  0.00     0.209 HD
ENDBRANCH  13  14
ENDBRANCH   8  13
BRANCH   9  16
HETATM   16  O4  UNL     1      18.625   9.296  25.143  1.00  0.00    -0.393 OA
ATOM     17  H4  UNL     1      18.070   8.911  24.474  1.00  0.00     0.210 HD
ENDBRANCH   9  16
TORSDOF 3
ENDMDL
