MODEL 1
REMARK VINA RESULT: -5.308142809      0.000      0.000
REMARK  3 active torsions:
REMARK  status: ('A' for Active; 'I' for Inactive)
REMARK    1  A    between atoms: N1_3  and  C3_5 
REMARK    2  A    between atoms: C7_10  and  O2_11 
REMARK    3  A    between atoms: C8_13  and  O3_14 
ROOT
HETATM    1  C3  UNL     1      18.991   7.402  27.831  1.00  0.00     0.119 C 
HETATM    2  C4  UNL     1      17.634   6.751  28.142  1.00  0.00     0.052 C 
HETATM    3  C5  UNL     1      16.765   7.953  28.329  1.00  0.00     0.176 C 
HETATM    4  O1  UNL     1      17.552   9.083  28.139  1.00  0.00    -0.381 OA
HETATM    5  C6  UNL     1      18.798   8.671  28.670  1.00  0.00     0.175 C 
HETATM    6  C7  UNL     1      18.607   8.374  30.106  1.00  0.00     0.179 C 
HETATM    7  C8  UNL     1      18.403   6.976  30.501  1.00  0.00     0.164 C 
HETATM    8  C9  UNL     1      17.898   6.037  29.473  1.00  0.00     0.098 C 
HETATM    9  S1  UNL     1      16.417   5.132  30.008  1.00  0.00    -0.089 SA
ENDROOT
BRANCH   1  10
HETATM   10  N1  UNL     1      19.002   7.690  26.452  1.00  0.00    -0.395 N 
HETATM   11  C2  UNL     1      20.040   8.258  25.962  1.00  0.00     0.051 C 
HETATM   12  C1  UNL     1      20.134   8.601  24.502  1.00  0.00     0.054 C 
ATOM     13  H1  UNL     1      18.206   7.454  25.861  1.00  0.00     0.159 HD
ENDBRANCH   1  10
BRANCH   6  14
HETATM   14  O2  UNL     1      19.748   8.861  30.791  1.00  0.00    -0.390 OA
ATOM     15  H2  UNL     1      19.491   9.664  31.228  1.00  0.00     0.210 HD
ENDBRANCH   6  14
BRANCH   7  16
HETATM   16  O3  UNL     1      19.588   6.435  31.054  1.00  0.00    -0.392 OA
ATOM     17  H3  UNL     1      20.098   5.993  30.385  1.00  0.00     0.210 HD
ENDBRANCH   7  16
TORSDOF 3
ENDMDL
MODEL 2
REMARK VINA RESULT: -5.246452101      2.933      4.392
REMARK  3 active torsions:
REMARK  status: ('A' for Active; 'I' for Inactive)
REMARK    1  A    between atoms: N1_3  and  C3_5 
REMARK    2  A    between atoms: C7_10  and  O2_11 
REMARK    3  A    between atoms: C8_13  and  O3_14 
ROOT
HETATM    1  C3  UNL     1      17.102   6.841  30.770  1.00  0.00     0.119 C 
HETATM    2  C4  UNL     1      16.226   7.447  29.661  1.00  0.00     0.052 C 
HETATM    3  C5  UNL     1      17.055   7.175  28.447  1.00  0.00     0.176 C 
HETATM    4  O1  UNL     1      18.207   6.514  28.856  1.00  0.00    -0.381 OA
HETATM    5  C6  UNL     1      18.462   7.110  30.115  1.00  0.00     0.175 C 
HETATM    6  C7  UNL     1      18.708   8.552  29.896  1.00  0.00     0.179 C 
HETATM    7  C8  UNL     1      17.593   9.482  30.104  1.00  0.00     0.164 C 
HETATM    8  C9  UNL     1      16.218   8.939  30.014  1.00  0.00     0.098 C 
HETATM    9  S1  UNL     1      15.171   9.857  28.847  1.00  0.00    -0.089 SA
ENDROOT
BRANCH   1  10
HETATM   10  N1  UNL     1      16.813   5.463  30.816  1.00  0.00    -0.395 N 
HETATM   11  C2  UNL     1      15.629   5.104  31.145  1.00  0.00     0.051 C 
HETATM   12  C1  UNL     1      15.237   3.655  31.218  1.00  0.00     0.054 C 
ATOM     13  H1  UNL     1      17.527   4.771  30.593  1.00  0.00     0.159 HD
ENDBRANCH   1  10
BRANCH   6  14
HETATM   14  O2  UNL     1      19.765   8.932  30.760  1.00  0.00    -0.390 OA
ATOM     15  H2  UNL     1      19.369   9.261  31.559  1.00  0.00     0.210 HD
ENDBRANCH   6  14
BRANCH   7  16
HETATM   16  O3  UNL     1      17.726  10.152  31.343  1.00  0.00    -0.392 OA
ATOM     17  H3  UNL     1      17.741   9.529  32.061  1.00  0.00     0.210 HD
ENDBRANCH   7  16
TORSDOF 3
ENDMDL
MODEL 3
REMARK VINA RESULT: -5.214767309      3.111      4.286
REMARK  3 active torsions:
REMARK  status: ('A' for Active; 'I' for Inactive)
REMARK    1  A    between atoms: N1_3  and  C3_5 
REMARK    2  A    between atoms: C7_10  and  O2_11 
REMARK    3  A    between atoms: C8_13  and  O3_14 
ROOT
HETATM    1  C3  UNL     1      17.691   6.944  26.078  1.00  0.00     0.119 C 
HETATM    2  C4  UNL     1      18.536   8.171  25.702  1.00  0.00     0.052 C 
HETATM    3  C5  UNL     1      19.484   8.243  26.857  1.00  0.00     0.176 C 
HETATM    4  O1  UNL     1      19.183   7.196  27.721  1.00  0.00    -0.381 OA
HETATM    5  C6  UNL     1      17.775   7.105  27.601  1.00  0.00     0.175 C 
HETATM    6  C7  UNL     1      17.193   8.382  28.067  1.00  0.00     0.179 C 
HETATM    7  C8  UNL     1      16.837   9.387  27.059  1.00  0.00     0.164 C 
HETATM    8  C9  UNL     1      17.514   9.312  25.744  1.00  0.00     0.098 C 
HETATM    9  S1  UNL     1      18.298  10.879  25.263  1.00  0.00    -0.089 SA
ENDROOT
BRANCH   1  10
HETATM   10  N1  UNL     1      18.397   5.807  25.638  1.00  0.00    -0.395 N 
HETATM   11  C2  UNL     1      17.729   4.838  25.136  1.00  0.00     0.051 C 
HETATM   12  C1  UNL     1      18.403   3.588  24.643  1.00  0.00     0.054 C 
ATOM     13  H1  UNL     1      19.412   5.758  25.718  1.00  0.00     0.159 HD
ENDBRANCH   1  10
BRANCH   6  14
HETATM   14  O2  UNL     1      16.025   8.066  28.804  1.00  0.00    -0.390 OA
ATOM     15  H2  UNL     1      16.258   8.092  29.724  1.00  0.00     0.210 HD
ENDBRANCH   6  14
BRANCH   7  16
HETATM   16  O3  UNL     1      15.439   9.400  26.839  1.00  0.00    -0.392 OA
ATOM     17  H3  UNL     1      15.054   8.565  27.081  1.00  0.00     0.210 HD
ENDBRANCH   7  16
TORSDOF 3
ENDMDL
MODEL 4
REMARK VINA RESULT: -5.063885890      2.867      4.923
REMARK  3 active torsions:
REMARK  status: ('A' for Active; 'I' for Inactive)
REMARK    1  A    between atoms: N1_3  and  C3_5 
REMARK    2  A    between atoms: C7_10  and  O2_11 
REMARK    3  A    between atoms: C8_13  and  O3_14 
ROOT
HETATM    1  C3  UNL     1      16.341   5.980  29.834  1.00  0.00     0.119 C 
HETATM    2  C4  UNL     1      17.732   6.158  29.205  1.00  0.00     0.052 C 
HETATM    3  C5  UNL     1      18.542   6.577  30.391  1.00  0.00     0.176 C 
HETATM    4  O1  UNL     1      17.698   6.610  31.494  1.00  0.00    -0.381 OA
HETATM    5  C6  UNL     1      16.479   7.051  30.924  1.00  0.00     0.175 C 
HETATM    6  C7  UNL     1      16.699   8.401  30.363  1.00  0.00     0.179 C 
HETATM    7  C8  UNL     1      16.976   8.515  28.927  1.00  0.00     0.164 C 
HETATM    8  C9  UNL     1      17.516   7.324  28.233  1.00  0.00     0.098 C 
HETATM    9  S1  UNL     1      19.047   7.672  27.317  1.00  0.00    -0.089 SA
ENDROOT
BRANCH   1  10
HETATM   10  N1  UNL     1      16.302   4.684  30.385  1.00  0.00    -0.395 N 
HETATM   11  C2  UNL     1      15.288   4.360  31.096  1.00  0.00     0.051 C 
HETATM   12  C1  UNL     1      15.167   2.998  31.721  1.00  0.00     0.054 C 
ATOM     13  H1  UNL     1      17.061   4.023  30.223  1.00  0.00     0.159 HD
ENDBRANCH   1  10
BRANCH   6  14
HETATM   14  O2  UNL     1      15.542   9.168  30.649  1.00  0.00    -0.390 OA
ATOM     15  H2  UNL     1      15.831  10.052  30.839  1.00  0.00     0.210 HD
ENDBRANCH   6  14
BRANCH   7  16
HETATM   16  O3  UNL     1      15.825   8.952  28.228  1.00  0.00    -0.392 OA
ATOM     17  H3  UNL     1      15.651   9.868  28.409  1.00  0.00     0.210 HD
ENDBRANCH   7  16
TORSDOF 3
ENDMDL
MODEL 5
REMARK VINA RESULT: -5.047055257      2.329      3.003
REMARK  3 active torsions:
REMARK  status: ('A' for Active; 'I' for Inactive)
REMARK    1  A    between atoms: N1_3  and  C3_5 
REMARK    2  A    between atoms: C7_10  and  O2_11 
REMARK    3  A    between atoms: C8_13  and  O3_14 
ROOT
HETATM    1  C3  UNL     1      17.233   6.949  27.982  1.00  0.00     0.119 C 
HETATM    2  C4  UNL     1      16.961   8.456  27.854  1.00  0.00     0.052 C 
HETATM    3  C5  UNL     1      18.338   8.987  27.614  1.00  0.00     0.176 C 
HETATM    4  O1  UNL     1      19.216   7.910  27.611  1.00  0.00    -0.381 OA
HETATM    5  C6  UNL     1      18.642   7.054  28.581  1.00  0.00     0.175 C 
HETATM    6  C7  UNL     1      18.651   7.762  29.879  1.00  0.00     0.179 C 
HETATM    7  C8  UNL     1      17.423   8.445  30.302  1.00  0.00     0.164 C 
HETATM    8  C9  UNL     1      16.452   8.827  29.252  1.00  0.00     0.098 C 
HETATM    9  S1  UNL     1      16.001  10.587  29.312  1.00  0.00    -0.089 SA
ENDROOT
BRANCH   1  10
HETATM   10  N1  UNL     1      17.265   6.424  26.675  1.00  0.00    -0.395 N 
HETATM   11  C2  UNL     1      17.037   5.174  26.519  1.00  0.00     0.051 C 
HETATM   12  C1  UNL     1      17.052   4.534  25.160  1.00  0.00     0.054 C 
ATOM     13  H1  UNL     1      17.466   7.024  25.875  1.00  0.00     0.159 HD
ENDBRANCH   1  10
BRANCH   6  14
HETATM   14  O2  UNL     1      18.990   6.811  30.873  1.00  0.00    -0.390 OA
ATOM     15  H2  UNL     1      18.797   5.952  30.517  1.00  0.00     0.210 HD
ENDBRANCH   6  14
BRANCH   7  16
HETATM   16  O3  UNL     1      16.742   7.685  31.283  1.00  0.00    -0.392 OA
ATOM     17  H3  UNL     1      16.446   6.858  30.920  1.00  0.00     0.210 HD
ENDBRANCH   7  16
TORSDOF 3
ENDMDL
