MODEL 1
REMARK VINA RESULT: -5.459399613      0.000      0.000
REMARK  4 active torsions:
REMARK  status: ('A' for Active; 'I' for Inactive)
REMARK    1  A    between atoms: O1_1  and  C1_3 
REMARK    2  A    between atoms: C1_3  and  C2_4 
REMARK    3  A    between atoms: C8_12  and  O3_13 
REMARK    4  A    between atoms: C9_15  and  O4_16 
ROOT
HETATM    1  C2  UNL     1      16.740   8.858  29.684  1.00  0.00     0.063 C 
HETATM    2  C3  UNL     1      15.685   7.931  30.147  1.00  0.00    -0.020 C 
HETATM    3  C4  UNL     1      15.526   6.646  30.321  1.00  0.00    -0.010 C 
HETATM    4  C5  UNL     1      16.386   5.463  30.120  1.00  0.00     0.124 C 
HETATM    5  S1  UNL     1      16.842   5.370  28.366  1.00  0.00    -0.153 SA
HETATM    6  C6  UNL     1      17.955   6.788  28.075  1.00  0.00     0.109 C 
HETATM    7  C7  UNL     1      18.603   7.160  29.388  1.00  0.00     0.163 C 
HETATM    8  O2  UNL     1      18.718   6.111  30.254  1.00  0.00    -0.351 OA
HETATM    9  C8  UNL     1      17.652   5.648  30.906  1.00  0.00     0.274 C 
HETATM   10  C9  UNL     1      18.129   8.439  29.972  1.00  0.00     0.157 C 
ENDROOT
BRANCH   1  11
HETATM   11  C1  UNL     1      16.545  10.189  30.436  1.00  0.00     0.175 C 
BRANCH  11  12
HETATM   12  O1  UNL     1      16.802  10.057  31.779  1.00  0.00    -0.400 OA
ATOM     13  H1  UNL     1      16.705  10.883  32.238  1.00  0.00     0.209 HD
ENDBRANCH  11  12
ENDBRANCH   1  11
BRANCH  10  14
HETATM   14  O4  UNL     1      18.943   9.545  29.609  1.00  0.00    -0.392 OA
ATOM     15  H4  UNL     1      18.985   9.528  28.660  1.00  0.00     0.210 HD
ENDBRANCH  10  14
BRANCH   9  16
HETATM   16  O3  UNL     1      17.326   6.343  32.095  1.00  0.00    -0.370 OA
ATOM     17  H3  UNL     1      17.917   6.046  32.777  1.00  0.00     0.212 HD
ENDBRANCH   9  16
TORSDOF 4
ENDMDL
MODEL 2
REMARK VINA RESULT: -4.957872167      2.223      3.996
REMARK  4 active torsions:
REMARK  status: ('A' for Active; 'I' for Inactive)
REMARK    1  A    between atoms: O1_1  and  C1_3 
REMARK    2  A    between atoms: C1_3  and  C2_4 
REMARK    3  A    between atoms: C8_12  and  O3_13 
REMARK    4  A    between atoms: C9_15  and  O4_16 
ROOT
HETATM    1  C2  UNL     1      17.599   7.326  29.235  1.00  0.00     0.063 C 
HETATM    2  C3  UNL     1      17.583   6.560  27.971  1.00  0.00    -0.020 C 
HETATM    3  C4  UNL     1      17.865   6.754  26.711  1.00  0.00    -0.010 C 
HETATM    4  C5  UNL     1      18.359   7.905  25.930  1.00  0.00     0.124 C 
HETATM    5  S1  UNL     1      17.163   9.261  26.076  1.00  0.00    -0.153 SA
HETATM    6  C6  UNL     1      17.267   9.819  27.811  1.00  0.00     0.109 C 
HETATM    7  C7  UNL     1      18.637   9.464  28.343  1.00  0.00     0.163 C 
HETATM    8  O2  UNL     1      19.597   9.406  27.375  1.00  0.00    -0.351 OA
HETATM    9  C8  UNL     1      19.652   8.376  26.531  1.00  0.00     0.274 C 
HETATM   10  C9  UNL     1      18.648   8.364  29.338  1.00  0.00     0.157 C 
ENDROOT
BRANCH   1  11
HETATM   11  C1  UNL     1      17.889   6.330  30.375  1.00  0.00     0.175 C 
BRANCH  11  12
HETATM   12  O1  UNL     1      19.236   6.204  30.610  1.00  0.00    -0.400 OA
ATOM     13  H1  UNL     1      19.575   5.379  30.284  1.00  0.00     0.209 HD
ENDBRANCH  11  12
ENDBRANCH   1  11
BRANCH  10  14
HETATM   14  O4  UNL     1      18.588   8.834  30.678  1.00  0.00    -0.392 OA
ATOM     15  H4  UNL     1      18.601   9.781  30.615  1.00  0.00     0.210 HD
ENDBRANCH  10  14
BRANCH   9  16
HETATM   16  O3  UNL     1      20.344   7.240  27.014  1.00  0.00    -0.370 OA
ATOM     17  H3  UNL     1      21.215   7.519  27.275  1.00  0.00     0.212 HD
ENDBRANCH   9  16
TORSDOF 4
ENDMDL
MODEL 3
REMARK VINA RESULT: -4.937499762      1.949      2.187
REMARK  4 active torsions:
REMARK  status: ('A' for Active; 'I' for Inactive)
REMARK    1  A    between atoms: O1_1  and  C1_3 
REMARK    2  A    between atoms: C1_3  and  C2_4 
REMARK    3  A    between atoms: C8_12  and  O3_13 
REMARK    4  A    between atoms: C9_15  and  O4_16 
ROOT
HETATM    1  C2  UNL     1      15.877   8.139  29.141  1.00  0.00     0.063 C 
HETATM    2  C3  UNL     1      15.977   7.914  30.599  1.00  0.00    -0.020 C 
HETATM    3  C4  UNL     1      16.607   7.117  31.420  1.00  0.00    -0.010 C 
HETATM    4  C5  UNL     1      17.567   6.009  31.249  1.00  0.00     0.124 C 
HETATM    5  S1  UNL     1      16.774   4.701  30.274  1.00  0.00    -0.153 SA
HETATM    6  C6  UNL     1      16.583   5.391  28.595  1.00  0.00     0.109 C 
HETATM    7  C7  UNL     1      17.632   6.461  28.400  1.00  0.00     0.163 C 
HETATM    8  O2  UNL     1      18.753   6.267  29.151  1.00  0.00    -0.351 OA
HETATM    9  C8  UNL     1      18.745   6.508  30.462  1.00  0.00     0.274 C 
HETATM   10  C9  UNL     1      17.102   7.847  28.365  1.00  0.00     0.157 C 
ENDROOT
BRANCH   1  11
HETATM   11  C1  UNL     1      15.598   9.640  28.925  1.00  0.00     0.175 C 
BRANCH  11  12
HETATM   12  O1  UNL     1      14.550   9.843  28.062  1.00  0.00    -0.400 OA
ATOM     13  H1  UNL     1      14.289   9.039  27.630  1.00  0.00     0.209 HD
ENDBRANCH  11  12
ENDBRANCH   1  11
BRANCH  10  14
HETATM   14  O4  UNL     1      16.833   8.301  27.046  1.00  0.00    -0.392 OA
ATOM     15  H4  UNL     1      17.628   8.135  26.554  1.00  0.00     0.210 HD
ENDBRANCH  10  14
BRANCH   9  16
HETATM   16  O3  UNL     1      18.969   7.857  30.827  1.00  0.00    -0.370 OA
ATOM     17  H3  UNL     1      19.904   7.975  30.946  1.00  0.00     0.212 HD
ENDBRANCH   9  16
TORSDOF 4
ENDMDL
MODEL 4
REMARK VINA RESULT: -4.917450077      1.884      3.945
REMARK  4 active torsions:
REMARK  status: ('A' for Active; 'I' for Inactive)
REMARK    1  A    between atoms: O1_1  and  C1_3 
REMARK    2  A    between atoms: C1_3  and  C2_4 
REMARK    3  A    between atoms: C8_12  and  O3_13 
REMARK    4  A    between atoms: C9_15  and  O4_16 
ROOT
HETATM    1  C2  UNL     1      16.769   6.634  29.029  1.00  0.00     0.063 C 
HETATM    2  C3  UNL     1      18.051   6.921  28.353  1.00  0.00    -0.020 C 
HETATM    3  C4  UNL     1      18.854   7.937  28.179  1.00  0.00    -0.010 C 
HETATM    4  C5  UNL     1      18.840   9.349  28.609  1.00  0.00     0.124 C 
HETATM    5  S1  UNL     1      17.361  10.147  27.925  1.00  0.00    -0.153 SA
HETATM    6  C6  UNL     1      15.949   9.396  28.806  1.00  0.00     0.109 C 
HETATM    7  C7  UNL     1      16.439   8.891  30.143  1.00  0.00     0.163 C 
HETATM    8  O2  UNL     1      17.514   9.580  30.624  1.00  0.00    -0.351 OA
HETATM    9  C8  UNL     1      18.728   9.396  30.105  1.00  0.00     0.274 C 
HETATM   10  C9  UNL     1      16.507   7.413  30.259  1.00  0.00     0.157 C 
ENDROOT
BRANCH   1  11
HETATM   11  C1  UNL     1      16.802   5.158  29.473  1.00  0.00     0.175 C 
BRANCH  11  12
HETATM   12  O1  UNL     1      17.479   4.999  30.657  1.00  0.00    -0.400 OA
ATOM     13  H1  UNL     1      17.308   4.151  31.049  1.00  0.00     0.209 HD
ENDBRANCH  11  12
ENDBRANCH   1  11
BRANCH  10  14
HETATM   14  O4  UNL     1      15.330   6.851  30.822  1.00  0.00    -0.392 OA
ATOM     15  H4  UNL     1      14.613   7.377  30.491  1.00  0.00     0.210 HD
ENDBRANCH  10  14
BRANCH   9  16
HETATM   16  O3  UNL     1      19.445   8.295  30.629  1.00  0.00    -0.370 OA
ATOM     17  H3  UNL     1      18.865   7.542  30.626  1.00  0.00     0.212 HD
ENDBRANCH   9  16
TORSDOF 4
ENDMDL
MODEL 5
REMARK VINA RESULT: -4.849712778      2.247      3.826
REMARK  4 active torsions:
REMARK  status: ('A' for Active; 'I' for Inactive)
REMARK    1  A    between atoms: O1_1  and  C1_3 
REMARK    2  A    between atoms: C1_3  and  C2_4 
REMARK    3  A    between atoms: C8_12  and  O3_13 
REMARK    4  A    between atoms: C9_15  and  O4_16 
ROOT
HETATM    1  C2  UNL     1      17.017   7.137  30.596  1.00  0.00     0.063 C 
HETATM    2  C3  UNL     1      15.821   7.808  30.043  1.00  0.00    -0.020 C 
HETATM    3  C4  UNL     1      15.545   8.828  29.276  1.00  0.00    -0.010 C 
HETATM    4  C5  UNL     1      16.358   9.836  28.568  1.00  0.00     0.124 C 
HETATM    5  S1  UNL     1      17.322  10.766  29.791  1.00  0.00    -0.153 SA
HETATM    6  C6  UNL     1      18.548   9.583  30.448  1.00  0.00     0.109 C 
HETATM    7  C7  UNL     1      18.784   8.516  29.404  1.00  0.00     0.163 C 
HETATM    8  O2  UNL     1      18.569   8.947  28.128  1.00  0.00    -0.351 OA
HETATM    9  C8  UNL     1      17.331   9.128  27.670  1.00  0.00     0.274 C 
HETATM   10  C9  UNL     1      18.226   7.184  29.745  1.00  0.00     0.157 C 
ENDROOT
BRANCH   1  11
HETATM   11  C1  UNL     1      16.676   5.642  30.749  1.00  0.00     0.175 C 
BRANCH  11  12
HETATM   12  O1  UNL     1      16.732   4.981  29.547  1.00  0.00    -0.400 OA
ATOM     13  H1  UNL     1      17.338   5.398  28.945  1.00  0.00     0.209 HD
ENDBRANCH  11  12
ENDBRANCH   1  11
BRANCH  10  14
HETATM   14  O4  UNL     1      19.172   6.337  30.382  1.00  0.00    -0.392 OA
ATOM     15  H4  UNL     1      19.118   6.546  31.306  1.00  0.00     0.210 HD
ENDBRANCH  10  14
BRANCH   9  16
HETATM   16  O3  UNL     1      16.696   7.963  27.177  1.00  0.00    -0.370 OA
ATOM     17  H3  UNL     1      17.274   7.227  27.336  1.00  0.00     0.212 HD
ENDBRANCH   9  16
TORSDOF 4
ENDMDL
