MODEL 1
REMARK VINA RESULT: -9.664972509      0.000      0.000
REMARK  1 active torsions:
REMARK  status: ('A' for Active; 'I' for Inactive)
REMARK       I    between atoms: C1_4  and  N2_5 
REMARK       I    between atoms: C1_4  and  N3_21 
REMARK    1  A    between atoms: N3_21  and  N4_23 
ROOT
HETATM    1  N1  UNL     1      42.179  18.892  64.217  1.00  0.00    -0.233 N 
ATOM      2  H11 UNL     1      42.660  18.086  64.616  1.00  0.00     0.174 HD
ATOM      3  H12 UNL     1      41.191  18.798  63.980  1.00  0.00     0.174 HD
HETATM    4  C1  UNL     1      42.846  19.972  64.037  1.00  0.00     0.690 C 
HETATM    5  N2  UNL     1      42.179  21.094  63.482  1.00  0.00    -0.198 N 
ATOM      6  H2  UNL     1      42.056  21.180  62.474  1.00  0.00     0.183 HD
HETATM    7  C2  UNL     1      41.733  21.994  64.274  1.00  0.00     0.004 C 
HETATM    8  C3  UNL     1      41.909  21.877  65.765  1.00  0.00     0.053 C 
HETATM    9  C4  UNL     1      42.754  22.993  66.312  1.00  0.00     0.006 C 
HETATM   10  C5  UNL     1      41.920  23.962  67.170  1.00  0.00     0.000 C 
HETATM   11  C6  UNL     1      42.436  25.330  66.923  1.00  0.00     0.000 C 
HETATM   12  C7  UNL     1      41.664  26.469  67.408  1.00  0.00     0.000 C 
HETATM   13  C8  UNL     1      40.183  26.309  67.543  1.00  0.00     0.000 C 
HETATM   14  C9  UNL     1      39.430  26.855  66.350  1.00  0.00     0.000 C 
HETATM   15  C10 UNL     1      38.578  25.805  65.678  1.00  0.00     0.000 C 
HETATM   16  C11 UNL     1      38.303  26.139  64.227  1.00  0.00     0.000 C 
HETATM   17  C12 UNL     1      39.022  25.203  63.276  1.00  0.00     0.000 C 
HETATM   18  C13 UNL     1      38.611  23.782  63.405  1.00  0.00     0.000 C 
HETATM   19  C14 UNL     1      39.700  22.787  63.077  1.00  0.00     0.006 C 
HETATM   20  C15 UNL     1      41.036  23.164  63.681  1.00  0.00     0.053 C 
HETATM   21  N3  UNL     1      44.217  20.104  64.367  1.00  0.00    -0.139 N 
ATOM     22  H3  UNL     1      44.590  19.619  65.182  1.00  0.00     0.205 HD
ENDROOT
BRANCH  21  23
HETATM   23  N4  UNL     1      45.064  20.894  63.580  1.00  0.00    -0.331 N 
ATOM     24  H42 UNL     1      44.823  21.874  63.431  1.00  0.00     0.177 HD
ATOM     25  H41 UNL     1      45.905  20.494  63.163  1.00  0.00     0.177 HD
ENDBRANCH  21  23
TORSDOF 1
ENDMDL
MODEL 2
REMARK VINA RESULT: -9.337318236      1.166      3.784
REMARK  1 active torsions:
REMARK  status: ('A' for Active; 'I' for Inactive)
REMARK       I    between atoms: C1_4  and  N2_5 
REMARK       I    between atoms: C1_4  and  N3_21 
REMARK    1  A    between atoms: N3_21  and  N4_23 
ROOT
HETATM    1  N1  UNL     1      43.359  19.715  62.405  1.00  0.00    -0.233 N 
ATOM      2  H11 UNL     1      43.430  19.216  61.519  1.00  0.00     0.174 HD
ATOM      3  H12 UNL     1      44.191  20.184  62.763  1.00  0.00     0.174 HD
HETATM    4  C1  UNL     1      42.231  19.721  63.014  1.00  0.00     0.690 C 
HETATM    5  N2  UNL     1      42.133  20.415  64.246  1.00  0.00    -0.198 N 
ATOM      6  H2  UNL     1      42.429  19.974  65.117  1.00  0.00     0.183 HD
HETATM    7  C2  UNL     1      41.665  21.605  64.244  1.00  0.00     0.004 C 
HETATM    8  C3  UNL     1      41.224  22.265  62.963  1.00  0.00     0.053 C 
HETATM    9  C4  UNL     1      39.754  22.579  62.981  1.00  0.00     0.006 C 
HETATM   10  C5  UNL     1      39.504  24.097  63.054  1.00  0.00     0.000 C 
HETATM   11  C6  UNL     1      38.316  24.310  63.915  1.00  0.00     0.000 C 
HETATM   12  C7  UNL     1      38.009  25.663  64.364  1.00  0.00     0.000 C 
HETATM   13  C8  UNL     1      39.141  26.632  64.505  1.00  0.00     0.000 C 
HETATM   14  C9  UNL     1      39.642  26.735  65.928  1.00  0.00     0.000 C 
HETATM   15  C10 UNL     1      41.106  26.388  66.049  1.00  0.00     0.000 C 
HETATM   16  C11 UNL     1      41.468  25.925  67.444  1.00  0.00     0.000 C 
HETATM   17  C12 UNL     1      41.805  24.448  67.491  1.00  0.00     0.000 C 
HETATM   18  C13 UNL     1      42.982  24.073  66.668  1.00  0.00     0.000 C 
HETATM   19  C14 UNL     1      42.927  22.672  66.104  1.00  0.00     0.006 C 
HETATM   20  C15 UNL     1      41.567  22.322  65.541  1.00  0.00     0.053 C 
HETATM   21  N3  UNL     1      41.076  19.070  62.517  1.00  0.00    -0.139 N 
ATOM     22  H3  UNL     1      40.907  19.037  61.511  1.00  0.00     0.205 HD
ENDROOT
BRANCH  21  23
HETATM   23  N4  UNL     1      40.164  18.473  63.395  1.00  0.00    -0.331 N 
ATOM     24  H42 UNL     1      40.313  17.502  63.671  1.00  0.00     0.177 HD
ATOM     25  H41 UNL     1      39.367  19.000  63.750  1.00  0.00     0.177 HD
ENDBRANCH  21  23
TORSDOF 1
ENDMDL
MODEL 3
REMARK VINA RESULT: -9.251377816      0.956      1.102
REMARK  1 active torsions:
REMARK  status: ('A' for Active; 'I' for Inactive)
REMARK       I    between atoms: C1_4  and  N2_5 
REMARK       I    between atoms: C1_4  and  N3_21 
REMARK    1  A    between atoms: N3_21  and  N4_23 
ROOT
HETATM    1  N1  UNL     1      41.066  18.879  63.800  1.00  0.00    -0.233 N 
ATOM      2  H11 UNL     1      41.393  17.944  64.042  1.00  0.00     0.174 HD
ATOM      3  H12 UNL     1      40.060  19.047  63.771  1.00  0.00     0.174 HD
HETATM    4  C1  UNL     1      41.937  19.785  63.547  1.00  0.00     0.690 C 
HETATM    5  N2  UNL     1      41.482  21.085  63.211  1.00  0.00    -0.198 N 
ATOM      6  H2  UNL     1      41.197  21.306  62.257  1.00  0.00     0.183 HD
HETATM    7  C2  UNL     1      41.437  21.974  64.129  1.00  0.00     0.004 C 
HETATM    8  C3  UNL     1      41.856  21.657  65.541  1.00  0.00     0.053 C 
HETATM    9  C4  UNL     1      43.044  22.477  65.962  1.00  0.00     0.006 C 
HETATM   10  C5  UNL     1      42.660  23.517  67.031  1.00  0.00     0.000 C 
HETATM   11  C6  UNL     1      43.448  24.743  66.761  1.00  0.00     0.000 C 
HETATM   12  C7  UNL     1      43.096  25.973  67.462  1.00  0.00     0.000 C 
HETATM   13  C8  UNL     1      41.675  26.153  67.896  1.00  0.00     0.000 C 
HETATM   14  C9  UNL     1      40.873  26.987  66.922  1.00  0.00     0.000 C 
HETATM   15  C10 UNL     1      39.672  26.246  66.384  1.00  0.00     0.000 C 
HETATM   16  C11 UNL     1      39.222  26.791  65.045  1.00  0.00     0.000 C 
HETATM   17  C12 UNL     1      39.486  25.820  63.911  1.00  0.00     0.000 C 
HETATM   18  C13 UNL     1      38.762  24.531  64.041  1.00  0.00     0.000 C 
HETATM   19  C14 UNL     1      39.482  23.348  63.435  1.00  0.00     0.006 C 
HETATM   20  C15 UNL     1      40.959  23.332  63.765  1.00  0.00     0.053 C 
HETATM   21  N3  UNL     1      43.334  19.552  63.588  1.00  0.00    -0.139 N 
ATOM     22  H3  UNL     1      43.720  18.908  64.278  1.00  0.00     0.205 HD
ENDROOT
BRANCH  21  23
HETATM   23  N4  UNL     1      44.188  20.201  62.689  1.00  0.00    -0.331 N 
ATOM     24  H42 UNL     1      43.945  20.207  61.698  1.00  0.00     0.177 HD
ATOM     25  H41 UNL     1      45.037  20.659  63.020  1.00  0.00     0.177 HD
ENDBRANCH  21  23
TORSDOF 1
ENDMDL
MODEL 4
REMARK VINA RESULT: -9.095293796      1.348      1.610
REMARK  1 active torsions:
REMARK  status: ('A' for Active; 'I' for Inactive)
REMARK       I    between atoms: C1_4  and  N2_5 
REMARK       I    between atoms: C1_4  and  N3_21 
REMARK    1  A    between atoms: N3_21  and  N4_23 
ROOT
HETATM    1  N1  UNL     1      43.648  19.386  65.970  1.00  0.00    -0.233 N 
ATOM      2  H11 UNL     1      44.158  18.838  66.662  1.00  0.00     0.174 HD
ATOM      3  H12 UNL     1      42.852  18.952  65.501  1.00  0.00     0.174 HD
HETATM    4  C1  UNL     1      44.037  20.583  65.731  1.00  0.00     0.690 C 
HETATM    5  N2  UNL     1      43.329  21.345  64.768  1.00  0.00    -0.198 N 
ATOM      6  H2  UNL     1      43.529  21.243  63.773  1.00  0.00     0.183 HD
HETATM    7  C2  UNL     1      42.433  22.163  65.174  1.00  0.00     0.004 C 
HETATM    8  C3  UNL     1      42.130  22.321  66.641  1.00  0.00     0.053 C 
HETATM    9  C4  UNL     1      42.433  23.714  67.121  1.00  0.00     0.006 C 
HETATM   10  C5  UNL     1      41.144  24.483  67.466  1.00  0.00     0.000 C 
HETATM   11  C6  UNL     1      41.345  25.893  67.056  1.00  0.00     0.000 C 
HETATM   12  C7  UNL     1      40.193  26.788  67.030  1.00  0.00     0.000 C 
HETATM   13  C8  UNL     1      38.843  26.190  66.789  1.00  0.00     0.000 C 
HETATM   14  C9  UNL     1      38.414  26.294  65.343  1.00  0.00     0.000 C 
HETATM   15  C10 UNL     1      38.130  24.944  64.729  1.00  0.00     0.000 C 
HETATM   16  C11 UNL     1      38.274  24.963  63.222  1.00  0.00     0.000 C 
HETATM   17  C12 UNL     1      39.480  24.175  62.749  1.00  0.00     0.000 C 
HETATM   18  C13 UNL     1      39.427  22.732  63.090  1.00  0.00     0.000 C 
HETATM   19  C14 UNL     1      40.778  22.094  63.316  1.00  0.00     0.006 C 
HETATM   20  C15 UNL     1      41.696  22.955  64.156  1.00  0.00     0.053 C 
HETATM   21  N3  UNL     1      45.142  21.186  66.382  1.00  0.00    -0.139 N 
ATOM     22  H3  UNL     1      45.335  20.965  67.359  1.00  0.00     0.205 HD
ENDROOT
BRANCH  21  23
HETATM   23  N4  UNL     1      45.969  22.081  65.695  1.00  0.00    -0.331 N 
ATOM     24  H42 UNL     1      46.598  21.718  64.979  1.00  0.00     0.177 HD
ATOM     25  H41 UNL     1      45.942  23.079  65.908  1.00  0.00     0.177 HD
ENDBRANCH  21  23
TORSDOF 1
ENDMDL
MODEL 5
REMARK VINA RESULT: -9.079809665      3.498      6.643
REMARK  1 active torsions:
REMARK  status: ('A' for Active; 'I' for Inactive)
REMARK       I    between atoms: C1_4  and  N2_5 
REMARK       I    between atoms: C1_4  and  N3_21 
REMARK    1  A    between atoms: N3_21  and  N4_23 
ROOT
HETATM    1  N1  UNL     1      38.096  26.654  66.495  1.00  0.00    -0.233 N 
ATOM      2  H11 UNL     1      37.237  27.158  66.280  1.00  0.00     0.174 HD
ATOM      3  H12 UNL     1      38.174  26.199  67.405  1.00  0.00     0.174 HD
HETATM    4  C1  UNL     1      39.024  26.623  65.612  1.00  0.00     0.690 C 
HETATM    5  N2  UNL     1      40.219  25.922  65.911  1.00  0.00    -0.198 N 
ATOM      6  H2  UNL     1      40.960  26.364  66.455  1.00  0.00     0.183 HD
HETATM    7  C2  UNL     1      40.349  24.723  65.485  1.00  0.00     0.004 C 
HETATM    8  C3  UNL     1      39.261  24.060  64.681  1.00  0.00     0.053 C 
HETATM    9  C4  UNL     1      39.729  23.718  63.294  1.00  0.00     0.006 C 
HETATM   10  C5  UNL     1      39.861  22.195  63.105  1.00  0.00     0.000 C 
HETATM   11  C6  UNL     1      41.045  21.955  62.246  1.00  0.00     0.000 C 
HETATM   12  C7  UNL     1      41.553  20.594  62.116  1.00  0.00     0.000 C 
HETATM   13  C8  UNL     1      41.327  19.647  63.251  1.00  0.00     0.000 C 
HETATM   14  C9  UNL     1      42.524  19.548  64.170  1.00  0.00     0.000 C 
HETATM   15  C10 UNL     1      42.189  19.922  65.594  1.00  0.00     0.000 C 
HETATM   16  C11 UNL     1      43.409  20.385  66.362  1.00  0.00     0.000 C 
HETATM   17  C12 UNL     1      43.364  21.868  66.672  1.00  0.00     0.000 C 
HETATM   18  C13 UNL     1      42.221  22.270  67.530  1.00  0.00     0.000 C 
HETATM   19  C14 UNL     1      41.717  23.672  67.280  1.00  0.00     0.006 C 
HETATM   20  C15 UNL     1      41.605  23.998  65.806  1.00  0.00     0.053 C 
HETATM   21  N3  UNL     1      38.915  27.254  64.348  1.00  0.00    -0.139 N 
ATOM     22  H3  UNL     1      38.012  27.288  63.876  1.00  0.00     0.205 HD
ENDROOT
BRANCH  21  23
HETATM   23  N4  UNL     1      40.039  27.829  63.743  1.00  0.00    -0.331 N 
ATOM     24  H42 UNL     1      40.169  27.714  62.739  1.00  0.00     0.177 HD
ATOM     25  H41 UNL     1      40.714  28.354  64.300  1.00  0.00     0.177 HD
ENDBRANCH  21  23
TORSDOF 1
ENDMDL
