MODEL 1
REMARK VINA RESULT: -11.025694271      0.000      0.000
REMARK  0 active torsions:
REMARK  status: ('A' for Active; 'I' for Inactive)
ROOT
HETATM    1  C1  UNL     1      43.967  20.298  65.908  1.00  0.00     0.072 C 
HETATM    2  C2  UNL     1      43.516  21.538  66.139  1.00  0.00     0.139 A 
HETATM    3  N1  UNL     1      42.403  22.005  65.477  1.00  0.00    -0.336 N 
ATOM      4  H1  UNL     1      41.966  21.359  64.819  1.00  0.00     0.168 HD
HETATM    5  C3  UNL     1      41.773  23.317  65.605  1.00  0.00     0.064 A 
HETATM    6  C4  UNL     1      40.914  23.676  64.691  1.00  0.00     0.072 A 
HETATM    7  C5  UNL     1      40.582  22.936  63.460  1.00  0.00     0.259 A 
HETATM    8  O1  UNL     1      41.399  22.110  62.897  1.00  0.00    -0.267 OA
HETATM    9  N2  UNL     1      39.318  23.213  62.957  1.00  0.00    -0.322 N 
ATOM     10  H2  UNL     1      38.893  22.817  62.119  1.00  0.00     0.169 HD
HETATM   11  C6  UNL     1      38.738  24.153  63.838  1.00  0.00     0.046 A 
HETATM   12  C7  UNL     1      37.443  24.634  63.786  1.00  0.00     0.030 A 
HETATM   13  C8  UNL     1      36.939  25.443  64.777  1.00  0.00     0.002 A 
HETATM   14  C9  UNL     1      37.783  25.741  65.811  1.00  0.00     0.001 A 
HETATM   15  C10 UNL     1      39.067  25.249  65.831  1.00  0.00     0.015 A 
HETATM   16  C11 UNL     1      39.634  24.453  64.879  1.00  0.00     0.009 A 
HETATM   17  C12 UNL     1      42.501  24.150  66.555  1.00  0.00     0.026 A 
HETATM   18  C13 UNL     1      42.177  25.459  66.789  1.00  0.00     0.016 A 
HETATM   19  C14 UNL     1      42.855  26.296  67.642  1.00  0.00     0.001 A 
HETATM   20  C15 UNL     1      43.947  25.795  68.314  1.00  0.00     0.003 A 
HETATM   21  C16 UNL     1      44.304  24.490  68.082  1.00  0.00     0.038 A 
HETATM   22  C17 UNL     1      43.635  23.646  67.217  1.00  0.00     0.090 A 
HETATM   23  O2  UNL     1      44.144  22.376  67.034  1.00  0.00    -0.294 OA
ENDROOT
TORSDOF 0
ENDMDL
MODEL 2
REMARK VINA RESULT: -10.680870303      1.242      5.302
REMARK  0 active torsions:
REMARK  status: ('A' for Active; 'I' for Inactive)
ROOT
HETATM    1  C1  UNL     1      41.296  20.866  61.970  1.00  0.00     0.072 C 
HETATM    2  C2  UNL     1      40.932  21.807  62.851  1.00  0.00     0.139 A 
HETATM    3  N1  UNL     1      41.737  22.094  63.931  1.00  0.00    -0.336 N 
ATOM      4  H1  UNL     1      42.598  21.551  64.007  1.00  0.00     0.168 HD
HETATM    5  C3  UNL     1      41.504  23.082  64.981  1.00  0.00     0.064 A 
HETATM    6  C4  UNL     1      42.223  23.004  66.066  1.00  0.00     0.072 A 
HETATM    7  C5  UNL     1      43.189  21.943  66.404  1.00  0.00     0.259 A 
HETATM    8  O1  UNL     1      43.114  20.748  65.922  1.00  0.00    -0.267 OA
HETATM    9  N2  UNL     1      44.179  22.342  67.291  1.00  0.00    -0.322 N 
ATOM     10  H2  UNL     1      44.939  21.769  67.658  1.00  0.00     0.169 HD
HETATM   11  C6  UNL     1      43.925  23.700  67.587  1.00  0.00     0.046 A 
HETATM   12  C7  UNL     1      44.720  24.537  68.346  1.00  0.00     0.030 A 
HETATM   13  C8  UNL     1      44.449  25.880  68.455  1.00  0.00     0.002 A 
HETATM   14  C9  UNL     1      43.357  26.340  67.772  1.00  0.00     0.001 A 
HETATM   15  C10 UNL     1      42.584  25.480  67.027  1.00  0.00     0.015 A 
HETATM   16  C11 UNL     1      42.788  24.139  66.885  1.00  0.00     0.009 A 
HETATM   17  C12 UNL     1      40.237  23.773  64.770  1.00  0.00     0.026 A 
HETATM   18  C13 UNL     1      39.733  24.680  65.661  1.00  0.00     0.016 A 
HETATM   19  C14 UNL     1      38.527  25.326  65.528  1.00  0.00     0.001 A 
HETATM   20  C15 UNL     1      37.756  25.044  64.424  1.00  0.00     0.003 A 
HETATM   21  C16 UNL     1      38.230  24.121  63.524  1.00  0.00     0.038 A 
HETATM   22  C17 UNL     1      39.435  23.459  63.657  1.00  0.00     0.090 A 
HETATM   23  O2  UNL     1      39.756  22.511  62.708  1.00  0.00    -0.294 OA
ENDROOT
TORSDOF 0
ENDMDL
MODEL 3
REMARK VINA RESULT: -9.984984962      2.061      3.690
REMARK  0 active torsions:
REMARK  status: ('A' for Active; 'I' for Inactive)
ROOT
HETATM    1  C1  UNL     1      44.551  26.204  68.192  1.00  0.00     0.072 C 
HETATM    2  C2  UNL     1      43.882  25.237  67.552  1.00  0.00     0.139 A 
HETATM    3  N1  UNL     1      42.598  25.461  67.107  1.00  0.00    -0.336 N 
ATOM      4  H1  UNL     1      42.210  26.385  67.297  1.00  0.00     0.168 HD
HETATM    5  C3  UNL     1      41.726  24.531  66.394  1.00  0.00     0.064 A 
HETATM    6  C4  UNL     1      40.456  24.820  66.316  1.00  0.00     0.072 A 
HETATM    7  C5  UNL     1      39.770  25.946  66.974  1.00  0.00     0.259 A 
HETATM    8  O1  UNL     1      40.212  26.500  68.054  1.00  0.00    -0.267 OA
HETATM    9  N2  UNL     1      38.606  26.351  66.336  1.00  0.00    -0.322 N 
ATOM     10  H2  UNL     1      37.981  27.103  66.623  1.00  0.00     0.169 HD
HETATM   11  C6  UNL     1      38.459  25.513  65.208  1.00  0.00     0.046 A 
HETATM   12  C7  UNL     1      37.496  25.624  64.224  1.00  0.00     0.030 A 
HETATM   13  C8  UNL     1      37.530  24.838  63.096  1.00  0.00     0.002 A 
HETATM   14  C9  UNL     1      38.564  23.948  63.001  1.00  0.00     0.001 A 
HETATM   15  C10 UNL     1      39.505  23.861  64.001  1.00  0.00     0.015 A 
HETATM   16  C11 UNL     1      39.526  24.598  65.148  1.00  0.00     0.009 A 
HETATM   17  C12 UNL     1      42.386  23.245  66.202  1.00  0.00     0.026 A 
HETATM   18  C13 UNL     1      41.754  22.166  65.646  1.00  0.00     0.016 A 
HETATM   19  C14 UNL     1      42.318  20.924  65.481  1.00  0.00     0.001 A 
HETATM   20  C15 UNL     1      43.613  20.735  65.908  1.00  0.00     0.003 A 
HETATM   21  C16 UNL     1      44.262  21.797  66.488  1.00  0.00     0.038 A 
HETATM   22  C17 UNL     1      43.698  23.045  66.668  1.00  0.00     0.090 A 
HETATM   23  O2  UNL     1      44.447  24.002  67.322  1.00  0.00    -0.294 OA
ENDROOT
TORSDOF 0
ENDMDL
MODEL 4
REMARK VINA RESULT: -9.896812720      0.976      1.277
REMARK  0 active torsions:
REMARK  status: ('A' for Active; 'I' for Inactive)
ROOT
HETATM    1  C1  UNL     1      43.686  18.949  65.249  1.00  0.00     0.072 C 
HETATM    2  C2  UNL     1      43.516  20.214  65.656  1.00  0.00     0.139 A 
HETATM    3  N1  UNL     1      42.477  20.968  65.159  1.00  0.00    -0.336 N 
ATOM      4  H1  UNL     1      41.871  20.507  64.479  1.00  0.00     0.168 HD
HETATM    5  C3  UNL     1      42.139  22.350  65.490  1.00  0.00     0.064 A 
HETATM    6  C4  UNL     1      41.308  22.981  64.708  1.00  0.00     0.072 A 
HETATM    7  C5  UNL     1      40.745  22.482  63.440  1.00  0.00     0.259 A 
HETATM    8  O1  UNL     1      41.335  21.592  62.714  1.00  0.00    -0.267 OA
HETATM    9  N2  UNL     1      39.532  23.061  63.093  1.00  0.00    -0.322 N 
ATOM     10  H2  UNL     1      38.976  22.864  62.261  1.00  0.00     0.169 HD
HETATM   11  C6  UNL     1      39.220  23.976  64.123  1.00  0.00     0.046 A 
HETATM   12  C7  UNL     1      38.050  24.702  64.249  1.00  0.00     0.030 A 
HETATM   13  C8  UNL     1      37.794  25.461  65.366  1.00  0.00     0.002 A 
HETATM   14  C9  UNL     1      38.753  25.456  66.341  1.00  0.00     0.001 A 
HETATM   15  C10 UNL     1      39.907  24.725  66.184  1.00  0.00     0.015 A 
HETATM   16  C11 UNL     1      40.231  23.962  65.100  1.00  0.00     0.009 A 
HETATM   17  C12 UNL     1      43.087  22.899  66.452  1.00  0.00     0.026 A 
HETATM   18  C13 UNL     1      43.055  24.205  66.858  1.00  0.00     0.016 A 
HETATM   19  C14 UNL     1      43.949  24.779  67.730  1.00  0.00     0.001 A 
HETATM   20  C15 UNL     1      44.961  23.996  68.235  1.00  0.00     0.003 A 
HETATM   21  C16 UNL     1      45.027  22.686  67.828  1.00  0.00     0.038 A 
HETATM   22  C17 UNL     1      44.139  22.104  66.943  1.00  0.00     0.090 A 
HETATM   23  O2  UNL     1      44.364  20.794  66.574  1.00  0.00    -0.294 OA
ENDROOT
TORSDOF 0
ENDMDL
MODEL 5
REMARK VINA RESULT: -9.869201897      2.242      6.380
REMARK  0 active torsions:
REMARK  status: ('A' for Active; 'I' for Inactive)
ROOT
HETATM    1  C1  UNL     1      38.750  26.804  67.079  1.00  0.00     0.072 C 
HETATM    2  C2  UNL     1      39.389  25.817  66.438  1.00  0.00     0.139 A 
HETATM    3  N1  UNL     1      40.611  25.373  66.892  1.00  0.00    -0.336 N 
ATOM      4  H1  UNL     1      40.980  25.840  67.721  1.00  0.00     0.168 HD
HETATM    5  C3  UNL     1      41.442  24.314  66.328  1.00  0.00     0.064 A 
HETATM    6  C4  UNL     1      42.685  24.237  66.716  1.00  0.00     0.072 A 
HETATM    7  C5  UNL     1      43.390  25.188  67.595  1.00  0.00     0.259 A 
HETATM    8  O1  UNL     1      43.038  26.425  67.714  1.00  0.00    -0.267 OA
HETATM    9  N2  UNL     1      44.467  24.637  68.276  1.00  0.00    -0.322 N 
ATOM     10  H2  UNL     1      45.088  25.116  68.927  1.00  0.00     0.169 HD
HETATM   11  C6  UNL     1      44.531  23.280  67.886  1.00  0.00     0.046 A 
HETATM   12  C7  UNL     1      45.385  22.321  68.396  1.00  0.00     0.030 A 
HETATM   13  C8  UNL     1      45.268  20.997  68.042  1.00  0.00     0.002 A 
HETATM   14  C9  UNL     1      44.264  20.684  67.167  1.00  0.00     0.001 A 
HETATM   15  C10 UNL     1      43.434  21.664  66.676  1.00  0.00     0.015 A 
HETATM   16  C11 UNL     1      43.500  22.994  66.974  1.00  0.00     0.009 A 
HETATM   17  C12 UNL     1      40.817  23.742  65.141  1.00  0.00     0.026 A 
HETATM   18  C13 UNL     1      41.431  22.797  64.365  1.00  0.00     0.016 A 
HETATM   19  C14 UNL     1      40.902  22.257  63.217  1.00  0.00     0.001 A 
HETATM   20  C15 UNL     1      39.665  22.696  62.801  1.00  0.00     0.003 A 
HETATM   21  C16 UNL     1      39.037  23.659  63.552  1.00  0.00     0.038 A 
HETATM   22  C17 UNL     1      39.567  24.215  64.701  1.00  0.00     0.090 A 
HETATM   23  O2  UNL     1      38.852  25.219  65.319  1.00  0.00    -0.294 OA
ENDROOT
TORSDOF 0
ENDMDL
