MODEL 1
REMARK VINA RESULT: -7.336595393      0.000      0.000
REMARK  8 active torsions:
REMARK  status: ('A' for Active; 'I' for Inactive)
REMARK    1  A    between atoms: C2_2  and  C4_4 
REMARK    2  A    between atoms: C4_4  and  N1_5 
REMARK    3  A    between atoms: C6_7  and  O1_8 
REMARK    4  A    between atoms: C8_11  and  C9_12 
REMARK    5  A    between atoms: C8_11  and  C10_15 
REMARK    6  A    between atoms: C9_12  and  O2_13 
REMARK    7  A    between atoms: C11_16  and  C12_17 
REMARK    8  A    between atoms: C12_17  and  N2_18 
ROOT
HETATM    1  N1  UNL     1      57.999  24.650  32.412  1.00  0.00     0.092 N 
HETATM    2  C5  UNL     1      57.939  26.034  32.751  1.00  0.00     0.303 C 
HETATM    3  C6  UNL     1      57.738  26.141  34.298  1.00  0.00     0.147 C 
HETATM    4  C7  UNL     1      56.819  24.994  34.610  1.00  0.00     0.051 C 
HETATM    5  C8  UNL     1      57.478  23.666  34.637  1.00  0.00     0.027 C 
HETATM    6  C20 UNL     1      58.555  23.836  33.435  1.00  0.00     0.288 C 
ENDROOT
BRANCH   5   7
HETATM    7  C9  UNL     1      56.582  22.627  34.017  1.00  0.00     0.179 C 
BRANCH   7   8
HETATM    8  O2  UNL     1      55.594  23.116  33.217  1.00  0.00    -0.400 OA
ATOM      9  H2  UNL     1      55.886  23.484  32.392  1.00  0.00     0.209 HD
ENDBRANCH   7   8
ENDBRANCH   5   7
BRANCH   5  10
HETATM   10  C10 UNL     1      58.339  23.309  35.746  1.00  0.00    -0.015 C 
HETATM   11  C11 UNL     1      58.264  23.715  37.126  1.00  0.00     0.011 C 
BRANCH  11  12
HETATM   12  C12 UNL     1      57.119  23.487  38.021  1.00  0.00     0.177 C 
HETATM   13  C17 UNL     1      55.940  24.356  37.869  1.00  0.00     0.046 C 
HETATM   14  C18 UNL     1      56.105  25.002  39.205  1.00  0.00     0.006 C 
HETATM   15  C19 UNL     1      57.430  24.316  39.329  1.00  0.00     0.046 C 
BRANCH  12  16
HETATM   16  N2  UNL     1      56.912  22.106  38.381  1.00  0.00     0.101 N 
HETATM   17  C13 UNL     1      55.558  21.679  38.320  1.00  0.00     0.274 C 
HETATM   18  C14 UNL     1      55.648  20.247  38.868  1.00  0.00     0.032 C 
HETATM   19  C15 UNL     1      56.862  20.277  39.751  1.00  0.00     0.032 C 
HETATM   20  C16 UNL     1      57.350  21.732  39.677  1.00  0.00     0.274 C 
ENDBRANCH  12  16
ENDBRANCH  11  12
ENDBRANCH   5  10
BRANCH   3  21
HETATM   21  O1  UNL     1      57.060  27.335  34.535  1.00  0.00    -0.394 OA
ATOM     22  H1  UNL     1      57.145  27.860  33.748  1.00  0.00     0.210 HD
ENDBRANCH   3  21
BRANCH   1  23
HETATM   23  C4  UNL     1      58.681  24.424  31.184  1.00  0.00     0.276 C 
BRANCH  23  24
HETATM   24  C2  UNL     1      57.906  24.448  29.923  1.00  0.00     0.006 C 
HETATM   25  C1  UNL     1      56.673  23.615  29.835  1.00  0.00     0.011 C 
HETATM   26  C3  UNL     1      58.809  24.231  28.710  1.00  0.00     0.011 C 
ENDBRANCH  23  24
ENDBRANCH   1  23
TORSDOF 8
ENDMDL
MODEL 2
REMARK VINA RESULT: -7.320956034      2.167      8.105
REMARK  8 active torsions:
REMARK  status: ('A' for Active; 'I' for Inactive)
REMARK    1  A    between atoms: C2_2  and  C4_4 
REMARK    2  A    between atoms: C4_4  and  N1_5 
REMARK    3  A    between atoms: C6_7  and  O1_8 
REMARK    4  A    between atoms: C8_11  and  C9_12 
REMARK    5  A    between atoms: C8_11  and  C10_15 
REMARK    6  A    between atoms: C9_12  and  O2_13 
REMARK    7  A    between atoms: C11_16  and  C12_17 
REMARK    8  A    between atoms: C12_17  and  N2_18 
ROOT
HETATM    1  N1  UNL     1      57.334  24.658  34.480  1.00  0.00     0.092 N 
HETATM    2  C5  UNL     1      56.281  23.699  34.425  1.00  0.00     0.303 C 
HETATM    3  C6  UNL     1      56.271  23.079  32.989  1.00  0.00     0.147 C 
HETATM    4  C7  UNL     1      56.611  24.244  32.104  1.00  0.00     0.051 C 
HETATM    5  C8  UNL     1      58.047  24.614  32.097  1.00  0.00     0.027 C 
HETATM    6  C20 UNL     1      58.440  24.339  33.647  1.00  0.00     0.288 C 
ENDROOT
BRANCH   5   7
HETATM    7  C9  UNL     1      58.198  26.112  32.068  1.00  0.00     0.179 C 
BRANCH   7   8
HETATM    8  O2  UNL     1      57.102  26.798  31.637  1.00  0.00    -0.400 OA
ATOM      9  H2  UNL     1      57.172  27.163  30.763  1.00  0.00     0.209 HD
ENDBRANCH   7   8
ENDBRANCH   5   7
BRANCH   5  10
HETATM   10  C10 UNL     1      59.006  23.778  31.405  1.00  0.00    -0.015 C 
HETATM   11  C11 UNL     1      58.791  22.837  30.335  1.00  0.00     0.011 C 
BRANCH  11  12
HETATM   12  C12 UNL     1      58.212  23.157  29.021  1.00  0.00     0.177 C 
HETATM   13  C17 UNL     1      57.119  24.142  28.968  1.00  0.00     0.046 C 
HETATM   14  C18 UNL     1      56.097  23.149  28.522  1.00  0.00     0.006 C 
HETATM   15  C19 UNL     1      57.099  22.065  28.768  1.00  0.00     0.046 C 
BRANCH  12  16
HETATM   16  N2  UNL     1      59.157  23.123  27.932  1.00  0.00     0.101 N 
HETATM   17  C13 UNL     1      60.331  22.367  28.195  1.00  0.00     0.274 C 
HETATM   18  C14 UNL     1      61.168  22.625  26.934  1.00  0.00     0.032 C 
HETATM   19  C15 UNL     1      60.680  23.957  26.445  1.00  0.00     0.032 C 
HETATM   20  C16 UNL     1      59.632  24.383  27.486  1.00  0.00     0.274 C 
ENDBRANCH  12  16
ENDBRANCH  11  12
ENDBRANCH   5  10
BRANCH   3  21
HETATM   21  O1  UNL     1      54.961  22.685  32.729  1.00  0.00    -0.394 OA
ATOM     22  H1  UNL     1      54.579  23.351  32.169  1.00  0.00     0.210 HD
ENDBRANCH   3  21
BRANCH   1  23
HETATM   23  C4  UNL     1      57.778  24.896  35.811  1.00  0.00     0.276 C 
BRANCH  23  24
HETATM   24  C2  UNL     1      57.287  24.016  36.895  1.00  0.00     0.006 C 
HETATM   25  C1  UNL     1      56.387  24.601  37.929  1.00  0.00     0.011 C 
HETATM   26  C3  UNL     1      58.431  23.230  37.536  1.00  0.00     0.011 C 
ENDBRANCH  23  24
ENDBRANCH   1  23
TORSDOF 8
ENDMDL
MODEL 3
REMARK VINA RESULT: -7.277615290      0.867      1.493
REMARK  8 active torsions:
REMARK  status: ('A' for Active; 'I' for Inactive)
REMARK    1  A    between atoms: C2_2  and  C4_4 
REMARK    2  A    between atoms: C4_4  and  N1_5 
REMARK    3  A    between atoms: C6_7  and  O1_8 
REMARK    4  A    between atoms: C8_11  and  C9_12 
REMARK    5  A    between atoms: C8_11  and  C10_15 
REMARK    6  A    between atoms: C9_12  and  O2_13 
REMARK    7  A    between atoms: C11_16  and  C12_17 
REMARK    8  A    between atoms: C12_17  and  N2_18 
ROOT
HETATM    1  N1  UNL     1      57.905  24.711  32.346  1.00  0.00     0.092 N 
HETATM    2  C5  UNL     1      57.816  26.091  32.692  1.00  0.00     0.303 C 
HETATM    3  C6  UNL     1      57.746  26.191  34.252  1.00  0.00     0.147 C 
HETATM    4  C7  UNL     1      56.908  25.007  34.639  1.00  0.00     0.051 C 
HETATM    5  C8  UNL     1      57.623  23.707  34.605  1.00  0.00     0.027 C 
HETATM    6  C20 UNL     1      58.583  23.923  33.314  1.00  0.00     0.288 C 
ENDROOT
BRANCH   5   7
HETATM    7  C9  UNL     1      56.721  22.631  34.063  1.00  0.00     0.179 C 
BRANCH   7   8
HETATM    8  O2  UNL     1      55.644  23.077  33.358  1.00  0.00    -0.400 OA
ATOM      9  H2  UNL     1      54.900  23.345  33.884  1.00  0.00     0.209 HD
ENDBRANCH   7   8
ENDBRANCH   5   7
BRANCH   5  10
HETATM   10  C10 UNL     1      58.593  23.389  35.633  1.00  0.00    -0.015 C 
HETATM   11  C11 UNL     1      58.549  23.668  37.046  1.00  0.00     0.011 C 
BRANCH  11  12
HETATM   12  C12 UNL     1      57.504  23.210  37.974  1.00  0.00     0.177 C 
HETATM   13  C17 UNL     1      56.397  22.407  37.427  1.00  0.00     0.046 C 
HETATM   14  C18 UNL     1      55.361  23.448  37.701  1.00  0.00     0.006 C 
HETATM   15  C19 UNL     1      56.463  24.395  38.061  1.00  0.00     0.046 C 
BRANCH  12  16
HETATM   16  N2  UNL     1      57.981  22.907  39.301  1.00  0.00     0.101 N 
HETATM   17  C13 UNL     1      57.599  21.627  39.786  1.00  0.00     0.274 C 
HETATM   18  C14 UNL     1      58.131  21.657  41.226  1.00  0.00     0.032 C 
HETATM   19  C15 UNL     1      58.150  23.117  41.571  1.00  0.00     0.032 C 
HETATM   20  C16 UNL     1      57.586  23.812  40.321  1.00  0.00     0.274 C 
ENDBRANCH  12  16
ENDBRANCH  11  12
ENDBRANCH   5  10
BRANCH   3  21
HETATM   21  O1  UNL     1      57.042  27.356  34.551  1.00  0.00    -0.394 OA
ATOM     22  H1  UNL     1      57.681  27.997  34.839  1.00  0.00     0.210 HD
ENDBRANCH   3  21
BRANCH   1  23
HETATM   23  C4  UNL     1      58.485  24.514  31.062  1.00  0.00     0.276 C 
BRANCH  23  24
HETATM   24  C2  UNL     1      57.592  24.372  29.889  1.00  0.00     0.006 C 
HETATM   25  C1  UNL     1      56.476  23.387  29.965  1.00  0.00     0.011 C 
HETATM   26  C3  UNL     1      58.391  24.208  28.597  1.00  0.00     0.011 C 
ENDBRANCH  23  24
ENDBRANCH   1  23
TORSDOF 8
ENDMDL
MODEL 4
REMARK VINA RESULT: -7.047057872      0.882      2.347
REMARK  8 active torsions:
REMARK  status: ('A' for Active; 'I' for Inactive)
REMARK    1  A    between atoms: C2_2  and  C4_4 
REMARK    2  A    between atoms: C4_4  and  N1_5 
REMARK    3  A    between atoms: C6_7  and  O1_8 
REMARK    4  A    between atoms: C8_11  and  C9_12 
REMARK    5  A    between atoms: C8_11  and  C10_15 
REMARK    6  A    between atoms: C9_12  and  O2_13 
REMARK    7  A    between atoms: C11_16  and  C12_17 
REMARK    8  A    between atoms: C12_17  and  N2_18 
ROOT
HETATM    1  N1  UNL     1      57.888  24.731  32.422  1.00  0.00     0.092 N 
HETATM    2  C5  UNL     1      57.815  26.102  32.807  1.00  0.00     0.303 C 
HETATM    3  C6  UNL     1      57.760  26.160  34.369  1.00  0.00     0.147 C 
HETATM    4  C7  UNL     1      56.916  24.972  34.732  1.00  0.00     0.051 C 
HETATM    5  C8  UNL     1      57.620  23.669  34.656  1.00  0.00     0.027 C 
HETATM    6  C20 UNL     1      58.569  23.912  33.362  1.00  0.00     0.288 C 
ENDROOT
BRANCH   5   7
HETATM    7  C9  UNL     1      56.704  22.615  34.094  1.00  0.00     0.179 C 
BRANCH   7   8
HETATM    8  O2  UNL     1      55.607  23.089  33.438  1.00  0.00    -0.400 OA
ATOM      9  H2  UNL     1      55.160  23.809  33.866  1.00  0.00     0.209 HD
ENDBRANCH   7   8
ENDBRANCH   5   7
BRANCH   5  10
HETATM   10  C10 UNL     1      58.596  23.315  35.666  1.00  0.00    -0.015 C 
HETATM   11  C11 UNL     1      58.635  23.670  37.061  1.00  0.00     0.011 C 
BRANCH  11  12
HETATM   12  C12 UNL     1      57.590  23.362  38.050  1.00  0.00     0.177 C 
HETATM   13  C17 UNL     1      57.636  22.050  38.718  1.00  0.00     0.046 C 
HETATM   14  C18 UNL     1      56.367  21.565  38.096  1.00  0.00     0.006 C 
HETATM   15  C19 UNL     1      56.378  22.780  37.221  1.00  0.00     0.046 C 
BRANCH  12  16
HETATM   16  N2  UNL     1      57.134  24.501  38.807  1.00  0.00     0.101 N 
HETATM   17  C13 UNL     1      57.257  24.359  40.216  1.00  0.00     0.274 C 
HETATM   18  C14 UNL     1      56.588  25.643  40.727  1.00  0.00     0.032 C 
HETATM   19  C15 UNL     1      55.626  26.007  39.635  1.00  0.00     0.032 C 
HETATM   20  C16 UNL     1      55.783  24.882  38.599  1.00  0.00     0.274 C 
ENDBRANCH  12  16
ENDBRANCH  11  12
ENDBRANCH   5  10
BRANCH   3  21
HETATM   21  O1  UNL     1      57.069  27.322  34.706  1.00  0.00    -0.394 OA
ATOM     22  H1  UNL     1      56.405  27.073  35.339  1.00  0.00     0.210 HD
ENDBRANCH   3  21
BRANCH   1  23
HETATM   23  C4  UNL     1      58.455  24.564  31.128  1.00  0.00     0.276 C 
BRANCH  23  24
HETATM   24  C2  UNL     1      57.550  24.378  29.972  1.00  0.00     0.006 C 
HETATM   25  C1  UNL     1      56.446  23.383  30.090  1.00  0.00     0.011 C 
HETATM   26  C3  UNL     1      58.336  24.182  28.675  1.00  0.00     0.011 C 
ENDBRANCH  23  24
ENDBRANCH   1  23
TORSDOF 8
ENDMDL
MODEL 5
REMARK VINA RESULT: -6.850517951      2.124      8.130
REMARK  8 active torsions:
REMARK  status: ('A' for Active; 'I' for Inactive)
REMARK    1  A    between atoms: C2_2  and  C4_4 
REMARK    2  A    between atoms: C4_4  and  N1_5 
REMARK    3  A    between atoms: C6_7  and  O1_8 
REMARK    4  A    between atoms: C8_11  and  C9_12 
REMARK    5  A    between atoms: C8_11  and  C10_15 
REMARK    6  A    between atoms: C9_12  and  O2_13 
REMARK    7  A    between atoms: C11_16  and  C12_17 
REMARK    8  A    between atoms: C12_17  and  N2_18 
ROOT
HETATM    1  N1  UNL     1      57.122  24.622  34.623  1.00  0.00     0.092 N 
HETATM    2  C5  UNL     1      56.075  23.673  34.434  1.00  0.00     0.303 C 
HETATM    3  C6  UNL     1      56.283  23.001  33.036  1.00  0.00     0.147 C 
HETATM    4  C7  UNL     1      56.777  24.130  32.178  1.00  0.00     0.051 C 
HETATM    5  C8  UNL     1      58.202  24.486  32.386  1.00  0.00     0.027 C 
HETATM    6  C20 UNL     1      58.340  24.262  33.988  1.00  0.00     0.288 C 
ENDROOT
BRANCH   5   7
HETATM    7  C9  UNL     1      58.379  25.980  32.331  1.00  0.00     0.179 C 
BRANCH   7   8
HETATM    8  O2  UNL     1      57.311  26.673  31.847  1.00  0.00    -0.400 OA
ATOM      9  H2  UNL     1      57.526  27.390  31.261  1.00  0.00     0.209 HD
ENDBRANCH   7   8
ENDBRANCH   5   7
BRANCH   5  10
HETATM   10  C10 UNL     1      59.245  23.615  31.884  1.00  0.00    -0.015 C 
HETATM   11  C11 UNL     1      59.369  22.992  30.591  1.00  0.00     0.011 C 
BRANCH  11  12
HETATM   12  C12 UNL     1      59.425  23.701  29.304  1.00  0.00     0.177 C 
HETATM   13  C17 UNL     1      58.216  24.411  28.852  1.00  0.00     0.046 C 
HETATM   14  C18 UNL     1      57.992  23.513  27.680  1.00  0.00     0.006 C 
HETATM   15  C19 UNL     1      59.073  22.621  28.207  1.00  0.00     0.046 C 
BRANCH  12  16
HETATM   16  N2  UNL     1      60.712  24.276  28.998  1.00  0.00     0.101 N 
HETATM   17  C13 UNL     1      60.928  24.535  27.618  1.00  0.00     0.274 C 
HETATM   18  C14 UNL     1      62.389  25.007  27.605  1.00  0.00     0.032 C 
HETATM   19  C15 UNL     1      62.989  24.350  28.814  1.00  0.00     0.032 C 
HETATM   20  C16 UNL     1      61.840  23.517  29.404  1.00  0.00     0.274 C 
ENDBRANCH  12  16
ENDBRANCH  11  12
ENDBRANCH   5  10
BRANCH   3  21
HETATM   21  O1  UNL     1      55.025  22.611  32.584  1.00  0.00    -0.394 OA
ATOM     22  H1  UNL     1      55.140  22.281  31.700  1.00  0.00     0.210 HD
ENDBRANCH   3  21
BRANCH   1  23
HETATM   23  C4  UNL     1      57.352  24.903  35.999  1.00  0.00     0.276 C 
BRANCH  23  24
HETATM   24  C2  UNL     1      57.061  23.853  37.000  1.00  0.00     0.006 C 
HETATM   25  C1  UNL     1      56.092  24.163  38.089  1.00  0.00     0.011 C 
HETATM   26  C3  UNL     1      58.346  23.244  37.559  1.00  0.00     0.011 C 
ENDBRANCH  23  24
ENDBRANCH   1  23
TORSDOF 8
ENDMDL
