MODEL 1
REMARK VINA RESULT: -6.482712774      0.000      0.000
REMARK  9 active torsions:
REMARK  status: ('A' for Active; 'I' for Inactive)
REMARK    1  A    between atoms: C2_2  and  C3_3 
REMARK    2  A    between atoms: C3_3  and  C4_4 
REMARK    3  A    between atoms: C4_4  and  N1_5 
REMARK    4  A    between atoms: N1_5  and  C5_7 
REMARK    5  A    between atoms: C9_13  and  N3_14 
REMARK    6  A    between atoms: N3_14  and  C10_15 
REMARK    7  A    between atoms: N3_14  and  C14_19 
REMARK    8  A    between atoms: C10_15  and  C11_16 
REMARK    9  A    between atoms: C11_16  and  C12_17 
ROOT
HETATM    1  C5  UNL     1      56.291  20.542  39.264  1.00  0.00     0.679 A 
HETATM    2  N2  UNL     1      57.147  20.576  40.290  1.00  0.00    -0.196 N 
ATOM      3  H2  UNL     1      57.097  19.828  40.982  1.00  0.00     0.184 HD
HETATM    4  C6  UNL     1      58.063  21.533  40.461  1.00  0.00     0.026 A 
HETATM    5  C7  UNL     1      58.974  21.492  41.618  1.00  0.00     0.069 C 
HETATM    6  C8  UNL     1      58.109  22.548  39.496  1.00  0.00     0.074 A 
HETATM    7  C9  UNL     1      57.254  22.554  38.432  1.00  0.00     0.121 A 
HETATM    8  N5  UNL     1      56.368  21.550  38.347  1.00  0.00    -0.177 N 
ATOM      9  H5  UNL     1      55.721  21.538  37.559  1.00  0.00     0.185 HD
ENDROOT
BRANCH   7  10
HETATM   10  N3  UNL     1      57.246  23.561  37.456  1.00  0.00    -0.362 N 
BRANCH  10  11
HETATM   11  C10 UNL     1      57.124  24.968  37.653  1.00  0.00     0.125 C 
BRANCH  11  12
HETATM   12  C11 UNL     1      56.025  25.455  38.527  1.00  0.00     0.019 C 
BRANCH  12  13
HETATM   13  C12 UNL     1      56.439  25.898  39.897  1.00  0.00    -0.003 C 
HETATM   14  C13 UNL     1      55.232  26.397  40.676  1.00  0.00     0.005 C 
ENDBRANCH  12  13
ENDBRANCH  11  12
ENDBRANCH  10  11
BRANCH  10  15
HETATM   15  C14 UNL     1      57.457  23.093  36.081  1.00  0.00     0.088 C 
HETATM   16  C15 UNL     1      56.267  23.313  35.199  1.00  0.00     0.032 C 
HETATM   17  C16 UNL     1      56.857  22.948  33.829  1.00  0.00     0.020 C 
HETATM   18  C17 UNL     1      56.057  23.646  32.769  1.00  0.00     0.034 C 
HETATM   19  C19 UNL     1      58.208  23.599  33.892  1.00  0.00     0.192 C 
HETATM   20  C18 UNL     1      57.065  24.623  32.204  1.00  0.00     0.233 C 
HETATM   21  N4  UNL     1      57.990  24.905  33.298  1.00  0.00    -0.070 N 
ATOM     22  H42 UNL     1      58.842  25.392  33.019  1.00  0.00     0.277 HD
ATOM     23  H41 UNL     1      57.670  25.620  33.950  1.00  0.00     0.277 HD
HETATM   24  C20 UNL     1      58.535  23.826  35.365  1.00  0.00     0.058 C 
ENDBRANCH  10  15
ENDBRANCH   7  10
BRANCH   1  25
HETATM   25  N1  UNL     1      55.429  19.622  39.112  1.00  0.00    -0.226 N 
ATOM     26  H1  UNL     1      55.751  18.656  39.158  1.00  0.00     0.177 HD
BRANCH  25  27
HETATM   27  C4  UNL     1      54.043  19.850  38.879  1.00  0.00     0.138 C 
BRANCH  27  28
HETATM   28  C3  UNL     1      53.416  20.554  40.050  1.00  0.00     0.020 C 
BRANCH  28  29
HETATM   29  C2  UNL     1      52.990  21.969  39.643  1.00  0.00    -0.003 C 
HETATM   30  C1  UNL     1      53.752  23.008  40.402  1.00  0.00     0.005 C 
ENDBRANCH  28  29
ENDBRANCH  27  28
ENDBRANCH  25  27
ENDBRANCH   1  25
TORSDOF 9
ENDMDL
MODEL 2
REMARK VINA RESULT: -6.422359738      4.263      9.983
REMARK  9 active torsions:
REMARK  status: ('A' for Active; 'I' for Inactive)
REMARK    1  A    between atoms: C2_2  and  C3_3 
REMARK    2  A    between atoms: C3_3  and  C4_4 
REMARK    3  A    between atoms: C4_4  and  N1_5 
REMARK    4  A    between atoms: N1_5  and  C5_7 
REMARK    5  A    between atoms: C9_13  and  N3_14 
REMARK    6  A    between atoms: N3_14  and  C10_15 
REMARK    7  A    between atoms: N3_14  and  C14_19 
REMARK    8  A    between atoms: C10_15  and  C11_16 
REMARK    9  A    between atoms: C11_16  and  C12_17 
ROOT
HETATM    1  C5  UNL     1      60.233  24.043  28.924  1.00  0.00     0.679 A 
HETATM    2  N2  UNL     1      61.208  23.201  29.280  1.00  0.00    -0.196 N 
ATOM      3  H2  UNL     1      61.975  23.049  28.624  1.00  0.00     0.184 HD
HETATM    4  C6  UNL     1      61.236  22.548  30.445  1.00  0.00     0.026 A 
HETATM    5  C7  UNL     1      62.353  21.641  30.763  1.00  0.00     0.069 C 
HETATM    6  C8  UNL     1      60.171  22.775  31.326  1.00  0.00     0.074 A 
HETATM    7  C9  UNL     1      59.153  23.626  31.004  1.00  0.00     0.121 A 
HETATM    8  N5  UNL     1      59.214  24.236  29.810  1.00  0.00    -0.177 N 
ATOM      9  H5  UNL     1      58.462  24.875  29.553  1.00  0.00     0.185 HD
ENDROOT
BRANCH   7  10
HETATM   10  N3  UNL     1      58.055  23.866  31.842  1.00  0.00    -0.362 N 
BRANCH  10  11
HETATM   11  C10 UNL     1      56.709  24.147  31.460  1.00  0.00     0.125 C 
BRANCH  11  12
HETATM   12  C11 UNL     1      55.963  23.095  30.722  1.00  0.00     0.019 C 
BRANCH  12  13
HETATM   13  C12 UNL     1      56.089  23.141  29.230  1.00  0.00    -0.003 C 
HETATM   14  C13 UNL     1      56.713  21.854  28.714  1.00  0.00     0.005 C 
ENDBRANCH  12  13
ENDBRANCH  11  12
ENDBRANCH  10  11
BRANCH  10  15
HETATM   15  C14 UNL     1      58.331  23.742  33.277  1.00  0.00     0.088 C 
HETATM   16  C15 UNL     1      58.079  25.010  34.034  1.00  0.00     0.032 C 
HETATM   17  C16 UNL     1      58.230  24.514  35.479  1.00  0.00     0.020 C 
HETATM   18  C17 UNL     1      57.457  25.434  36.378  1.00  0.00     0.034 C 
HETATM   19  C19 UNL     1      57.506  23.200  35.431  1.00  0.00     0.192 C 
HETATM   20  C18 UNL     1      56.353  24.530  36.883  1.00  0.00     0.233 C 
HETATM   21  N4  UNL     1      56.153  23.536  35.832  1.00  0.00    -0.070 N 
ATOM     22  H42 UNL     1      55.581  22.737  36.107  1.00  0.00     0.277 HD
ATOM     23  H41 UNL     1      55.547  23.840  35.070  1.00  0.00     0.277 HD
HETATM   24  C20 UNL     1      57.446  22.768  33.969  1.00  0.00     0.058 C 
ENDBRANCH  10  15
ENDBRANCH   7  10
BRANCH   1  25
HETATM   25  N1  UNL     1      60.224  24.662  27.816  1.00  0.00    -0.226 N 
ATOM     26  H1  UNL     1      60.914  25.399  27.676  1.00  0.00     0.177 HD
BRANCH  25  27
HETATM   27  C4  UNL     1      59.313  24.395  26.754  1.00  0.00     0.138 C 
BRANCH  27  28
HETATM   28  C3  UNL     1      60.047  24.235  25.451  1.00  0.00     0.020 C 
BRANCH  28  29
HETATM   29  C2  UNL     1      60.730  25.553  25.071  1.00  0.00    -0.003 C 
HETATM   30  C1  UNL     1      59.938  26.303  24.048  1.00  0.00     0.005 C 
ENDBRANCH  28  29
ENDBRANCH  27  28
ENDBRANCH  25  27
ENDBRANCH   1  25
TORSDOF 9
ENDMDL
MODEL 3
REMARK VINA RESULT: -6.343458927      5.302      9.902
REMARK  9 active torsions:
REMARK  status: ('A' for Active; 'I' for Inactive)
REMARK    1  A    between atoms: C2_2  and  C3_3 
REMARK    2  A    between atoms: C3_3  and  C4_4 
REMARK    3  A    between atoms: C4_4  and  N1_5 
REMARK    4  A    between atoms: N1_5  and  C5_7 
REMARK    5  A    between atoms: C9_13  and  N3_14 
REMARK    6  A    between atoms: N3_14  and  C10_15 
REMARK    7  A    between atoms: N3_14  and  C14_19 
REMARK    8  A    between atoms: C10_15  and  C11_16 
REMARK    9  A    between atoms: C11_16  and  C12_17 
ROOT
HETATM    1  C5  UNL     1      56.836  23.219  30.268  1.00  0.00     0.679 A 
HETATM    2  N2  UNL     1      56.191  22.216  29.666  1.00  0.00    -0.196 N 
ATOM      3  H2  UNL     1      55.252  21.984  29.991  1.00  0.00     0.184 HD
HETATM    4  C6  UNL     1      56.705  21.499  28.663  1.00  0.00     0.026 A 
HETATM    5  C7  UNL     1      55.923  20.412  28.048  1.00  0.00     0.069 C 
HETATM    6  C8  UNL     1      57.996  21.838  28.236  1.00  0.00     0.074 A 
HETATM    7  C9  UNL     1      58.692  22.854  28.823  1.00  0.00     0.121 A 
HETATM    8  N5  UNL     1      58.092  23.517  29.824  1.00  0.00    -0.177 N 
ATOM      9  H5  UNL     1      58.597  24.279  30.274  1.00  0.00     0.185 HD
ENDROOT
BRANCH   7  10
HETATM   10  N3  UNL     1      59.995  23.214  28.447  1.00  0.00    -0.362 N 
BRANCH  10  11
HETATM   11  C10 UNL     1      60.451  23.623  27.159  1.00  0.00     0.125 C 
BRANCH  11  12
HETATM   12  C11 UNL     1      59.695  24.697  26.463  1.00  0.00     0.019 C 
BRANCH  12  13
HETATM   13  C12 UNL     1      59.699  24.622  24.967  1.00  0.00    -0.003 C 
HETATM   14  C13 UNL     1      60.078  25.969  24.373  1.00  0.00     0.005 C 
ENDBRANCH  12  13
ENDBRANCH  11  12
ENDBRANCH  10  11
BRANCH  10  15
HETATM   15  C14 UNL     1      60.974  23.230  29.540  1.00  0.00     0.088 C 
HETATM   16  C15 UNL     1      61.263  21.866  30.086  1.00  0.00     0.032 C 
HETATM   17  C16 UNL     1      62.444  22.177  31.017  1.00  0.00     0.020 C 
HETATM   18  C17 UNL     1      63.248  20.923  31.196  1.00  0.00     0.034 C 
HETATM   19  C19 UNL     1      63.252  23.128  30.183  1.00  0.00     0.192 C 
HETATM   20  C18 UNL     1      64.550  21.281  30.511  1.00  0.00     0.233 C 
HETATM   21  N4  UNL     1      64.197  22.268  29.495  1.00  0.00    -0.070 N 
ATOM     22  H42 UNL     1      64.992  22.756  29.083  1.00  0.00     0.277 HD
ATOM     23  H41 UNL     1      63.852  21.873  28.621  1.00  0.00     0.277 HD
HETATM   24  C20 UNL     1      62.319  23.707  29.123  1.00  0.00     0.058 C 
ENDBRANCH  10  15
ENDBRANCH   7  10
BRANCH   1  25
HETATM   25  N1  UNL     1      56.332  23.895  31.217  1.00  0.00    -0.226 N 
ATOM     26  H1  UNL     1      56.410  24.911  31.171  1.00  0.00     0.177 HD
BRANCH  25  27
HETATM   27  C4  UNL     1      55.665  23.330  32.340  1.00  0.00     0.138 C 
BRANCH  27  28
HETATM   28  C3  UNL     1      56.327  23.754  33.622  1.00  0.00     0.020 C 
BRANCH  28  29
HETATM   29  C2  UNL     1      57.068  22.567  34.246  1.00  0.00    -0.003 C 
HETATM   30  C1  UNL     1      57.441  22.844  35.668  1.00  0.00     0.005 C 
ENDBRANCH  28  29
ENDBRANCH  27  28
ENDBRANCH  25  27
ENDBRANCH   1  25
TORSDOF 9
ENDMDL
MODEL 4
REMARK VINA RESULT: -6.325390867      2.128      3.941
REMARK  9 active torsions:
REMARK  status: ('A' for Active; 'I' for Inactive)
REMARK    1  A    between atoms: C2_2  and  C3_3 
REMARK    2  A    between atoms: C3_3  and  C4_4 
REMARK    3  A    between atoms: C4_4  and  N1_5 
REMARK    4  A    between atoms: N1_5  and  C5_7 
REMARK    5  A    between atoms: C9_13  and  N3_14 
REMARK    6  A    between atoms: N3_14  and  C10_15 
REMARK    7  A    between atoms: N3_14  and  C14_19 
REMARK    8  A    between atoms: C10_15  and  C11_16 
REMARK    9  A    between atoms: C11_16  and  C12_17 
ROOT
HETATM    1  C5  UNL     1      57.846  24.909  41.649  1.00  0.00     0.679 A 
HETATM    2  N2  UNL     1      58.952  24.194  41.873  1.00  0.00    -0.196 N 
ATOM      3  H2  UNL     1      59.489  24.391  42.717  1.00  0.00     0.184 HD
HETATM    4  C6  UNL     1      59.394  23.235  41.054  1.00  0.00     0.026 A 
HETATM    5  C7  UNL     1      60.622  22.487  41.378  1.00  0.00     0.069 C 
HETATM    6  C8  UNL     1      58.637  22.985  39.901  1.00  0.00     0.074 A 
HETATM    7  C9  UNL     1      57.501  23.692  39.633  1.00  0.00     0.121 A 
HETATM    8  N5  UNL     1      57.137  24.636  40.516  1.00  0.00    -0.177 N 
ATOM      9  H5  UNL     1      56.291  25.174  40.331  1.00  0.00     0.185 HD
ENDROOT
BRANCH   7  10
HETATM   10  N3  UNL     1      56.724  23.495  38.482  1.00  0.00    -0.362 N 
BRANCH  10  11
HETATM   11  C10 UNL     1      55.302  23.430  38.388  1.00  0.00     0.125 C 
BRANCH  11  12
HETATM   12  C11 UNL     1      54.591  22.468  39.270  1.00  0.00     0.019 C 
BRANCH  12  13
HETATM   13  C12 UNL     1      54.466  21.074  38.736  1.00  0.00    -0.003 C 
HETATM   14  C13 UNL     1      55.689  20.254  39.115  1.00  0.00     0.005 C 
ENDBRANCH  12  13
ENDBRANCH  11  12
ENDBRANCH  10  11
BRANCH  10  15
HETATM   15  C14 UNL     1      57.482  23.416  37.228  1.00  0.00     0.088 C 
HETATM   16  C15 UNL     1      56.722  22.743  36.126  1.00  0.00     0.032 C 
HETATM   17  C16 UNL     1      57.652  23.012  34.935  1.00  0.00     0.020 C 
HETATM   18  C17 UNL     1      56.835  22.959  33.677  1.00  0.00     0.034 C 
HETATM   19  C19 UNL     1      58.048  24.440  35.168  1.00  0.00     0.192 C 
HETATM   20  C18 UNL     1      56.897  24.394  33.199  1.00  0.00     0.233 C 
HETATM   21  N4  UNL     1      57.074  25.198  34.404  1.00  0.00    -0.070 N 
ATOM     22  H42 UNL     1      57.333  26.170  34.232  1.00  0.00     0.277 HD
ATOM     23  H41 UNL     1      56.211  25.408  34.906  1.00  0.00     0.277 HD
HETATM   24  C20 UNL     1      57.797  24.746  36.642  1.00  0.00     0.058 C 
ENDBRANCH  10  15
ENDBRANCH   7  10
BRANCH   1  25
HETATM   25  N1  UNL     1      57.435  25.813  42.441  1.00  0.00    -0.226 N 
ATOM     26  H1  UNL     1      57.994  26.661  42.525  1.00  0.00     0.177 HD
BRANCH  25  27
HETATM   27  C4  UNL     1      56.245  25.721  43.218  1.00  0.00     0.138 C 
BRANCH  27  28
HETATM   28  C3  UNL     1      55.480  27.014  43.175  1.00  0.00     0.020 C 
BRANCH  28  29
HETATM   29  C2  UNL     1      54.793  27.171  41.815  1.00  0.00    -0.003 C 
HETATM   30  C1  UNL     1      54.028  25.940  41.445  1.00  0.00     0.005 C 
ENDBRANCH  28  29
ENDBRANCH  27  28
ENDBRANCH  25  27
ENDBRANCH   1  25
TORSDOF 9
ENDMDL
MODEL 5
REMARK VINA RESULT: -6.271236327      5.886     10.275
REMARK  9 active torsions:
REMARK  status: ('A' for Active; 'I' for Inactive)
REMARK    1  A    between atoms: C2_2  and  C3_3 
REMARK    2  A    between atoms: C3_3  and  C4_4 
REMARK    3  A    between atoms: C4_4  and  N1_5 
REMARK    4  A    between atoms: N1_5  and  C5_7 
REMARK    5  A    between atoms: C9_13  and  N3_14 
REMARK    6  A    between atoms: N3_14  and  C10_15 
REMARK    7  A    between atoms: N3_14  and  C14_19 
REMARK    8  A    between atoms: C10_15  and  C11_16 
REMARK    9  A    between atoms: C11_16  and  C12_17 
ROOT
HETATM    1  C5  UNL     1      57.755  24.770  30.242  1.00  0.00     0.679 A 
HETATM    2  N2  UNL     1      56.922  23.813  29.823  1.00  0.00    -0.196 N 
ATOM      3  H2  UNL     1      55.951  23.850  30.136  1.00  0.00     0.184 HD
HETATM    4  C6  UNL     1      57.287  22.811  29.019  1.00  0.00     0.026 A 
HETATM    5  C7  UNL     1      56.303  21.798  28.597  1.00  0.00     0.069 C 
HETATM    6  C8  UNL     1      58.625  22.784  28.604  1.00  0.00     0.074 A 
HETATM    7  C9  UNL     1      59.511  23.741  29.008  1.00  0.00     0.121 A 
HETATM    8  N5  UNL     1      59.050  24.708  29.817  1.00  0.00    -0.177 N 
ATOM      9  H5  UNL     1      59.698  25.430  30.128  1.00  0.00     0.185 HD
ENDROOT
BRANCH   7  10
HETATM   10  N3  UNL     1      60.865  23.742  28.640  1.00  0.00    -0.362 N 
BRANCH  10  11
HETATM   11  C10 UNL     1      61.903  22.893  29.126  1.00  0.00     0.125 C 
BRANCH  11  12
HETATM   12  C11 UNL     1      61.788  22.381  30.516  1.00  0.00     0.019 C 
BRANCH  12  13
HETATM   13  C12 UNL     1      63.086  22.148  31.227  1.00  0.00    -0.003 C 
HETATM   14  C13 UNL     1      64.117  23.176  30.790  1.00  0.00     0.005 C 
ENDBRANCH  12  13
ENDBRANCH  11  12
ENDBRANCH  10  11
BRANCH  10  15
HETATM   15  C14 UNL     1      61.218  24.691  27.579  1.00  0.00     0.088 C 
HETATM   16  C15 UNL     1      62.663  25.084  27.602  1.00  0.00     0.032 C 
HETATM   17  C16 UNL     1      62.765  25.870  26.287  1.00  0.00     0.020 C 
HETATM   18  C17 UNL     1      64.194  25.840  25.829  1.00  0.00     0.034 C 
HETATM   19  C19 UNL     1      61.962  25.014  25.353  1.00  0.00     0.192 C 
HETATM   20  C18 UNL     1      64.101  25.018  24.561  1.00  0.00     0.233 C 
HETATM   21  N4  UNL     1      62.950  24.140  24.749  1.00  0.00    -0.070 N 
ATOM     22  H42 UNL     1      62.636  23.665  23.902  1.00  0.00     0.277 HD
ATOM     23  H41 UNL     1      63.146  23.291  25.278  1.00  0.00     0.277 HD
HETATM   24  C20 UNL     1      61.052  24.138  26.209  1.00  0.00     0.058 C 
ENDBRANCH  10  15
ENDBRANCH   7  10
BRANCH   1  25
HETATM   25  N1  UNL     1      57.391  25.719  31.002  1.00  0.00    -0.226 N 
ATOM     26  H1  UNL     1      56.745  26.411  30.623  1.00  0.00     0.177 HD
BRANCH  25  27
HETATM   27  C4  UNL     1      57.827  25.884  32.347  1.00  0.00     0.138 C 
BRANCH  27  28
HETATM   28  C3  UNL     1      57.079  24.957  33.266  1.00  0.00     0.020 C 
BRANCH  28  29
HETATM   29  C2  UNL     1      57.987  23.800  33.695  1.00  0.00    -0.003 C 
HETATM   30  C1  UNL     1      57.233  22.780  34.487  1.00  0.00     0.005 C 
ENDBRANCH  28  29
ENDBRANCH  27  28
ENDBRANCH  25  27
ENDBRANCH   1  25
TORSDOF 9
ENDMDL
