MODEL 1
REMARK VINA RESULT: -7.098803172      0.000      0.000
REMARK  8 active torsions:
REMARK  status: ('A' for Active; 'I' for Inactive)
REMARK    1  A    between atoms: C9_10  and  O2_12 
REMARK    2  A    between atoms: C11_14  and  C12_15 
REMARK    3  A    between atoms: C12_15  and  N1_16 
REMARK    4  A    between atoms: N1_16  and  C13_18 
REMARK    5  A    between atoms: C13_18  and  C14_19 
REMARK    6  A    between atoms: C14_19  and  C15_20 
REMARK    7  A    between atoms: C15_20  and  C16_21 
REMARK    8  A    between atoms: C16_21  and  N2_22 
ROOT
HETATM    1  C1  UNL     1      62.917  25.965  26.053  1.00  0.00     0.011 C 
HETATM    2  C2  UNL     1      62.077  24.757  26.356  1.00  0.00    -0.007 C 
HETATM    3  C3  UNL     1      60.785  24.733  25.546  1.00  0.00     0.083 C 
HETATM    4  C4  UNL     1      59.738  24.205  26.471  1.00  0.00     0.132 C 
HETATM    5  O1  UNL     1      58.552  24.251  26.206  1.00  0.00    -0.298 OA
HETATM    6  C5  UNL     1      60.465  23.689  27.626  1.00  0.00     0.068 C 
HETATM    7  C6  UNL     1      61.527  24.797  27.755  1.00  0.00     0.001 C 
HETATM    8  C7  UNL     1      62.483  24.444  28.821  1.00  0.00     0.009 C 
HETATM    9  C8  UNL     1      62.187  23.208  29.581  1.00  0.00     0.038 C 
HETATM   10  C9  UNL     1      60.757  22.942  29.898  1.00  0.00     0.060 C 
HETATM   11  C10 UNL     1      60.552  21.426  29.758  1.00  0.00     0.046 C 
HETATM   12  C11 UNL     1      59.789  23.626  28.925  1.00  0.00     0.048 C 
ENDROOT
BRANCH  12  13
HETATM   13  C12 UNL     1      58.479  22.884  28.974  1.00  0.00     0.122 C 
BRANCH  13  14
HETATM   14  N1  UNL     1      57.455  23.897  29.120  1.00  0.00    -0.421 N 
ATOM     15  H1  UNL     1      57.048  24.379  28.317  1.00  0.00     0.153 HD
BRANCH  14  16
HETATM   16  C13 UNL     1      57.052  24.179  30.454  1.00  0.00     0.114 C 
BRANCH  16  17
HETATM   17  C14 UNL     1      56.074  23.104  30.945  1.00  0.00     0.024 C 
BRANCH  17  18
HETATM   18  C15 UNL     1      55.754  23.380  32.370  1.00  0.00     0.046 C 
BRANCH  18  19
HETATM   19  C16 UNL     1      56.715  24.243  33.108  1.00  0.00     0.058 C 
BRANCH  19  20
HETATM   20  N2  UNL     1      57.408  23.634  34.137  1.00  0.00    -0.393 N 
HETATM   21  C17 UNL     1      57.057  22.441  34.712  1.00  0.00     0.122 C 
HETATM   22  C18 UNL     1      57.313  22.542  36.227  1.00  0.00     0.021 C 
HETATM   23  C19 UNL     1      58.236  23.717  36.336  1.00  0.00     0.021 C 
HETATM   24  C20 UNL     1      58.018  24.540  35.094  1.00  0.00     0.122 C 
ENDBRANCH  19  20
ENDBRANCH  18  19
ENDBRANCH  17  18
ENDBRANCH  16  17
ENDBRANCH  14  16
ENDBRANCH  13  14
ENDBRANCH  12  13
BRANCH  10  25
HETATM   25  O2  UNL     1      60.387  23.307  31.188  1.00  0.00    -0.390 OA
ATOM     26  H2  UNL     1      59.461  23.199  31.369  1.00  0.00     0.210 HD
ENDBRANCH  10  25
TORSDOF 8
ENDMDL
MODEL 2
REMARK VINA RESULT: -7.049141347      1.541      3.729
REMARK  8 active torsions:
REMARK  status: ('A' for Active; 'I' for Inactive)
REMARK    1  A    between atoms: C9_10  and  O2_12 
REMARK    2  A    between atoms: C11_14  and  C12_15 
REMARK    3  A    between atoms: C12_15  and  N1_16 
REMARK    4  A    between atoms: N1_16  and  C13_18 
REMARK    5  A    between atoms: C13_18  and  C14_19 
REMARK    6  A    between atoms: C14_19  and  C15_20 
REMARK    7  A    between atoms: C15_20  and  C16_21 
REMARK    8  A    between atoms: C16_21  and  N2_22 
ROOT
HETATM    1  C1  UNL     1      60.853  18.605  28.861  1.00  0.00     0.011 C 
HETATM    2  C2  UNL     1      61.111  20.074  28.689  1.00  0.00    -0.007 C 
HETATM    3  C3  UNL     1      61.788  20.690  29.909  1.00  0.00     0.083 C 
HETATM    4  C4  UNL     1      61.173  22.040  30.074  1.00  0.00     0.132 C 
HETATM    5  O1  UNL     1      61.339  22.714  31.073  1.00  0.00    -0.298 OA
HETATM    6  C5  UNL     1      60.418  22.276  28.848  1.00  0.00     0.068 C 
HETATM    7  C6  UNL     1      59.833  20.865  28.652  1.00  0.00     0.001 C 
HETATM    8  C7  UNL     1      59.090  20.810  27.379  1.00  0.00     0.009 C 
HETATM    9  C8  UNL     1      58.979  22.084  26.632  1.00  0.00     0.038 C 
HETATM   10  C9  UNL     1      58.765  23.317  27.438  1.00  0.00     0.060 C 
HETATM   11  C10 UNL     1      59.584  24.428  26.762  1.00  0.00     0.046 C 
HETATM   12  C11 UNL     1      59.272  23.187  28.879  1.00  0.00     0.048 C 
ENDROOT
BRANCH  12  13
HETATM   13  C12 UNL     1      59.520  24.574  29.411  1.00  0.00     0.122 C 
BRANCH  13  14
HETATM   14  N1  UNL     1      58.399  24.875  30.277  1.00  0.00    -0.421 N 
ATOM     15  H1  UNL     1      57.869  25.743  30.197  1.00  0.00     0.153 HD
BRANCH  14  16
HETATM   16  C13 UNL     1      58.084  23.882  31.245  1.00  0.00     0.114 C 
BRANCH  16  17
HETATM   17  C14 UNL     1      56.582  23.577  31.215  1.00  0.00     0.024 C 
BRANCH  17  18
HETATM   18  C15 UNL     1      56.047  23.734  32.593  1.00  0.00     0.046 C 
BRANCH  18  19
HETATM   19  C16 UNL     1      56.777  24.675  33.482  1.00  0.00     0.058 C 
BRANCH  19  20
HETATM   20  N2  UNL     1      56.971  24.251  34.784  1.00  0.00    -0.393 N 
HETATM   21  C17 UNL     1      57.901  24.775  35.642  1.00  0.00     0.122 C 
HETATM   22  C18 UNL     1      58.506  23.622  36.463  1.00  0.00     0.021 C 
HETATM   23  C19 UNL     1      57.508  22.519  36.280  1.00  0.00     0.021 C 
HETATM   24  C20 UNL     1      56.764  22.831  35.009  1.00  0.00     0.122 C 
ENDBRANCH  19  20
ENDBRANCH  18  19
ENDBRANCH  17  18
ENDBRANCH  16  17
ENDBRANCH  14  16
ENDBRANCH  13  14
ENDBRANCH  12  13
BRANCH  10  25
HETATM   25  O2  UNL     1      57.440  23.734  27.491  1.00  0.00    -0.390 OA
ATOM     26  H2  UNL     1      56.998  23.721  26.650  1.00  0.00     0.210 HD
ENDBRANCH  10  25
TORSDOF 8
ENDMDL
MODEL 3
REMARK VINA RESULT: -6.963848592      4.550     10.530
REMARK  8 active torsions:
REMARK  status: ('A' for Active; 'I' for Inactive)
REMARK    1  A    between atoms: C9_10  and  O2_12 
REMARK    2  A    between atoms: C11_14  and  C12_15 
REMARK    3  A    between atoms: C12_15  and  N1_16 
REMARK    4  A    between atoms: N1_16  and  C13_18 
REMARK    5  A    between atoms: C13_18  and  C14_19 
REMARK    6  A    between atoms: C14_19  and  C15_20 
REMARK    7  A    between atoms: C15_20  and  C16_21 
REMARK    8  A    between atoms: C16_21  and  N2_22 
ROOT
HETATM    1  C1  UNL     1      57.780  25.194  43.311  1.00  0.00     0.011 C 
HETATM    2  C2  UNL     1      57.772  24.040  42.349  1.00  0.00    -0.007 C 
HETATM    3  C3  UNL     1      59.180  23.578  41.987  1.00  0.00     0.083 C 
HETATM    4  C4  UNL     1      59.129  23.230  40.535  1.00  0.00     0.132 C 
HETATM    5  O1  UNL     1      60.133  23.022  39.881  1.00  0.00    -0.298 OA
HETATM    6  C5  UNL     1      57.713  23.216  40.188  1.00  0.00     0.068 C 
HETATM    7  C6  UNL     1      57.255  24.445  40.996  1.00  0.00     0.001 C 
HETATM    8  C7  UNL     1      55.791  24.588  40.894  1.00  0.00     0.009 C 
HETATM    9  C8  UNL     1      55.102  23.629  40.000  1.00  0.00     0.038 C 
HETATM   10  C9  UNL     1      55.796  23.280  38.729  1.00  0.00     0.060 C 
HETATM   11  C10 UNL     1      55.537  21.785  38.487  1.00  0.00     0.046 C 
HETATM   12  C11 UNL     1      57.315  23.475  38.802  1.00  0.00     0.048 C 
ENDROOT
BRANCH  12  13
HETATM   13  C12 UNL     1      57.946  22.611  37.741  1.00  0.00     0.122 C 
BRANCH  13  14
HETATM   14  N1  UNL     1      58.820  23.485  36.986  1.00  0.00    -0.421 N 
ATOM     15  H1  UNL     1      59.689  23.851  37.375  1.00  0.00     0.153 HD
BRANCH  14  16
HETATM   16  C13 UNL     1      58.389  23.799  35.668  1.00  0.00     0.114 C 
BRANCH  16  17
HETATM   17  C14 UNL     1      57.432  22.715  35.156  1.00  0.00     0.024 C 
BRANCH  17  18
HETATM   18  C15 UNL     1      56.462  23.351  34.227  1.00  0.00     0.046 C 
BRANCH  18  19
HETATM   19  C16 UNL     1      57.001  24.408  33.331  1.00  0.00     0.058 C 
BRANCH  19  20
HETATM   20  N2  UNL     1      56.620  24.329  32.004  1.00  0.00    -0.393 N 
HETATM   21  C17 UNL     1      55.920  23.287  31.456  1.00  0.00     0.122 C 
HETATM   22  C18 UNL     1      56.480  23.016  30.048  1.00  0.00     0.021 C 
HETATM   23  C19 UNL     1      57.224  24.277  29.733  1.00  0.00     0.021 C 
HETATM   24  C20 UNL     1      57.551  24.916  31.057  1.00  0.00     0.122 C 
ENDBRANCH  19  20
ENDBRANCH  18  19
ENDBRANCH  17  18
ENDBRANCH  16  17
ENDBRANCH  14  16
ENDBRANCH  13  14
ENDBRANCH  12  13
BRANCH  10  25
HETATM   25  O2  UNL     1      55.331  23.980  37.622  1.00  0.00    -0.390 OA
ATOM     26  H2  UNL     1      55.726  24.837  37.514  1.00  0.00     0.210 HD
ENDBRANCH  10  25
TORSDOF 8
ENDMDL
MODEL 4
REMARK VINA RESULT: -6.926396521      4.096     10.140
REMARK  8 active torsions:
REMARK  status: ('A' for Active; 'I' for Inactive)
REMARK    1  A    between atoms: C9_10  and  O2_12 
REMARK    2  A    between atoms: C11_14  and  C12_15 
REMARK    3  A    between atoms: C12_15  and  N1_16 
REMARK    4  A    between atoms: N1_16  and  C13_18 
REMARK    5  A    between atoms: C13_18  and  C14_19 
REMARK    6  A    between atoms: C14_19  and  C15_20 
REMARK    7  A    between atoms: C15_20  and  C16_21 
REMARK    8  A    between atoms: C16_21  and  N2_22 
ROOT
HETATM    1  C1  UNL     1      53.038  22.404  40.935  1.00  0.00     0.011 C 
HETATM    2  C2  UNL     1      54.373  23.014  40.615  1.00  0.00    -0.007 C 
HETATM    3  C3  UNL     1      54.389  24.523  40.838  1.00  0.00     0.083 C 
HETATM    4  C4  UNL     1      55.212  25.086  39.726  1.00  0.00     0.132 C 
HETATM    5  O1  UNL     1      55.255  26.278  39.488  1.00  0.00    -0.298 OA
HETATM    6  C5  UNL     1      55.858  23.938  39.100  1.00  0.00     0.068 C 
HETATM    7  C6  UNL     1      54.680  22.947  39.145  1.00  0.00     0.001 C 
HETATM    8  C7  UNL     1      55.122  21.630  38.649  1.00  0.00     0.009 C 
HETATM    9  C8  UNL     1      56.511  21.556  38.142  1.00  0.00     0.038 C 
HETATM   10  C9  UNL     1      57.003  22.725  37.362  1.00  0.00     0.060 C 
HETATM   11  C10 UNL     1      58.474  22.926  37.757  1.00  0.00     0.046 C 
HETATM   12  C11 UNL     1      56.259  24.024  37.694  1.00  0.00     0.048 C 
ENDROOT
BRANCH  12  13
HETATM   13  C12 UNL     1      57.146  25.179  37.309  1.00  0.00     0.122 C 
BRANCH  13  14
HETATM   14  N1  UNL     1      56.968  25.358  35.883  1.00  0.00    -0.421 N 
ATOM     15  H1  UNL     1      56.281  24.825  35.350  1.00  0.00     0.153 HD
BRANCH  14  16
HETATM   16  C13 UNL     1      57.813  26.326  35.274  1.00  0.00     0.114 C 
BRANCH  16  17
HETATM   17  C14 UNL     1      57.831  26.125  33.754  1.00  0.00     0.024 C 
BRANCH  17  18
HETATM   18  C15 UNL     1      57.084  24.880  33.440  1.00  0.00     0.046 C 
BRANCH  18  19
HETATM   19  C16 UNL     1      57.640  24.031  32.353  1.00  0.00     0.058 C 
BRANCH  19  20
HETATM   20  N2  UNL     1      56.975  24.084  31.142  1.00  0.00    -0.393 N 
HETATM   21  C17 UNL     1      56.133  23.111  30.674  1.00  0.00     0.122 C 
HETATM   22  C18 UNL     1      56.361  22.963  29.158  1.00  0.00     0.021 C 
HETATM   23  C19 UNL     1      57.066  24.235  28.798  1.00  0.00     0.021 C 
HETATM   24  C20 UNL     1      57.699  24.740  30.067  1.00  0.00     0.122 C 
ENDBRANCH  19  20
ENDBRANCH  18  19
ENDBRANCH  17  18
ENDBRANCH  16  17
ENDBRANCH  14  16
ENDBRANCH  13  14
ENDBRANCH  12  13
BRANCH  10  25
HETATM   25  O2  UNL     1      56.951  22.546  35.984  1.00  0.00    -0.390 OA
ATOM     26  H2  UNL     1      57.774  22.716  35.542  1.00  0.00     0.210 HD
ENDBRANCH  10  25
TORSDOF 8
ENDMDL
MODEL 5
REMARK VINA RESULT: -6.923472616      1.825      3.350
REMARK  8 active torsions:
REMARK  status: ('A' for Active; 'I' for Inactive)
REMARK    1  A    between atoms: C9_10  and  O2_12 
REMARK    2  A    between atoms: C11_14  and  C12_15 
REMARK    3  A    between atoms: C12_15  and  N1_16 
REMARK    4  A    between atoms: N1_16  and  C13_18 
REMARK    5  A    between atoms: C13_18  and  C14_19 
REMARK    6  A    between atoms: C14_19  and  C15_20 
REMARK    7  A    between atoms: C15_20  and  C16_21 
REMARK    8  A    between atoms: C16_21  and  N2_22 
ROOT
HETATM    1  C1  UNL     1      62.639  20.646  30.860  1.00  0.00     0.011 C 
HETATM    2  C2  UNL     1      62.166  21.507  29.723  1.00  0.00    -0.007 C 
HETATM    3  C3  UNL     1      62.284  22.995  30.036  1.00  0.00     0.083 C 
HETATM    4  C4  UNL     1      61.071  23.631  29.441  1.00  0.00     0.132 C 
HETATM    5  O1  UNL     1      60.751  24.778  29.685  1.00  0.00    -0.298 OA
HETATM    6  C5  UNL     1      60.471  22.605  28.594  1.00  0.00     0.068 C 
HETATM    7  C6  UNL     1      60.683  21.385  29.510  1.00  0.00     0.001 C 
HETATM    8  C7  UNL     1      60.241  20.162  28.815  1.00  0.00     0.009 C 
HETATM    9  C8  UNL     1      59.624  20.355  27.482  1.00  0.00     0.038 C 
HETATM   10  C9  UNL     1      58.727  21.533  27.324  1.00  0.00     0.060 C 
HETATM   11  C10 UNL     1      58.981  22.088  25.914  1.00  0.00     0.046 C 
HETATM   12  C11 UNL     1      59.033  22.658  28.319  1.00  0.00     0.048 C 
ENDROOT
BRANCH  12  13
HETATM   13  C12 UNL     1      58.497  23.944  27.747  1.00  0.00     0.122 C 
BRANCH  13  14
HETATM   14  N1  UNL     1      57.214  24.158  28.383  1.00  0.00    -0.421 N 
ATOM     15  H1  UNL     1      56.357  24.291  27.846  1.00  0.00     0.153 HD
BRANCH  14  16
HETATM   16  C13 UNL     1      57.225  24.172  29.805  1.00  0.00     0.114 C 
BRANCH  16  17
HETATM   17  C14 UNL     1      56.331  23.050  30.347  1.00  0.00     0.024 C 
BRANCH  17  18
HETATM   18  C15 UNL     1      55.894  23.423  31.718  1.00  0.00     0.046 C 
BRANCH  18  19
HETATM   19  C16 UNL     1      56.797  24.329  32.475  1.00  0.00     0.058 C 
BRANCH  19  20
HETATM   20  N2  UNL     1      56.883  24.099  33.836  1.00  0.00    -0.393 N 
HETATM   21  C17 UNL     1      57.698  24.791  34.692  1.00  0.00     0.122 C 
HETATM   22  C18 UNL     1      58.273  23.799  35.719  1.00  0.00     0.021 C 
HETATM   23  C19 UNL     1      57.351  22.624  35.605  1.00  0.00     0.021 C 
HETATM   24  C20 UNL     1      56.721  22.714  34.241  1.00  0.00     0.122 C 
ENDBRANCH  19  20
ENDBRANCH  18  19
ENDBRANCH  17  18
ENDBRANCH  16  17
ENDBRANCH  14  16
ENDBRANCH  13  14
ENDBRANCH  12  13
BRANCH  10  25
HETATM   25  O2  UNL     1      57.374  21.231  27.428  1.00  0.00    -0.390 OA
ATOM     26  H2  UNL     1      57.151  20.719  28.197  1.00  0.00     0.210 HD
ENDBRANCH  10  25
TORSDOF 8
ENDMDL
