MODEL 1
REMARK VINA RESULT: -7.999424314      0.000      0.000
REMARK  8 active torsions:
REMARK  status: ('A' for Active; 'I' for Inactive)
REMARK    1  A    between atoms: O1_2  and  C2_3 
REMARK    2  A    between atoms: C2_3  and  N1_4 
REMARK    3  A    between atoms: N1_4  and  C3_7 
REMARK    4  A    between atoms: C5_9  and  O2_10 
REMARK    5  A    between atoms: O2_10  and  C6_11 
REMARK    6  A    between atoms: C6_11  and  C9_14 
REMARK       I    between atoms: C9_14  and  N2_16 
REMARK    7  A    between atoms: N2_16  and  C10_18 
REMARK    8  A    between atoms: C10_18  and  C11_19 
ROOT
HETATM    1  C9  UNL     1      57.587  25.551  35.150  1.00  0.00     0.251 C 
HETATM    2  O3  UNL     1      58.168  26.573  35.583  1.00  0.00    -0.270 OA
HETATM    3  N2  UNL     1      56.865  24.750  36.058  1.00  0.00    -0.358 N 
ATOM      4  H2  UNL     1      56.382  23.911  35.738  1.00  0.00     0.162 HD
ENDROOT
BRANCH   1   5
HETATM    5  C6  UNL     1      57.648  25.177  33.708  1.00  0.00     0.134 C 
HETATM    6  C7  UNL     1      58.273  26.321  32.898  1.00  0.00     0.056 C 
HETATM    7  C8  UNL     1      58.604  24.009  33.571  1.00  0.00     0.056 C 
BRANCH   5   8
HETATM    8  O2  UNL     1      56.449  24.806  33.175  1.00  0.00    -0.364 OA
BRANCH   8   9
HETATM    9  C5  UNL     1      56.383  23.593  32.561  1.00  0.00     0.156 A 
HETATM   10  C3  UNL     1      55.974  23.643  31.100  1.00  0.00     0.219 A 
HETATM   11  C4  UNL     1      55.115  22.981  32.107  1.00  0.00     0.070 A 
BRANCH  10  12
HETATM   12  N1  UNL     1      56.684  22.920  30.101  1.00  0.00    -0.048 N 
ATOM     13  H12 UNL     1      56.785  21.943  30.375  1.00  0.00     0.280 HD
ATOM     14  H11 UNL     1      57.664  23.202  30.089  1.00  0.00     0.280 HD
BRANCH  12  15
HETATM   15  C2  UNL     1      56.122  23.014  28.780  1.00  0.00     0.399 C 
BRANCH  15  16
HETATM   16  O1  UNL     1      56.701  24.023  28.054  1.00  0.00    -0.369 OA
HETATM   17  C1  UNL     1      58.071  24.004  27.994  1.00  0.00     0.203 C 
ENDBRANCH  15  16
ENDBRANCH  12  15
ENDBRANCH  10  12
ENDBRANCH   8   9
ENDBRANCH   5   8
ENDBRANCH   1   5
BRANCH   3  18
HETATM   18  C10 UNL     1      56.821  25.136  37.450  1.00  0.00     0.132 C 
BRANCH  18  19
HETATM   19  C11 UNL     1      56.620  23.969  38.376  1.00  0.00    -0.023 C 
HETATM   20  C12 UNL     1      55.374  23.232  37.883  1.00  0.00     0.015 C 
HETATM   21  C13 UNL     1      55.012  22.084  38.775  1.00  0.00    -0.013 C 
HETATM   22  C14 UNL     1      56.162  21.104  38.750  1.00  0.00     0.009 C 
HETATM   23  C18 UNL     1      54.784  22.619  40.163  1.00  0.00     0.009 C 
HETATM   24  C15 UNL     1      57.403  21.802  39.222  1.00  0.00    -0.013 C 
HETATM   25  C16 UNL     1      57.161  22.233  40.662  1.00  0.00     0.009 C 
HETATM   26  C20 UNL     1      57.759  23.002  38.380  1.00  0.00     0.015 C 
HETATM   27  C17 UNL     1      56.056  23.259  40.669  1.00  0.00    -0.013 C 
HETATM   28  C19 UNL     1      56.384  24.445  39.795  1.00  0.00     0.015 C 
ENDBRANCH  18  19
ENDBRANCH   3  18
TORSDOF 8
ENDMDL
MODEL 2
REMARK VINA RESULT: -7.995611569      0.103      1.451
REMARK  8 active torsions:
REMARK  status: ('A' for Active; 'I' for Inactive)
REMARK    1  A    between atoms: O1_2  and  C2_3 
REMARK    2  A    between atoms: C2_3  and  N1_4 
REMARK    3  A    between atoms: N1_4  and  C3_7 
REMARK    4  A    between atoms: C5_9  and  O2_10 
REMARK    5  A    between atoms: O2_10  and  C6_11 
REMARK    6  A    between atoms: C6_11  and  C9_14 
REMARK       I    between atoms: C9_14  and  N2_16 
REMARK    7  A    between atoms: N2_16  and  C10_18 
REMARK    8  A    between atoms: C10_18  and  C11_19 
ROOT
HETATM    1  C9  UNL     1      57.583  25.557  35.159  1.00  0.00     0.251 C 
HETATM    2  O3  UNL     1      58.174  26.578  35.581  1.00  0.00    -0.270 OA
HETATM    3  N2  UNL     1      56.847  24.778  36.074  1.00  0.00    -0.358 N 
ATOM      4  H2  UNL     1      56.355  23.940  35.763  1.00  0.00     0.162 HD
ENDROOT
BRANCH   1   5
HETATM    5  C6  UNL     1      57.647  25.162  33.723  1.00  0.00     0.134 C 
HETATM    6  C7  UNL     1      58.286  26.290  32.900  1.00  0.00     0.056 C 
HETATM    7  C8  UNL     1      58.594  23.985  33.607  1.00  0.00     0.056 C 
BRANCH   5   8
HETATM    8  O2  UNL     1      56.448  24.794  33.189  1.00  0.00    -0.364 OA
BRANCH   8   9
HETATM    9  C5  UNL     1      56.380  23.581  32.574  1.00  0.00     0.156 A 
HETATM   10  C3  UNL     1      55.963  23.633  31.115  1.00  0.00     0.219 A 
HETATM   11  C4  UNL     1      55.110  22.968  32.127  1.00  0.00     0.070 A 
BRANCH  10  12
HETATM   12  N1  UNL     1      56.668  22.913  30.111  1.00  0.00    -0.048 N 
ATOM     13  H12 UNL     1      56.775  21.936  30.385  1.00  0.00     0.280 HD
ATOM     14  H11 UNL     1      57.647  23.198  30.092  1.00  0.00     0.280 HD
BRANCH  12  15
HETATM   15  C2  UNL     1      56.095  23.003  28.794  1.00  0.00     0.399 C 
BRANCH  15  16
HETATM   16  O1  UNL     1      56.666  24.012  28.063  1.00  0.00    -0.369 OA
HETATM   17  C1  UNL     1      58.036  24.000  27.996  1.00  0.00     0.203 C 
ENDBRANCH  15  16
ENDBRANCH  12  15
ENDBRANCH  10  12
ENDBRANCH   8   9
ENDBRANCH   5   8
ENDBRANCH   1   5
BRANCH   3  18
HETATM   18  C10 UNL     1      56.799  25.184  37.460  1.00  0.00     0.132 C 
BRANCH  18  19
HETATM   19  C11 UNL     1      56.495  24.046  38.395  1.00  0.00    -0.023 C 
HETATM   20  C12 UNL     1      57.672  23.074  38.293  1.00  0.00     0.015 C 
HETATM   21  C13 UNL     1      57.457  21.845  39.121  1.00  0.00    -0.013 C 
HETATM   22  C14 UNL     1      57.344  22.278  40.565  1.00  0.00     0.009 C 
HETATM   23  C18 UNL     1      56.190  21.178  38.655  1.00  0.00     0.009 C 
HETATM   24  C15 UNL     1      56.200  23.240  40.694  1.00  0.00    -0.013 C 
HETATM   25  C16 UNL     1      54.933  22.491  40.310  1.00  0.00     0.009 C 
HETATM   26  C20 UNL     1      56.359  24.462  39.823  1.00  0.00     0.015 C 
HETATM   27  C17 UNL     1      55.025  22.120  38.852  1.00  0.00    -0.013 C 
HETATM   28  C19 UNL     1      55.226  23.332  37.975  1.00  0.00     0.015 C 
ENDBRANCH  18  19
ENDBRANCH   3  18
TORSDOF 8
ENDMDL
MODEL 3
REMARK VINA RESULT: -7.877796079      0.639      1.739
REMARK  8 active torsions:
REMARK  status: ('A' for Active; 'I' for Inactive)
REMARK    1  A    between atoms: O1_2  and  C2_3 
REMARK    2  A    between atoms: C2_3  and  N1_4 
REMARK    3  A    between atoms: N1_4  and  C3_7 
REMARK    4  A    between atoms: C5_9  and  O2_10 
REMARK    5  A    between atoms: O2_10  and  C6_11 
REMARK    6  A    between atoms: C6_11  and  C9_14 
REMARK       I    between atoms: C9_14  and  N2_16 
REMARK    7  A    between atoms: N2_16  and  C10_18 
REMARK    8  A    between atoms: C10_18  and  C11_19 
ROOT
HETATM    1  C9  UNL     1      57.410  25.292  35.369  1.00  0.00     0.251 C 
HETATM    2  O3  UNL     1      57.915  26.295  35.926  1.00  0.00    -0.270 OA
HETATM    3  N2  UNL     1      56.670  24.385  36.155  1.00  0.00    -0.358 N 
ATOM      4  H2  UNL     1      56.247  23.559  35.733  1.00  0.00     0.162 HD
ENDROOT
BRANCH   1   5
HETATM    5  C6  UNL     1      57.578  25.050  33.908  1.00  0.00     0.134 C 
HETATM    6  C7  UNL     1      58.241  26.268  33.250  1.00  0.00     0.056 C 
HETATM    7  C8  UNL     1      58.560  23.908  33.736  1.00  0.00     0.056 C 
BRANCH   5   8
HETATM    8  O2  UNL     1      56.426  24.717  33.258  1.00  0.00    -0.364 OA
BRANCH   8   9
HETATM    9  C5  UNL     1      56.401  23.531  32.592  1.00  0.00     0.156 A 
HETATM   10  C3  UNL     1      56.007  23.633  31.129  1.00  0.00     0.219 A 
HETATM   11  C4  UNL     1      55.156  22.904  32.096  1.00  0.00     0.070 A 
BRANCH  10  12
HETATM   12  N1  UNL     1      56.748  22.975  30.108  1.00  0.00    -0.048 N 
ATOM     13  H12 UNL     1      56.931  22.007  30.371  1.00  0.00     0.280 HD
ATOM     14  H11 UNL     1      57.703  23.333  30.077  1.00  0.00     0.280 HD
BRANCH  12  15
HETATM   15  C2  UNL     1      56.150  23.034  28.801  1.00  0.00     0.399 C 
BRANCH  15  16
HETATM   16  O1  UNL     1      56.720  24.012  28.027  1.00  0.00    -0.369 OA
HETATM   17  C1  UNL     1      58.090  24.012  27.978  1.00  0.00     0.203 C 
ENDBRANCH  15  16
ENDBRANCH  12  15
ENDBRANCH  10  12
ENDBRANCH   8   9
ENDBRANCH   5   8
ENDBRANCH   1   5
BRANCH   3  18
HETATM   18  C10 UNL     1      56.521  24.645  37.568  1.00  0.00     0.132 C 
BRANCH  18  19
HETATM   19  C11 UNL     1      56.141  23.419  38.353  1.00  0.00    -0.023 C 
HETATM   20  C12 UNL     1      56.751  23.590  39.745  1.00  0.00     0.015 C 
HETATM   21  C13 UNL     1      56.514  22.391  40.611  1.00  0.00    -0.013 C 
HETATM   22  C14 UNL     1      55.021  22.234  40.782  1.00  0.00     0.009 C 
HETATM   23  C18 UNL     1      57.111  21.190  39.926  1.00  0.00     0.009 C 
HETATM   24  C15 UNL     1      54.394  22.073  39.428  1.00  0.00    -0.013 C 
HETATM   25  C16 UNL     1      54.950  20.794  38.820  1.00  0.00     0.009 C 
HETATM   26  C20 UNL     1      54.667  23.239  38.510  1.00  0.00     0.015 C 
HETATM   27  C17 UNL     1      56.430  20.982  38.594  1.00  0.00    -0.013 C 
HETATM   28  C19 UNL     1      56.716  22.172  37.711  1.00  0.00     0.015 C 
ENDBRANCH  18  19
ENDBRANCH   3  18
TORSDOF 8
ENDMDL
MODEL 4
REMARK VINA RESULT: -7.692864027      1.988      3.023
REMARK  8 active torsions:
REMARK  status: ('A' for Active; 'I' for Inactive)
REMARK    1  A    between atoms: O1_2  and  C2_3 
REMARK    2  A    between atoms: C2_3  and  N1_4 
REMARK    3  A    between atoms: N1_4  and  C3_7 
REMARK    4  A    between atoms: C5_9  and  O2_10 
REMARK    5  A    between atoms: O2_10  and  C6_11 
REMARK    6  A    between atoms: C6_11  and  C9_14 
REMARK       I    between atoms: C9_14  and  N2_16 
REMARK    7  A    between atoms: N2_16  and  C10_18 
REMARK    8  A    between atoms: C10_18  and  C11_19 
ROOT
HETATM    1  C9  UNL     1      57.000  23.697  32.743  1.00  0.00     0.251 C 
HETATM    2  O3  UNL     1      55.760  23.525  32.679  1.00  0.00    -0.270 OA
HETATM    3  N2  UNL     1      57.713  23.084  33.793  1.00  0.00    -0.358 N 
ATOM      4  H2  UNL     1      58.722  23.205  33.874  1.00  0.00     0.162 HD
ENDROOT
BRANCH   1   5
HETATM    5  C6  UNL     1      57.720  24.529  31.737  1.00  0.00     0.134 C 
HETATM    6  C7  UNL     1      57.980  25.930  32.309  1.00  0.00     0.056 C 
HETATM    7  C8  UNL     1      59.088  23.916  31.520  1.00  0.00     0.056 C 
BRANCH   5   8
HETATM    8  O2  UNL     1      57.096  24.610  30.527  1.00  0.00    -0.364 OA
BRANCH   8   9
HETATM    9  C5  UNL     1      57.249  23.563  29.671  1.00  0.00     0.156 A 
HETATM   10  C3  UNL     1      57.283  23.946  28.202  1.00  0.00     0.219 A 
HETATM   11  C4  UNL     1      56.188  23.110  28.744  1.00  0.00     0.070 A 
BRANCH  10  12
HETATM   12  N1  UNL     1      58.276  23.434  27.320  1.00  0.00    -0.048 N 
ATOM     13  H12 UNL     1      57.838  22.969  26.526  1.00  0.00     0.280 HD
ATOM     14  H11 UNL     1      58.755  22.642  27.747  1.00  0.00     0.280 HD
BRANCH  12  15
HETATM   15  C2  UNL     1      59.232  24.409  26.864  1.00  0.00     0.399 C 
BRANCH  15  16
HETATM   16  O1  UNL     1      59.080  24.679  25.529  1.00  0.00    -0.369 OA
HETATM   17  C1  UNL     1      60.078  25.423  24.953  1.00  0.00     0.203 C 
ENDBRANCH  15  16
ENDBRANCH  12  15
ENDBRANCH  10  12
ENDBRANCH   8   9
ENDBRANCH   5   8
ENDBRANCH   1   5
BRANCH   3  18
HETATM   18  C10 UNL     1      56.991  22.281  34.754  1.00  0.00     0.132 C 
BRANCH  18  19
HETATM   19  C11 UNL     1      57.063  22.832  36.151  1.00  0.00    -0.023 C 
HETATM   20  C12 UNL     1      56.768  21.664  37.093  1.00  0.00     0.015 C 
HETATM   21  C13 UNL     1      56.729  22.097  38.527  1.00  0.00    -0.013 C 
HETATM   22  C14 UNL     1      58.095  22.637  38.882  1.00  0.00     0.009 C 
HETATM   23  C18 UNL     1      55.672  23.160  38.669  1.00  0.00     0.009 C 
HETATM   24  C15 UNL     1      58.416  23.782  37.966  1.00  0.00    -0.013 C 
HETATM   25  C16 UNL     1      57.382  24.869  38.220  1.00  0.00     0.009 C 
HETATM   26  C20 UNL     1      58.402  23.390  36.508  1.00  0.00     0.015 C 
HETATM   27  C17 UNL     1      56.031  24.344  37.802  1.00  0.00    -0.013 C 
HETATM   28  C19 UNL     1      56.018  23.910  36.357  1.00  0.00     0.015 C 
ENDBRANCH  18  19
ENDBRANCH   3  18
TORSDOF 8
ENDMDL
MODEL 5
REMARK VINA RESULT: -7.645345703      2.129      3.042
REMARK  8 active torsions:
REMARK  status: ('A' for Active; 'I' for Inactive)
REMARK    1  A    between atoms: O1_2  and  C2_3 
REMARK    2  A    between atoms: C2_3  and  N1_4 
REMARK    3  A    between atoms: N1_4  and  C3_7 
REMARK    4  A    between atoms: C5_9  and  O2_10 
REMARK    5  A    between atoms: O2_10  and  C6_11 
REMARK    6  A    between atoms: C6_11  and  C9_14 
REMARK       I    between atoms: C9_14  and  N2_16 
REMARK    7  A    between atoms: N2_16  and  C10_18 
REMARK    8  A    between atoms: C10_18  and  C11_19 
ROOT
HETATM    1  C9  UNL     1      58.168  23.795  32.901  1.00  0.00     0.251 C 
HETATM    2  O3  UNL     1      59.401  23.644  32.733  1.00  0.00    -0.270 OA
HETATM    3  N2  UNL     1      57.664  23.817  34.217  1.00  0.00    -0.358 N 
ATOM      4  H2  UNL     1      56.666  23.936  34.388  1.00  0.00     0.162 HD
ENDROOT
BRANCH   1   5
HETATM    5  C6  UNL     1      57.242  23.948  31.743  1.00  0.00     0.134 C 
HETATM    6  C7  UNL     1      55.790  23.760  32.207  1.00  0.00     0.056 C 
HETATM    7  C8  UNL     1      57.334  25.381  31.260  1.00  0.00     0.056 C 
BRANCH   5   8
HETATM    8  O2  UNL     1      57.521  23.128  30.690  1.00  0.00    -0.364 OA
BRANCH   8   9
HETATM    9  C5  UNL     1      56.477  22.712  29.923  1.00  0.00     0.156 A 
HETATM   10  C3  UNL     1      56.858  21.787  28.781  1.00  0.00     0.219 A 
HETATM   11  C4  UNL     1      56.287  23.127  28.515  1.00  0.00     0.070 A 
BRANCH  10  12
HETATM   12  N1  UNL     1      56.144  20.583  28.525  1.00  0.00    -0.048 N 
ATOM     13  H12 UNL     1      55.168  20.684  28.803  1.00  0.00     0.280 HD
ATOM     14  H11 UNL     1      56.437  19.853  29.174  1.00  0.00     0.280 HD
BRANCH  12  15
HETATM   15  C2  UNL     1      56.232  20.111  27.169  1.00  0.00     0.399 C 
BRANCH  15  16
HETATM   16  O1  UNL     1      55.108  20.427  26.450  1.00  0.00    -0.369 OA
HETATM   17  C1  UNL     1      54.696  19.486  25.542  1.00  0.00     0.203 C 
ENDBRANCH  15  16
ENDBRANCH  12  15
ENDBRANCH  10  12
ENDBRANCH   8   9
ENDBRANCH   5   8
ENDBRANCH   1   5
BRANCH   3  18
HETATM   18  C10 UNL     1      58.584  23.668  35.321  1.00  0.00     0.132 C 
BRANCH  18  19
HETATM   19  C11 UNL     1      57.890  23.500  36.644  1.00  0.00    -0.023 C 
HETATM   20  C12 UNL     1      57.069  22.213  36.543  1.00  0.00     0.015 C 
HETATM   21  C13 UNL     1      56.257  21.967  37.778  1.00  0.00    -0.013 C 
HETATM   22  C14 UNL     1      57.217  21.808  38.934  1.00  0.00     0.009 C 
HETATM   23  C18 UNL     1      55.348  23.149  37.986  1.00  0.00     0.009 C 
HETATM   24  C15 UNL     1      58.043  23.055  39.053  1.00  0.00    -0.013 C 
HETATM   25  C16 UNL     1      57.091  24.201  39.365  1.00  0.00     0.009 C 
HETATM   26  C20 UNL     1      58.826  23.363  37.800  1.00  0.00     0.015 C 
HETATM   27  C17 UNL     1      56.180  24.395  38.178  1.00  0.00    -0.013 C 
HETATM   28  C19 UNL     1      56.956  24.662  36.911  1.00  0.00     0.015 C 
ENDBRANCH  18  19
ENDBRANCH   3  18
TORSDOF 8
ENDMDL
