MODEL 1
REMARK VINA RESULT: -7.926125934      0.000      0.000
REMARK  7 active torsions:
REMARK  status: ('A' for Active; 'I' for Inactive)
REMARK    1  A    between atoms: C5_5  and  C6_6 
REMARK    2  A    between atoms: C6_6  and  C7_7 
REMARK    3  A    between atoms: C7_7  and  C8_8 
REMARK    4  A    between atoms: C8_8  and  N1_9 
REMARK    5  A    between atoms: C11_12  and  N2_13 
REMARK    6  A    between atoms: N2_13  and  C12_15 
REMARK    7  A    between atoms: C12_15  and  C13_16 
ROOT
HETATM    1  N1  UNL     1      56.846  23.291  35.450  1.00  0.00    -0.393 N 
HETATM    2  C9  UNL     1      57.391  22.495  36.475  1.00  0.00     0.123 C 
HETATM    3  C10 UNL     1      56.530  22.657  37.752  1.00  0.00     0.044 C 
HETATM    4  C11 UNL     1      56.012  24.077  37.729  1.00  0.00     0.079 C 
HETATM    5  C17 UNL     1      57.067  24.974  37.111  1.00  0.00     0.044 C 
HETATM    6  C18 UNL     1      57.076  24.712  35.619  1.00  0.00     0.123 C 
ENDROOT
BRANCH   4   7
HETATM    7  N2  UNL     1      55.558  24.560  38.995  1.00  0.00    -0.414 N 
ATOM      8  H2  UNL     1      54.727  24.189  39.454  1.00  0.00     0.153 HD
BRANCH   7   9
HETATM    9  C12 UNL     1      56.350  25.600  39.572  1.00  0.00     0.147 C 
BRANCH   9  10
HETATM   10  C13 UNL     1      56.463  25.293  41.070  1.00  0.00     0.164 C 
HETATM   11  C14 UNL     1      55.478  26.176  41.841  1.00  0.00     0.265 C 
HETATM   12  N3  UNL     1      56.194  26.768  42.982  1.00  0.00    -0.071 N 
HETATM   13  C15 UNL     1      56.862  25.664  43.650  1.00  0.00     0.258 C 
ATOM     14  H32 UNL     1      56.823  27.527  42.718  1.00  0.00     0.277 HD
ATOM     15  H31 UNL     1      55.594  27.316  43.599  1.00  0.00     0.277 HD
HETATM   16  C16 UNL     1      58.032  25.258  42.763  1.00  0.00     0.196 C 
HETATM   17  O1  UNL     1      57.759  25.615  41.451  1.00  0.00    -0.381 OA
ENDBRANCH   9  10
ENDBRANCH   7   9
ENDBRANCH   4   7
BRANCH   1  18
HETATM   18  C8  UNL     1      56.723  22.855  34.139  1.00  0.00     0.058 C 
BRANCH  18  19
HETATM   19  C7  UNL     1      56.251  23.760  33.059  1.00  0.00     0.044 C 
BRANCH  19  20
HETATM   20  C6  UNL     1      55.784  23.052  31.862  1.00  0.00     0.009 C 
BRANCH  20  21
HETATM   21  C5  UNL     1      56.338  23.627  30.553  1.00  0.00    -0.014 C 
HETATM   22  C4  UNL     1      56.476  22.630  29.488  1.00  0.00     0.004 C 
HETATM   23  C3  UNL     1      57.824  22.381  28.902  1.00  0.00     0.000 C 
HETATM   24  C2  UNL     1      58.452  23.587  28.289  1.00  0.00     0.000 C 
HETATM   25  C1  UNL     1      59.288  24.368  29.252  1.00  0.00     0.000 C 
HETATM   26  C20 UNL     1      58.845  24.041  30.660  1.00  0.00     0.000 C 
HETATM   27  C19 UNL     1      57.458  24.535  30.852  1.00  0.00     0.004 C 
ENDBRANCH  20  21
ENDBRANCH  19  20
ENDBRANCH  18  19
ENDBRANCH   1  18
TORSDOF 7
ENDMDL
MODEL 2
REMARK VINA RESULT: -7.901909857      1.607      2.081
REMARK  7 active torsions:
REMARK  status: ('A' for Active; 'I' for Inactive)
REMARK    1  A    between atoms: C5_5  and  C6_6 
REMARK    2  A    between atoms: C6_6  and  C7_7 
REMARK    3  A    between atoms: C7_7  and  C8_8 
REMARK    4  A    between atoms: C8_8  and  N1_9 
REMARK    5  A    between atoms: C11_12  and  N2_13 
REMARK    6  A    between atoms: N2_13  and  C12_15 
REMARK    7  A    between atoms: C12_15  and  C13_16 
ROOT
HETATM    1  N1  UNL     1      57.218  23.020  37.267  1.00  0.00    -0.393 N 
HETATM    2  C9  UNL     1      58.176  22.902  38.290  1.00  0.00     0.123 C 
HETATM    3  C10 UNL     1      57.450  22.723  39.646  1.00  0.00     0.044 C 
HETATM    4  C11 UNL     1      56.164  23.510  39.538  1.00  0.00     0.079 C 
HETATM    5  C17 UNL     1      56.414  24.743  38.690  1.00  0.00     0.044 C 
HETATM    6  C18 UNL     1      56.525  24.293  37.248  1.00  0.00     0.123 C 
ENDROOT
BRANCH   4   7
HETATM    7  N2  UNL     1      55.558  23.825  40.793  1.00  0.00    -0.414 N 
ATOM      8  H2  UNL     1      56.040  23.690  41.681  1.00  0.00     0.153 HD
BRANCH   7   9
HETATM    9  C12 UNL     1      54.228  24.342  40.717  1.00  0.00     0.147 C 
BRANCH   9  10
HETATM   10  C13 UNL     1      54.142  25.497  41.722  1.00  0.00     0.164 C 
HETATM   11  C14 UNL     1      54.397  26.819  40.994  1.00  0.00     0.265 C 
HETATM   12  N3  UNL     1      55.365  27.595  41.785  1.00  0.00    -0.071 N 
HETATM   13  C15 UNL     1      54.855  27.598  43.147  1.00  0.00     0.258 C 
ATOM     14  H32 UNL     1      56.323  27.252  41.709  1.00  0.00     0.277 HD
ATOM     15  H31 UNL     1      55.539  28.529  41.414  1.00  0.00     0.277 HD
HETATM   16  C16 UNL     1      55.091  26.201  43.706  1.00  0.00     0.196 C 
HETATM   17  O1  UNL     1      55.145  25.291  42.660  1.00  0.00    -0.381 OA
ENDBRANCH   9  10
ENDBRANCH   7   9
ENDBRANCH   4   7
BRANCH   1  18
HETATM   18  C8  UNL     1      57.340  22.386  36.040  1.00  0.00     0.058 C 
BRANCH  18  19
HETATM   19  C7  UNL     1      57.516  23.155  34.780  1.00  0.00     0.044 C 
BRANCH  19  20
HETATM   20  C6  UNL     1      56.526  22.826  33.749  1.00  0.00     0.009 C 
BRANCH  20  21
HETATM   21  C5  UNL     1      56.559  23.772  32.542  1.00  0.00    -0.014 C 
HETATM   22  C4  UNL     1      55.814  23.268  31.384  1.00  0.00     0.004 C 
HETATM   23  C3  UNL     1      56.538  23.052  30.099  1.00  0.00     0.000 C 
HETATM   24  C2  UNL     1      57.183  24.281  29.551  1.00  0.00     0.000 C 
HETATM   25  C1  UNL     1      58.589  24.469  30.025  1.00  0.00     0.000 C 
HETATM   26  C20 UNL     1      58.780  23.691  31.307  1.00  0.00     0.000 C 
HETATM   27  C19 UNL     1      57.925  24.289  32.363  1.00  0.00     0.004 C 
ENDBRANCH  20  21
ENDBRANCH  19  20
ENDBRANCH  18  19
ENDBRANCH   1  18
TORSDOF 7
ENDMDL
MODEL 3
REMARK VINA RESULT: -7.863034254      1.247      1.358
REMARK  7 active torsions:
REMARK  status: ('A' for Active; 'I' for Inactive)
REMARK    1  A    between atoms: C5_5  and  C6_6 
REMARK    2  A    between atoms: C6_6  and  C7_7 
REMARK    3  A    between atoms: C7_7  and  C8_8 
REMARK    4  A    between atoms: C8_8  and  N1_9 
REMARK    5  A    between atoms: C11_12  and  N2_13 
REMARK    6  A    between atoms: N2_13  and  C12_15 
REMARK    7  A    between atoms: C12_15  and  C13_16 
ROOT
HETATM    1  N1  UNL     1      56.908  23.307  35.423  1.00  0.00    -0.393 N 
HETATM    2  C9  UNL     1      57.419  22.477  36.437  1.00  0.00     0.123 C 
HETATM    3  C10 UNL     1      56.488  22.556  37.672  1.00  0.00     0.044 C 
HETATM    4  C11 UNL     1      55.933  23.961  37.688  1.00  0.00     0.079 C 
HETATM    5  C17 UNL     1      56.994  24.914  37.171  1.00  0.00     0.044 C 
HETATM    6  C18 UNL     1      57.089  24.725  35.671  1.00  0.00     0.123 C 
ENDROOT
BRANCH   4   7
HETATM    7  N2  UNL     1      55.399  24.371  38.949  1.00  0.00    -0.414 N 
ATOM      8  H2  UNL     1      54.694  23.828  39.445  1.00  0.00     0.153 HD
BRANCH   7   9
HETATM    9  C12 UNL     1      55.924  25.596  39.465  1.00  0.00     0.147 C 
BRANCH   9  10
HETATM   10  C13 UNL     1      55.545  25.650  40.950  1.00  0.00     0.164 C 
HETATM   11  C14 UNL     1      54.286  24.810  41.180  1.00  0.00     0.265 C 
HETATM   12  N3  UNL     1      53.353  25.603  41.996  1.00  0.00    -0.071 N 
HETATM   13  C15 UNL     1      54.125  26.087  43.129  1.00  0.00     0.258 C 
ATOM     14  H32 UNL     1      52.885  26.345  41.475  1.00  0.00     0.277 HD
ATOM     15  H31 UNL     1      52.511  25.092  42.265  1.00  0.00     0.277 HD
HETATM   16  C16 UNL     1      55.038  27.184  42.599  1.00  0.00     0.196 C 
HETATM   17  O1  UNL     1      55.269  26.979  41.247  1.00  0.00    -0.381 OA
ENDBRANCH   9  10
ENDBRANCH   7   9
ENDBRANCH   4   7
BRANCH   1  18
HETATM   18  C8  UNL     1      56.866  22.933  34.088  1.00  0.00     0.058 C 
BRANCH  18  19
HETATM   19  C7  UNL     1      56.310  23.832  33.044  1.00  0.00     0.044 C 
BRANCH  19  20
HETATM   20  C6  UNL     1      55.819  23.123  31.858  1.00  0.00     0.009 C 
BRANCH  20  21
HETATM   21  C5  UNL     1      56.361  23.684  30.538  1.00  0.00    -0.014 C 
HETATM   22  C4  UNL     1      56.445  22.685  29.468  1.00  0.00     0.004 C 
HETATM   23  C3  UNL     1      57.772  22.397  28.852  1.00  0.00     0.000 C 
HETATM   24  C2  UNL     1      58.422  23.586  28.227  1.00  0.00     0.000 C 
HETATM   25  C1  UNL     1      59.301  24.339  29.173  1.00  0.00     0.000 C 
HETATM   26  C20 UNL     1      58.880  24.023  30.590  1.00  0.00     0.000 C 
HETATM   27  C19 UNL     1      57.514  24.557  30.814  1.00  0.00     0.004 C 
ENDBRANCH  20  21
ENDBRANCH  19  20
ENDBRANCH  18  19
ENDBRANCH   1  18
TORSDOF 7
ENDMDL
MODEL 4
REMARK VINA RESULT: -7.858671037      1.469      1.797
REMARK  7 active torsions:
REMARK  status: ('A' for Active; 'I' for Inactive)
REMARK    1  A    between atoms: C5_5  and  C6_6 
REMARK    2  A    between atoms: C6_6  and  C7_7 
REMARK    3  A    between atoms: C7_7  and  C8_8 
REMARK    4  A    between atoms: C8_8  and  N1_9 
REMARK    5  A    between atoms: C11_12  and  N2_13 
REMARK    6  A    between atoms: N2_13  and  C12_15 
REMARK    7  A    between atoms: C12_15  and  C13_16 
ROOT
HETATM    1  N1  UNL     1      57.347  23.175  36.095  1.00  0.00    -0.393 N 
HETATM    2  C9  UNL     1      58.634  23.497  36.565  1.00  0.00     0.123 C 
HETATM    3  C10 UNL     1      58.655  23.370  38.108  1.00  0.00     0.044 C 
HETATM    4  C11 UNL     1      57.271  23.755  38.578  1.00  0.00     0.079 C 
HETATM    5  C17 UNL     1      56.730  24.843  37.670  1.00  0.00     0.044 C 
HETATM    6  C18 UNL     1      56.350  24.194  36.354  1.00  0.00     0.123 C 
ENDROOT
BRANCH   4   7
HETATM    7  N2  UNL     1      57.194  24.110  39.960  1.00  0.00    -0.414 N 
ATOM      8  H2  UNL     1      57.513  23.487  40.702  1.00  0.00     0.153 HD
BRANCH   7   9
HETATM    9  C12 UNL     1      56.641  25.399  40.230  1.00  0.00     0.147 C 
BRANCH   9  10
HETATM   10  C13 UNL     1      55.782  25.259  41.493  1.00  0.00     0.164 C 
HETATM   11  C14 UNL     1      54.366  24.835  41.095  1.00  0.00     0.265 C 
HETATM   12  N3  UNL     1      53.414  25.693  41.817  1.00  0.00    -0.071 N 
HETATM   13  C15 UNL     1      53.823  25.657  43.212  1.00  0.00     0.258 C 
ATOM     14  H32 UNL     1      53.347  26.637  41.436  1.00  0.00     0.277 HD
ATOM     15  H31 UNL     1      52.439  25.433  41.671  1.00  0.00     0.277 HD
HETATM   16  C16 UNL     1      55.092  26.492  43.318  1.00  0.00     0.196 C 
HETATM   17  O1  UNL     1      55.734  26.513  42.089  1.00  0.00    -0.381 OA
ENDBRANCH   9  10
ENDBRANCH   7   9
ENDBRANCH   4   7
BRANCH   1  18
HETATM   18  C8  UNL     1      57.127  22.393  34.971  1.00  0.00     0.058 C 
BRANCH  18  19
HETATM   19  C7  UNL     1      56.576  22.969  33.717  1.00  0.00     0.044 C 
BRANCH  19  20
HETATM   20  C6  UNL     1      57.555  23.747  32.950  1.00  0.00     0.009 C 
BRANCH  20  21
HETATM   21  C5  UNL     1      57.042  24.195  31.576  1.00  0.00    -0.014 C 
HETATM   22  C4  UNL     1      56.120  23.239  30.955  1.00  0.00     0.004 C 
HETATM   23  C3  UNL     1      56.474  22.649  29.633  1.00  0.00     0.000 C 
HETATM   24  C2  UNL     1      56.663  23.656  28.549  1.00  0.00     0.000 C 
HETATM   25  C1  UNL     1      58.073  24.138  28.434  1.00  0.00     0.000 C 
HETATM   26  C20 UNL     1      58.782  23.895  29.746  1.00  0.00     0.000 C 
HETATM   27  C19 UNL     1      58.160  24.746  30.792  1.00  0.00     0.004 C 
ENDBRANCH  20  21
ENDBRANCH  19  20
ENDBRANCH  18  19
ENDBRANCH   1  18
TORSDOF 7
ENDMDL
MODEL 5
REMARK VINA RESULT: -7.846991203      4.392     10.499
REMARK  7 active torsions:
REMARK  status: ('A' for Active; 'I' for Inactive)
REMARK    1  A    between atoms: C5_5  and  C6_6 
REMARK    2  A    between atoms: C6_6  and  C7_7 
REMARK    3  A    between atoms: C7_7  and  C8_8 
REMARK    4  A    between atoms: C8_8  and  N1_9 
REMARK    5  A    between atoms: C11_12  and  N2_13 
REMARK    6  A    between atoms: N2_13  and  C12_15 
REMARK    7  A    between atoms: C12_15  and  C13_16 
ROOT
HETATM    1  N1  UNL     1      56.682  24.004  32.997  1.00  0.00    -0.393 N 
HETATM    2  C9  UNL     1      55.865  23.663  31.904  1.00  0.00     0.123 C 
HETATM    3  C10 UNL     1      56.763  23.314  30.691  1.00  0.00     0.044 C 
HETATM    4  C11 UNL     1      57.989  24.189  30.815  1.00  0.00     0.079 C 
HETATM    5  C17 UNL     1      57.582  25.524  31.409  1.00  0.00     0.044 C 
HETATM    6  C18 UNL     1      57.311  25.305  32.883  1.00  0.00     0.123 C 
ENDROOT
BRANCH   4   7
HETATM    7  N2  UNL     1      58.734  24.335  29.603  1.00  0.00    -0.414 N 
ATOM      8  H2  UNL     1      59.720  24.594  29.597  1.00  0.00     0.153 HD
BRANCH   7   9
HETATM    9  C12 UNL     1      58.000  24.094  28.402  1.00  0.00     0.147 C 
BRANCH   9  10
HETATM   10  C13 UNL     1      59.012  23.630  27.348  1.00  0.00     0.164 C 
HETATM   11  C14 UNL     1      60.382  24.239  27.662  1.00  0.00     0.265 C 
HETATM   12  N3  UNL     1      60.928  24.797  26.416  1.00  0.00    -0.071 N 
HETATM   13  C15 UNL     1      60.808  23.744  25.421  1.00  0.00     0.258 C 
ATOM     14  H32 UNL     1      60.490  25.675  26.135  1.00  0.00     0.277 HD
ATOM     15  H31 UNL     1      61.877  25.159  26.513  1.00  0.00     0.277 HD
HETATM   16  C16 UNL     1      59.331  23.647  25.062  1.00  0.00     0.196 C 
HETATM   17  O1  UNL     1      58.568  24.111  26.123  1.00  0.00    -0.381 OA
ENDBRANCH   9  10
ENDBRANCH   7   9
ENDBRANCH   4   7
BRANCH   1  18
HETATM   18  C8  UNL     1      56.435  23.569  34.291  1.00  0.00     0.058 C 
BRANCH  18  19
HETATM   19  C7  UNL     1      57.358  22.636  34.989  1.00  0.00     0.044 C 
BRANCH  19  20
HETATM   20  C6  UNL     1      58.239  23.297  35.958  1.00  0.00     0.009 C 
BRANCH  20  21
HETATM   21  C5  UNL     1      57.824  23.075  37.417  1.00  0.00    -0.014 C 
HETATM   22  C4  UNL     1      56.930  21.928  37.603  1.00  0.00     0.004 C 
HETATM   23  C3  UNL     1      55.579  22.154  38.193  1.00  0.00     0.000 C 
HETATM   24  C2  UNL     1      55.605  22.760  39.556  1.00  0.00     0.000 C 
HETATM   25  C1  UNL     1      55.573  24.255  39.535  1.00  0.00     0.000 C 
HETATM   26  C20 UNL     1      56.058  24.735  38.186  1.00  0.00     0.000 C 
HETATM   27  C19 UNL     1      57.488  24.370  38.033  1.00  0.00     0.004 C 
ENDBRANCH  20  21
ENDBRANCH  19  20
ENDBRANCH  18  19
ENDBRANCH   1  18
TORSDOF 7
ENDMDL
