MODEL 1
REMARK VINA RESULT: -6.733243477      0.000      0.000
REMARK  7 active torsions:
REMARK  status: ('A' for Active; 'I' for Inactive)
REMARK    1  A    between atoms: N1_4  and  N2_6 
REMARK    2  A    between atoms: N2_6  and  C4_7 
REMARK    3  A    between atoms: C6_12  and  N4_13 
REMARK    4  A    between atoms: N4_13  and  C7_15 
REMARK    5  A    between atoms: C7_15  and  C8_16 
REMARK    6  A    between atoms: C8_16  and  O2_17 
REMARK    7  A    between atoms: C10_23  and  C11_24 
ROOT
HETATM    1  C4  UNL     1      19.198  47.422 -53.689  1.00  0.00     0.224 C 
HETATM    2  N3  UNL     1      18.967  47.112 -54.919  1.00  0.00    -0.292 N 
ATOM      3  H3  UNL     1      19.754  46.605 -55.324  1.00  0.00     0.172 HD
HETATM    4  C5  UNL     1      17.966  47.274 -55.830  1.00  0.00     0.291 C 
HETATM    5  O1  UNL     1      18.453  47.539 -56.960  1.00  0.00    -0.264 OA
HETATM    6  C6  UNL     1      16.627  47.182 -55.611  1.00  0.00     0.172 C 
HETATM    7  N5  UNL     1      16.086  46.793 -54.458  1.00  0.00    -0.326 N 
ATOM      8  H5  UNL     1      15.069  46.712 -54.441  1.00  0.00     0.168 HD
HETATM    9  C9  UNL     1      16.735  46.490 -53.297  1.00  0.00     0.137 C 
HETATM   10  N6  UNL     1      15.870  45.782 -52.380  1.00  0.00    -0.081 NA
HETATM   11  C10 UNL     1      17.970  46.716 -52.908  1.00  0.00     0.112 C 
ENDROOT
BRANCH  11  12
HETATM   12  C11 UNL     1      18.365  46.263 -51.604  1.00  0.00     0.155 A 
HETATM   13  N7  UNL     1      19.196  45.149 -51.427  1.00  0.00    -0.268 N 
HETATM   14  N8  UNL     1      19.251  44.979 -50.090  1.00  0.00    -0.227 N 
ATOM     15  H7  UNL     1      19.656  44.592 -52.148  1.00  0.00     0.190 HD
HETATM   16  N9  UNL     1      18.537  45.879 -49.457  1.00  0.00    -0.227 N 
ATOM     17  H8  UNL     1      19.782  44.240 -49.629  1.00  0.00     0.210 HD
HETATM   18  N10 UNL     1      18.006  46.649 -50.376  1.00  0.00    -0.268 N 
ATOM     19  H9  UNL     1      18.419  45.963 -48.447  1.00  0.00     0.210 HD
ATOM     20  H10 UNL     1      17.396  47.442 -50.178  1.00  0.00     0.190 HD
ENDBRANCH  11  12
BRANCH   1  21
HETATM   21  N2  UNL     1      19.673  47.876 -52.780  1.00  0.00    -0.306 NA
BRANCH  21  22
HETATM   22  N1  UNL     1      20.461  48.499 -51.943  1.00  0.00    -0.243 N 
HETATM   23  C2  UNL     1      20.258  49.515 -51.143  1.00  0.00     0.009 C 
HETATM   24  C1  UNL     1      21.417  49.936 -50.352  1.00  0.00     0.065 C 
HETATM   25  C3  UNL     1      18.925  50.154 -51.137  1.00  0.00     0.065 C 
ATOM     26  H1  UNL     1      21.409  48.124 -51.907  1.00  0.00     0.201 HD
ENDBRANCH  21  22
ENDBRANCH   1  21
BRANCH   6  27
HETATM   27  N4  UNL     1      15.992  47.551 -56.611  1.00  0.00    -0.370 N 
ATOM     28  H4  UNL     1      15.806  46.837 -57.317  1.00  0.00     0.161 HD
BRANCH  27  29
HETATM   29  C7  UNL     1      15.480  48.891 -56.895  1.00  0.00     0.147 C 
BRANCH  29  30
HETATM   30  C8  UNL     1      15.486  49.060 -58.396  1.00  0.00     0.183 C 
BRANCH  30  31
HETATM   31  O2  UNL     1      16.802  49.348 -58.791  1.00  0.00    -0.399 OA
ATOM     32  H2  UNL     1      16.848  50.275 -58.993  1.00  0.00     0.209 HD
ENDBRANCH  30  31
ENDBRANCH  29  30
ENDBRANCH  27  29
ENDBRANCH   6  27
TORSDOF 7
ENDMDL
MODEL 2
REMARK VINA RESULT: -6.472857763      6.962      8.028
REMARK  7 active torsions:
REMARK  status: ('A' for Active; 'I' for Inactive)
REMARK    1  A    between atoms: N1_4  and  N2_6 
REMARK    2  A    between atoms: N2_6  and  C4_7 
REMARK    3  A    between atoms: C6_12  and  N4_13 
REMARK    4  A    between atoms: N4_13  and  C7_15 
REMARK    5  A    between atoms: C7_15  and  C8_16 
REMARK    6  A    between atoms: C8_16  and  O2_17 
REMARK    7  A    between atoms: C10_23  and  C11_24 
ROOT
HETATM    1  C4  UNL     1      14.650  48.272 -47.839  1.00  0.00     0.224 C 
HETATM    2  N3  UNL     1      14.459  48.579 -49.077  1.00  0.00    -0.292 N 
ATOM      3  H3  UNL     1      14.533  47.756 -49.676  1.00  0.00     0.172 HD
HETATM    4  C5  UNL     1      14.185  49.696 -49.809  1.00  0.00     0.291 C 
HETATM    5  O1  UNL     1      14.843  49.677 -50.882  1.00  0.00    -0.264 OA
HETATM    6  C6  UNL     1      13.345  50.714 -49.482  1.00  0.00     0.172 C 
HETATM    7  N5  UNL     1      12.552  50.710 -48.412  1.00  0.00    -0.326 N 
ATOM      8  H5  UNL     1      11.927  51.510 -48.310  1.00  0.00     0.168 HD
HETATM    9  C9  UNL     1      12.477  49.758 -47.438  1.00  0.00     0.137 C 
HETATM   10  N6  UNL     1      11.281  49.913 -46.641  1.00  0.00    -0.081 NA
HETATM   11  C10 UNL     1      13.278  48.760 -47.136  1.00  0.00     0.112 C 
ENDROOT
BRANCH  11  12
HETATM   12  C11 UNL     1      12.920  47.912 -46.034  1.00  0.00     0.155 A 
HETATM   13  N7  UNL     1      12.204  46.721 -46.218  1.00  0.00    -0.268 N 
HETATM   14  N8  UNL     1      11.972  46.271 -44.968  1.00  0.00    -0.227 N 
ATOM     15  H7  UNL     1      11.923  46.292 -47.100  1.00  0.00     0.190 HD
HETATM   16  N9  UNL     1      12.477  47.074 -44.061  1.00  0.00    -0.227 N 
ATOM     17  H8  UNL     1      11.465  45.412 -44.754  1.00  0.00     0.210 HD
HETATM   18  N10 UNL     1      13.046  48.060 -44.712  1.00  0.00    -0.268 N 
ATOM     19  H9  UNL     1      12.435  46.954 -43.049  1.00  0.00     0.210 HD
ATOM     20  H10 UNL     1      13.525  48.842 -44.265  1.00  0.00     0.190 HD
ENDBRANCH  11  12
BRANCH   1  21
HETATM   21  N2  UNL     1      15.144  47.907 -46.900  1.00  0.00    -0.306 NA
BRANCH  21  22
HETATM   22  N1  UNL     1      15.990  47.623 -45.946  1.00  0.00    -0.243 N 
HETATM   23  C2  UNL     1      16.372  46.484 -45.427  1.00  0.00     0.009 C 
HETATM   24  C1  UNL     1      17.355  46.582 -44.344  1.00  0.00     0.065 C 
HETATM   25  C3  UNL     1      15.768  45.237 -45.940  1.00  0.00     0.065 C 
ATOM     26  H1  UNL     1      16.435  48.441 -45.528  1.00  0.00     0.201 HD
ENDBRANCH  21  22
ENDBRANCH   1  21
BRANCH   6  27
HETATM   27  N4  UNL     1      13.456  51.651 -50.287  1.00  0.00    -0.370 N 
ATOM     28  H4  UNL     1      14.336  52.168 -50.260  1.00  0.00     0.161 HD
BRANCH  27  29
HETATM   29  C7  UNL     1      12.471  52.100 -51.271  1.00  0.00     0.147 C 
BRANCH  29  30
HETATM   30  C8  UNL     1      12.154  53.542 -50.955  1.00  0.00     0.183 C 
BRANCH  30  31
HETATM   31  O2  UNL     1      13.356  54.266 -50.997  1.00  0.00    -0.399 OA
ATOM     32  H2  UNL     1      13.637  54.414 -50.101  1.00  0.00     0.209 HD
ENDBRANCH  30  31
ENDBRANCH  29  30
ENDBRANCH  27  29
ENDBRANCH   6  27
TORSDOF 7
ENDMDL
MODEL 3
REMARK VINA RESULT: -6.360383985      5.119      6.651
REMARK  7 active torsions:
REMARK  status: ('A' for Active; 'I' for Inactive)
REMARK    1  A    between atoms: N1_4  and  N2_6 
REMARK    2  A    between atoms: N2_6  and  C4_7 
REMARK    3  A    between atoms: C6_12  and  N4_13 
REMARK    4  A    between atoms: N4_13  and  C7_15 
REMARK    5  A    between atoms: C7_15  and  C8_16 
REMARK    6  A    between atoms: C8_16  and  O2_17 
REMARK    7  A    between atoms: C10_23  and  C11_24 
ROOT
HETATM    1  C4  UNL     1      14.050  46.251 -48.296  1.00  0.00     0.224 C 
HETATM    2  N3  UNL     1      13.552  45.796 -49.395  1.00  0.00    -0.292 N 
ATOM      3  H3  UNL     1      12.629  45.390 -49.240  1.00  0.00     0.172 HD
HETATM    4  C5  UNL     1      13.915  45.705 -50.705  1.00  0.00     0.291 C 
HETATM    5  O1  UNL     1      13.562  44.591 -51.172  1.00  0.00    -0.264 OA
HETATM    6  C6  UNL     1      14.568  46.638 -51.450  1.00  0.00     0.172 C 
HETATM    7  N5  UNL     1      14.853  47.866 -51.020  1.00  0.00    -0.326 N 
ATOM      8  H5  UNL     1      15.295  48.489 -51.695  1.00  0.00     0.168 HD
HETATM    9  C9  UNL     1      14.621  48.386 -49.780  1.00  0.00     0.137 C 
HETATM   10  N6  UNL     1      14.738  49.828 -49.784  1.00  0.00    -0.081 NA
HETATM   11  C10 UNL     1      14.308  47.810 -48.641  1.00  0.00     0.112 C 
ENDROOT
BRANCH  11  12
HETATM   12  C11 UNL     1      14.122  48.643 -47.487  1.00  0.00     0.155 A 
HETATM   13  N7  UNL     1      12.846  49.002 -47.030  1.00  0.00    -0.268 N 
HETATM   14  N8  UNL     1      13.081  49.858 -46.014  1.00  0.00    -0.227 N 
ATOM     15  H7  UNL     1      11.944  48.686 -47.386  1.00  0.00     0.190 HD
HETATM   16  N9  UNL     1      14.365  50.043 -45.822  1.00  0.00    -0.227 N 
ATOM     17  H8  UNL     1      12.349  50.306 -45.462  1.00  0.00     0.210 HD
HETATM   18  N10 UNL     1      14.986  49.308 -46.713  1.00  0.00    -0.268 N 
ATOM     19  H9  UNL     1      14.797  50.641 -45.117  1.00  0.00     0.210 HD
ATOM     20  H10 UNL     1      16.000  49.251 -46.805  1.00  0.00     0.190 HD
ENDBRANCH  11  12
BRANCH   1  21
HETATM   21  N2  UNL     1      14.451  46.292 -47.249  1.00  0.00    -0.306 NA
BRANCH  21  22
HETATM   22  N1  UNL     1      15.175  46.170 -46.167  1.00  0.00    -0.243 N 
HETATM   23  C2  UNL     1      16.424  45.821 -45.986  1.00  0.00     0.009 C 
HETATM   24  C1  UNL     1      16.876  45.797 -44.592  1.00  0.00     0.065 C 
HETATM   25  C3  UNL     1      17.234  45.457 -47.168  1.00  0.00     0.065 C 
ATOM     26  H1  UNL     1      14.675  46.388 -45.305  1.00  0.00     0.201 HD
ENDBRANCH  21  22
ENDBRANCH   1  21
BRANCH   6  27
HETATM   27  N4  UNL     1      14.892  46.172 -52.552  1.00  0.00    -0.370 N 
ATOM     28  H4  UNL     1      14.149  45.726 -53.091  1.00  0.00     0.161 HD
BRANCH  27  29
HETATM   29  C7  UNL     1      16.218  46.190 -53.169  1.00  0.00     0.147 C 
BRANCH  29  30
HETATM   30  C8  UNL     1      16.088  45.529 -54.521  1.00  0.00     0.183 C 
BRANCH  30  31
HETATM   31  O2  UNL     1      14.773  45.051 -54.640  1.00  0.00    -0.399 OA
ATOM     32  H2  UNL     1      14.654  44.366 -53.992  1.00  0.00     0.209 HD
ENDBRANCH  30  31
ENDBRANCH  29  30
ENDBRANCH  27  29
ENDBRANCH   6  27
TORSDOF 7
ENDMDL
MODEL 4
REMARK VINA RESULT: -6.354632316      4.844      6.285
REMARK  7 active torsions:
REMARK  status: ('A' for Active; 'I' for Inactive)
REMARK    1  A    between atoms: N1_4  and  N2_6 
REMARK    2  A    between atoms: N2_6  and  C4_7 
REMARK    3  A    between atoms: C6_12  and  N4_13 
REMARK    4  A    between atoms: N4_13  and  C7_15 
REMARK    5  A    between atoms: C7_15  and  C8_16 
REMARK    6  A    between atoms: C8_16  and  O2_17 
REMARK    7  A    between atoms: C10_23  and  C11_24 
ROOT
HETATM    1  C4  UNL     1      14.239  46.178 -48.928  1.00  0.00     0.224 C 
HETATM    2  N3  UNL     1      13.709  45.581 -49.941  1.00  0.00    -0.292 N 
ATOM      3  H3  UNL     1      12.754  45.287 -49.736  1.00  0.00     0.172 HD
HETATM    4  C5  UNL     1      14.068  45.233 -51.209  1.00  0.00     0.291 C 
HETATM    5  O1  UNL     1      13.623  44.089 -51.482  1.00  0.00    -0.264 OA
HETATM    6  C6  UNL     1      14.801  45.965 -52.091  1.00  0.00     0.172 C 
HETATM    7  N5  UNL     1      15.188  47.221 -51.875  1.00  0.00    -0.326 N 
ATOM      8  H5  UNL     1      15.685  47.678 -52.640  1.00  0.00     0.168 HD
HETATM    9  C9  UNL     1      14.997  47.967 -50.749  1.00  0.00     0.137 C 
HETATM   10  N6  UNL     1      15.236  49.370 -51.000  1.00  0.00    -0.081 NA
HETATM   11  C10 UNL     1      14.631  47.625 -49.533  1.00  0.00     0.112 C 
ENDROOT
BRANCH  11  12
HETATM   12  C11 UNL     1      14.512  48.660 -48.544  1.00  0.00     0.155 A 
HETATM   13  N7  UNL     1      13.266  49.152 -48.134  1.00  0.00    -0.268 N 
HETATM   14  N8  UNL     1      13.565  50.164 -47.293  1.00  0.00    -0.227 N 
ATOM     15  H7  UNL     1      12.342  48.820 -48.409  1.00  0.00     0.190 HD
HETATM   16  N9  UNL     1      14.861  50.322 -47.164  1.00  0.00    -0.227 N 
ATOM     17  H8  UNL     1      12.868  50.737 -46.817  1.00  0.00     0.210 HD
HETATM   18  N10 UNL     1      15.425  49.411 -47.921  1.00  0.00    -0.268 N 
ATOM     19  H9  UNL     1      15.336  51.015 -46.587  1.00  0.00     0.210 HD
ATOM     20  H10 UNL     1      16.433  49.292 -48.021  1.00  0.00     0.190 HD
ENDBRANCH  11  12
BRANCH   1  21
HETATM   21  N2  UNL     1      14.639  46.366 -47.897  1.00  0.00    -0.306 NA
BRANCH  21  22
HETATM   22  N1  UNL     1      15.343  46.372 -46.796  1.00  0.00    -0.243 N 
HETATM   23  C2  UNL     1      15.026  46.651 -45.557  1.00  0.00     0.009 C 
HETATM   24  C1  UNL     1      16.120  46.549 -44.587  1.00  0.00     0.065 C 
HETATM   25  C3  UNL     1      13.640  47.069 -45.260  1.00  0.00     0.065 C 
ATOM     26  H1  UNL     1      16.321  46.111 -46.926  1.00  0.00     0.201 HD
ENDBRANCH  21  22
ENDBRANCH   1  21
BRANCH   6  27
HETATM   27  N4  UNL     1      15.089  45.289 -53.090  1.00  0.00    -0.370 N 
ATOM     28  H4  UNL     1      15.051  44.276 -52.977  1.00  0.00     0.161 HD
BRANCH  27  29
HETATM   29  C7  UNL     1      15.476  45.778 -54.414  1.00  0.00     0.147 C 
BRANCH  29  30
HETATM   30  C8  UNL     1      16.969  45.594 -54.536  1.00  0.00     0.183 C 
BRANCH  30  31
HETATM   31  O2  UNL     1      17.293  45.609 -55.902  1.00  0.00    -0.399 OA
ATOM     32  H2  UNL     1      18.025  45.017 -56.033  1.00  0.00     0.209 HD
ENDBRANCH  30  31
ENDBRANCH  29  30
ENDBRANCH  27  29
ENDBRANCH   6  27
TORSDOF 7
ENDMDL
MODEL 5
REMARK VINA RESULT: -6.289488229      3.914      5.073
REMARK  7 active torsions:
REMARK  status: ('A' for Active; 'I' for Inactive)
REMARK    1  A    between atoms: N1_4  and  N2_6 
REMARK    2  A    between atoms: N2_6  and  C4_7 
REMARK    3  A    between atoms: C6_12  and  N4_13 
REMARK    4  A    between atoms: N4_13  and  C7_15 
REMARK    5  A    between atoms: C7_15  and  C8_16 
REMARK    6  A    between atoms: C8_16  and  O2_17 
REMARK    7  A    between atoms: C10_23  and  C11_24 
ROOT
HETATM    1  C4  UNL     1      16.303  47.130 -49.537  1.00  0.00     0.224 C 
HETATM    2  N3  UNL     1      16.832  46.287 -50.356  1.00  0.00    -0.292 N 
ATOM      3  H3  UNL     1      17.593  45.772 -49.913  1.00  0.00     0.172 HD
HETATM    4  C5  UNL     1      16.659  45.890 -51.648  1.00  0.00     0.291 C 
HETATM    5  O1  UNL     1      17.777  45.703 -52.194  1.00  0.00    -0.264 OA
HETATM    6  C6  UNL     1      15.482  45.712 -52.308  1.00  0.00     0.172 C 
HETATM    7  N5  UNL     1      14.285  45.790 -51.729  1.00  0.00    -0.326 N 
ATOM      8  H5  UNL     1      13.482  45.580 -52.322  1.00  0.00     0.168 HD
HETATM    9  C9  UNL     1      14.009  46.120 -50.435  1.00  0.00     0.137 C 
HETATM   10  N6  UNL     1      12.653  45.766 -50.079  1.00  0.00    -0.081 NA
HETATM   11  C10 UNL     1      14.754  46.667 -49.500  1.00  0.00     0.112 C 
ENDROOT
BRANCH  11  12
HETATM   12  C11 UNL     1      14.168  46.890 -48.208  1.00  0.00     0.155 A 
HETATM   13  N7  UNL     1      14.387  46.015 -47.135  1.00  0.00    -0.268 N 
HETATM   14  N8  UNL     1      13.602  46.492 -46.147  1.00  0.00    -0.227 N 
ATOM     15  H7  UNL     1      15.002  45.202 -47.108  1.00  0.00     0.190 HD
HETATM   16  N9  UNL     1      12.940  47.560 -46.525  1.00  0.00    -0.227 N 
ATOM     17  H8  UNL     1      13.531  46.073 -45.220  1.00  0.00     0.210 HD
HETATM   18  N10 UNL     1      13.287  47.793 -47.768  1.00  0.00    -0.268 N 
ATOM     19  H9  UNL     1      12.285  48.102 -45.963  1.00  0.00     0.210 HD
ATOM     20  H10 UNL     1      12.929  48.566 -48.329  1.00  0.00     0.190 HD
ENDBRANCH  11  12
BRANCH   1  21
HETATM   21  N2  UNL     1      16.186  47.999 -48.836  1.00  0.00    -0.306 NA
BRANCH  21  22
HETATM   22  N1  UNL     1      16.370  49.068 -48.107  1.00  0.00    -0.243 N 
HETATM   23  C2  UNL     1      15.874  50.276 -48.187  1.00  0.00     0.009 C 
HETATM   24  C1  UNL     1      16.340  51.219 -47.166  1.00  0.00     0.065 C 
HETATM   25  C3  UNL     1      14.943  50.585 -49.293  1.00  0.00     0.065 C 
ATOM     26  H1  UNL     1      17.019  48.935 -47.331  1.00  0.00     0.201 HD
ENDBRANCH  21  22
ENDBRANCH   1  21
BRANCH   6  27
HETATM   27  N4  UNL     1      15.681  45.512 -53.516  1.00  0.00    -0.370 N 
ATOM     28  H4  UNL     1      16.015  44.582 -53.772  1.00  0.00     0.161 HD
BRANCH  27  29
HETATM   29  C7  UNL     1      15.493  46.458 -54.616  1.00  0.00     0.147 C 
BRANCH  29  30
HETATM   30  C8  UNL     1      16.668  46.292 -55.550  1.00  0.00     0.183 C 
BRANCH  30  31
HETATM   31  O2  UNL     1      17.425  45.199 -55.098  1.00  0.00    -0.399 OA
ATOM     32  H2  UNL     1      17.758  44.741 -55.861  1.00  0.00     0.209 HD
ENDBRANCH  30  31
ENDBRANCH  29  30
ENDBRANCH  27  29
ENDBRANCH   6  27
TORSDOF 7
ENDMDL
