MODEL 1
REMARK VINA RESULT: -7.552431074      0.000      0.000
REMARK  6 active torsions:
REMARK  status: ('A' for Active; 'I' for Inactive)
REMARK    1  A    between atoms: N1_1  and  C1_4 
REMARK    2  A    between atoms: C2_10  and  S1_11 
REMARK    3  A    between atoms: S1_11  and  N4_14 
REMARK    4  A    between atoms: N4_14  and  N5_16 
REMARK    5  A    between atoms: N5_16  and  C3_18 
REMARK    6  A    between atoms: C4_23  and  C5_24 
ROOT
HETATM    1  N4  UNL     1      14.260  45.282 -51.190  1.00  0.00    -0.220 N 
ATOM      2  H4  UNL     1      15.166  44.928 -50.883  1.00  0.00     0.200 HD
ENDROOT
BRANCH   1   3
HETATM    3  S1  UNL     1      13.201  45.936 -50.011  1.00  0.00     0.297 S 
HETATM    4  O2  UNL     1      12.126  44.891 -49.758  1.00  0.00    -0.197 OA
HETATM    5  O3  UNL     1      12.509  47.148 -50.518  1.00  0.00    -0.197 OA
BRANCH   3   6
HETATM    6  C2  UNL     1      14.029  46.283 -48.508  1.00  0.00     0.218 A 
HETATM    7  C1  UNL     1      13.586  46.082 -47.217  1.00  0.00     0.163 A 
HETATM    8  N2  UNL     1      14.549  46.492 -46.371  1.00  0.00    -0.223 N 
HETATM    9  O1  UNL     1      15.525  46.921 -47.095  1.00  0.00    -0.154 OA
ATOM     10  H2  UNL     1      14.513  46.468 -45.352  1.00  0.00     0.198 HD
HETATM   11  N3  UNL     1      15.271  46.821 -48.354  1.00  0.00    -0.225 N 
ATOM     12  H3  UNL     1      15.897  47.098 -49.110  1.00  0.00     0.198 HD
BRANCH   7  13
HETATM   13  N1  UNL     1      12.447  45.586 -46.867  1.00  0.00    -0.382 N 
ATOM     14  H12 UNL     1      11.669  46.095 -46.451  1.00  0.00     0.157 HD
ATOM     15  H11 UNL     1      12.175  44.607 -46.964  1.00  0.00     0.157 HD
ENDBRANCH   7  13
ENDBRANCH   3   6
ENDBRANCH   1   3
BRANCH   1  16
HETATM   16  N5  UNL     1      13.951  45.209 -52.529  1.00  0.00    -0.269 N 
ATOM     17  H5  UNL     1      13.089  44.770 -52.853  1.00  0.00     0.190 HD
BRANCH  16  18
HETATM   18  C3  UNL     1      14.812  45.729 -53.370  1.00  0.00     0.180 A 
HETATM   19  N6  UNL     1      14.906  45.535 -54.690  1.00  0.00    -0.277 N 
HETATM   20  N7  UNL     1      15.820  46.138 -55.332  1.00  0.00    -0.286 N 
ATOM     21  H6  UNL     1      14.257  44.914 -55.171  1.00  0.00     0.189 HD
HETATM   22  C4  UNL     1      16.661  46.943 -54.704  1.00  0.00     0.169 A 
ATOM     23  H7  UNL     1      15.906  46.002 -56.339  1.00  0.00     0.188 HD
HETATM   24  S2  UNL     1      16.103  46.823 -53.095  1.00  0.00    -0.025 SA
BRANCH  22  25
HETATM   25  C5  UNL     1      17.762  47.710 -55.282  1.00  0.00     0.235 C 
HETATM   26  O4  UNL     1      18.135  48.765 -54.713  1.00  0.00    -0.642 OA
HETATM   27  O5  UNL     1      18.412  47.321 -56.433  1.00  0.00    -0.642 OA
ENDBRANCH  22  25
ENDBRANCH  16  18
ENDBRANCH   1  16
TORSDOF 6
ENDMDL
MODEL 2
REMARK VINA RESULT: -7.413783017      2.260      2.735
REMARK  6 active torsions:
REMARK  status: ('A' for Active; 'I' for Inactive)
REMARK    1  A    between atoms: N1_1  and  C1_4 
REMARK    2  A    between atoms: C2_10  and  S1_11 
REMARK    3  A    between atoms: S1_11  and  N4_14 
REMARK    4  A    between atoms: N4_14  and  N5_16 
REMARK    5  A    between atoms: N5_16  and  C3_18 
REMARK    6  A    between atoms: C4_23  and  C5_24 
ROOT
HETATM    1  N4  UNL     1      14.808  46.509 -50.217  1.00  0.00    -0.220 N 
ATOM      2  H4  UNL     1      15.523  47.156 -49.885  1.00  0.00     0.200 HD
ENDROOT
BRANCH   1   3
HETATM    3  S1  UNL     1      13.175  46.815 -49.792  1.00  0.00     0.297 S 
HETATM    4  O2  UNL     1      12.868  45.951 -48.579  1.00  0.00    -0.197 OA
HETATM    5  O3  UNL     1      12.247  46.385 -50.869  1.00  0.00    -0.197 OA
BRANCH   3   6
HETATM    6  C2  UNL     1      12.908  48.495 -49.384  1.00  0.00     0.218 A 
HETATM    7  C1  UNL     1      13.260  49.166 -48.231  1.00  0.00     0.163 A 
HETATM    8  N2  UNL     1      12.861  50.446 -48.347  1.00  0.00    -0.223 N 
HETATM    9  O1  UNL     1      12.297  50.558 -49.500  1.00  0.00    -0.154 OA
ATOM     10  H2  UNL     1      12.981  51.185 -47.655  1.00  0.00     0.198 HD
HETATM   11  N3  UNL     1      12.298  49.445 -50.147  1.00  0.00    -0.225 N 
ATOM     12  H3  UNL     1      11.907  49.298 -51.078  1.00  0.00     0.198 HD
BRANCH   7  13
HETATM   13  N1  UNL     1      13.868  48.664 -47.209  1.00  0.00    -0.382 N 
ATOM     14  H12 UNL     1      14.058  49.137 -46.327  1.00  0.00     0.157 HD
ATOM     15  H11 UNL     1      14.242  47.716 -47.152  1.00  0.00     0.157 HD
ENDBRANCH   7  13
ENDBRANCH   3   6
ENDBRANCH   1   3
BRANCH   1  16
HETATM   16  N5  UNL     1      15.204  45.436 -50.982  1.00  0.00    -0.269 N 
ATOM     17  H5  UNL     1      15.396  44.526 -50.564  1.00  0.00     0.190 HD
BRANCH  16  18
HETATM   18  C3  UNL     1      15.323  45.634 -52.273  1.00  0.00     0.180 A 
HETATM   19  N6  UNL     1      14.383  45.543 -53.220  1.00  0.00    -0.277 N 
HETATM   20  N7  UNL     1      14.705  45.777 -54.425  1.00  0.00    -0.286 N 
ATOM     21  H6  UNL     1      13.425  45.289 -52.978  1.00  0.00     0.189 HD
HETATM   22  C4  UNL     1      15.948  46.106 -54.735  1.00  0.00     0.169 A 
ATOM     23  H7  UNL     1      14.000  45.712 -55.159  1.00  0.00     0.188 HD
HETATM   24  S2  UNL     1      16.697  46.075 -53.201  1.00  0.00    -0.025 SA
BRANCH  22  25
HETATM   25  C5  UNL     1      16.488  46.406 -56.059  1.00  0.00     0.235 C 
HETATM   26  O4  UNL     1      17.533  45.822 -56.438  1.00  0.00    -0.642 OA
HETATM   27  O5  UNL     1      15.895  47.308 -56.915  1.00  0.00    -0.642 OA
ENDBRANCH  22  25
ENDBRANCH  16  18
ENDBRANCH   1  16
TORSDOF 6
ENDMDL
MODEL 3
REMARK VINA RESULT: -7.383692499      1.153      1.263
REMARK  6 active torsions:
REMARK  status: ('A' for Active; 'I' for Inactive)
REMARK    1  A    between atoms: N1_1  and  C1_4 
REMARK    2  A    between atoms: C2_10  and  S1_11 
REMARK    3  A    between atoms: S1_11  and  N4_14 
REMARK    4  A    between atoms: N4_14  and  N5_16 
REMARK    5  A    between atoms: N5_16  and  C3_18 
REMARK    6  A    between atoms: C4_23  and  C5_24 
ROOT
HETATM    1  N4  UNL     1      14.221  45.099 -51.052  1.00  0.00    -0.220 N 
ATOM      2  H4  UNL     1      13.977  44.165 -51.380  1.00  0.00     0.200 HD
ENDROOT
BRANCH   1   3
HETATM    3  S1  UNL     1      13.171  45.868 -49.936  1.00  0.00     0.297 S 
HETATM    4  O2  UNL     1      12.032  44.897 -49.665  1.00  0.00    -0.197 OA
HETATM    5  O3  UNL     1      12.561  47.089 -50.521  1.00  0.00    -0.197 OA
BRANCH   3   6
HETATM    6  C2  UNL     1      13.977  46.244 -48.430  1.00  0.00     0.218 A 
HETATM    7  C1  UNL     1      13.511  46.081 -47.141  1.00  0.00     0.163 A 
HETATM    8  N2  UNL     1      14.465  46.500 -46.290  1.00  0.00    -0.223 N 
HETATM    9  O1  UNL     1      15.458  46.898 -47.008  1.00  0.00    -0.154 OA
ATOM     10  H2  UNL     1      14.412  46.503 -45.272  1.00  0.00     0.198 HD
HETATM   11  N3  UNL     1      15.224  46.769 -48.268  1.00  0.00    -0.225 N 
ATOM     12  H3  UNL     1      15.866  47.019 -49.020  1.00  0.00     0.198 HD
BRANCH   7  13
HETATM   13  N1  UNL     1      12.361  45.608 -46.798  1.00  0.00    -0.382 N 
ATOM     14  H12 UNL     1      11.991  45.547 -45.850  1.00  0.00     0.157 HD
ATOM     15  H11 UNL     1      11.663  45.229 -47.440  1.00  0.00     0.157 HD
ENDBRANCH   7  13
ENDBRANCH   3   6
ENDBRANCH   1   3
BRANCH   1  16
HETATM   16  N5  UNL     1      15.376  45.676 -51.527  1.00  0.00    -0.269 N 
ATOM     17  H5  UNL     1      16.197  45.790 -50.933  1.00  0.00     0.190 HD
BRANCH  16  18
HETATM   18  C3  UNL     1      15.375  46.074 -52.777  1.00  0.00     0.180 A 
HETATM   19  N6  UNL     1      14.704  45.562 -53.813  1.00  0.00    -0.277 N 
HETATM   20  N7  UNL     1      14.840  46.099 -54.955  1.00  0.00    -0.286 N 
ATOM     21  H6  UNL     1      14.094  44.754 -53.689  1.00  0.00     0.189 HD
HETATM   22  C4  UNL     1      15.632  47.147 -55.113  1.00  0.00     0.169 A 
ATOM     23  H7  UNL     1      14.335  45.721 -55.756  1.00  0.00     0.188 HD
HETATM   24  S2  UNL     1      16.214  47.370 -53.524  1.00  0.00    -0.025 SA
BRANCH  22  25
HETATM   25  C5  UNL     1      15.904  47.882 -56.345  1.00  0.00     0.235 C 
HETATM   26  O4  UNL     1      14.942  48.361 -56.994  1.00  0.00    -0.642 OA
HETATM   27  O5  UNL     1      17.180  48.074 -56.828  1.00  0.00    -0.642 OA
ENDBRANCH  22  25
ENDBRANCH  16  18
ENDBRANCH   1  16
TORSDOF 6
ENDMDL
MODEL 4
REMARK VINA RESULT: -7.206491960      1.965      2.253
REMARK  6 active torsions:
REMARK  status: ('A' for Active; 'I' for Inactive)
REMARK    1  A    between atoms: N1_1  and  C1_4 
REMARK    2  A    between atoms: C2_10  and  S1_11 
REMARK    3  A    between atoms: S1_11  and  N4_14 
REMARK    4  A    between atoms: N4_14  and  N5_16 
REMARK    5  A    between atoms: N5_16  and  C3_18 
REMARK    6  A    between atoms: C4_23  and  C5_24 
ROOT
HETATM    1  N4  UNL     1      14.198  45.446 -51.128  1.00  0.00    -0.220 N 
ATOM      2  H4  UNL     1      14.979  45.013 -50.635  1.00  0.00     0.200 HD
ENDROOT
BRANCH   1   3
HETATM    3  S1  UNL     1      13.183  46.519 -50.260  1.00  0.00     0.297 S 
HETATM    4  O2  UNL     1      12.896  45.863 -48.918  1.00  0.00    -0.197 OA
HETATM    5  O3  UNL     1      11.874  46.695 -50.939  1.00  0.00    -0.197 OA
BRANCH   3   6
HETATM    6  C2  UNL     1      13.948  48.070 -49.989  1.00  0.00     0.218 A 
HETATM    7  C1  UNL     1      13.367  49.321 -49.952  1.00  0.00     0.163 A 
HETATM    8  N2  UNL     1      14.331  50.229 -49.715  1.00  0.00    -0.223 N 
HETATM    9  O1  UNL     1      15.439  49.579 -49.612  1.00  0.00    -0.154 OA
ATOM     10  H2  UNL     1      14.208  51.238 -49.632  1.00  0.00     0.198 HD
HETATM   11  N3  UNL     1      15.270  48.312 -49.765  1.00  0.00    -0.225 N 
ATOM     12  H3  UNL     1      16.005  47.605 -49.725  1.00  0.00     0.198 HD
BRANCH   7  13
HETATM   13  N1  UNL     1      12.115  49.587 -50.114  1.00  0.00    -0.382 N 
ATOM     14  H12 UNL     1      11.332  48.981 -49.869  1.00  0.00     0.157 HD
ATOM     15  H11 UNL     1      11.741  50.448 -50.514  1.00  0.00     0.157 HD
ENDBRANCH   7  13
ENDBRANCH   3   6
ENDBRANCH   1   3
BRANCH   1  16
HETATM   16  N5  UNL     1      14.015  45.137 -52.457  1.00  0.00    -0.269 N 
ATOM     17  H5  UNL     1      13.270  44.509 -52.759  1.00  0.00     0.190 HD
BRANCH  16  18
HETATM   18  C3  UNL     1      14.839  45.684 -53.317  1.00  0.00     0.180 A 
HETATM   19  N6  UNL     1      14.872  45.540 -54.646  1.00  0.00    -0.277 N 
HETATM   20  N7  UNL     1      15.758  46.163 -55.307  1.00  0.00    -0.286 N 
ATOM     21  H6  UNL     1      14.197  44.940 -55.120  1.00  0.00     0.189 HD
HETATM   22  C4  UNL     1      16.632  46.941 -54.689  1.00  0.00     0.169 A 
ATOM     23  H7  UNL     1      15.797  46.065 -56.321  1.00  0.00     0.188 HD
HETATM   24  S2  UNL     1      16.148  46.763 -53.062  1.00  0.00    -0.025 SA
BRANCH  22  25
HETATM   25  C5  UNL     1      17.710  47.724 -55.288  1.00  0.00     0.235 C 
HETATM   26  O4  UNL     1      18.068  48.792 -54.734  1.00  0.00    -0.642 OA
HETATM   27  O5  UNL     1      18.354  47.337 -56.443  1.00  0.00    -0.642 OA
ENDBRANCH  22  25
ENDBRANCH  16  18
ENDBRANCH   1  16
TORSDOF 6
ENDMDL
MODEL 5
REMARK VINA RESULT: -7.141261911      1.587      2.007
REMARK  6 active torsions:
REMARK  status: ('A' for Active; 'I' for Inactive)
REMARK    1  A    between atoms: N1_1  and  C1_4 
REMARK    2  A    between atoms: C2_10  and  S1_11 
REMARK    3  A    between atoms: S1_11  and  N4_14 
REMARK    4  A    between atoms: N4_14  and  N5_16 
REMARK    5  A    between atoms: N5_16  and  C3_18 
REMARK    6  A    between atoms: C4_23  and  C5_24 
ROOT
HETATM    1  N4  UNL     1      15.052  46.241 -50.315  1.00  0.00    -0.220 N 
ATOM      2  H4  UNL     1      15.908  46.582 -49.878  1.00  0.00     0.200 HD
ENDROOT
BRANCH   1   3
HETATM    3  S1  UNL     1      13.568  46.983 -49.885  1.00  0.00     0.297 S 
HETATM    4  O2  UNL     1      12.488  46.328 -50.731  1.00  0.00    -0.197 OA
HETATM    5  O3  UNL     1      13.565  48.428 -50.232  1.00  0.00    -0.197 OA
BRANCH   3   6
HETATM    6  C2  UNL     1      13.188  46.756 -48.192  1.00  0.00     0.218 A 
HETATM    7  C1  UNL     1      13.264  47.673 -47.164  1.00  0.00     0.163 A 
HETATM    8  N2  UNL     1      12.876  47.067 -46.027  1.00  0.00    -0.223 N 
HETATM    9  O1  UNL     1      12.580  45.851 -46.333  1.00  0.00    -0.154 OA
ATOM     10  H2  UNL     1      12.826  47.489 -45.100  1.00  0.00     0.198 HD
HETATM   11  N3  UNL     1      12.746  45.617 -47.589  1.00  0.00    -0.225 N 
ATOM     12  H3  UNL     1      12.574  44.726 -48.055  1.00  0.00     0.198 HD
BRANCH   7  13
HETATM   13  N1  UNL     1      13.639  48.904 -47.263  1.00  0.00    -0.382 N 
ATOM     14  H12 UNL     1      13.867  49.530 -46.491  1.00  0.00     0.157 HD
ATOM     15  H11 UNL     1      13.758  49.416 -48.137  1.00  0.00     0.157 HD
ENDBRANCH   7  13
ENDBRANCH   3   6
ENDBRANCH   1   3
BRANCH   1  16
HETATM   16  N5  UNL     1      15.149  45.208 -51.220  1.00  0.00    -0.269 N 
ATOM     17  H5  UNL     1      15.099  44.234 -50.922  1.00  0.00     0.190 HD
BRANCH  16  18
HETATM   18  C3  UNL     1      15.309  45.531 -52.480  1.00  0.00     0.180 A 
HETATM   19  N6  UNL     1      14.393  45.559 -53.455  1.00  0.00    -0.277 N 
HETATM   20  N7  UNL     1      14.754  45.903 -54.622  1.00  0.00    -0.286 N 
ATOM     21  H6  UNL     1      13.424  45.307 -53.264  1.00  0.00     0.189 HD
HETATM   22  C4  UNL     1      16.013  46.228 -54.866  1.00  0.00     0.169 A 
ATOM     23  H7  UNL     1      14.068  45.930 -55.377  1.00  0.00     0.188 HD
HETATM   24  S2  UNL     1      16.717  46.025 -53.325  1.00  0.00    -0.025 SA
BRANCH  22  25
HETATM   25  C5  UNL     1      16.596  46.644 -56.139  1.00  0.00     0.235 C 
HETATM   26  O4  UNL     1      17.775  46.308 -56.408  1.00  0.00    -0.642 OA
HETATM   27  O5  UNL     1      15.901  47.395 -57.063  1.00  0.00    -0.642 OA
ENDBRANCH  22  25
ENDBRANCH  16  18
ENDBRANCH   1  16
TORSDOF 6
ENDMDL
