MODEL 1
REMARK VINA RESULT: -6.739462688      0.000      0.000
REMARK  8 active torsions:
REMARK  status: ('A' for Active; 'I' for Inactive)
REMARK    1  A    between atoms: O1_2  and  C2_3 
REMARK    2  A    between atoms: C4_9  and  N3_10 
REMARK    3  A    between atoms: C5_15  and  N5_16 
REMARK    4  A    between atoms: N6_20  and  O2_21 
REMARK    5  A    between atoms: C7_23  and  C8_24 
REMARK    6  A    between atoms: C8_24  and  O3_25 
REMARK    7  A    between atoms: O3_25  and  S1_26 
REMARK    8  A    between atoms: S1_26  and  N7_27 
ROOT
HETATM    1  C2  UNL     1      17.180  45.925 -52.375  1.00  0.00     0.171 A 
HETATM    2  N1  UNL     1      17.351  46.155 -51.063  1.00  0.00    -0.319 N 
ATOM      3  H1  UNL     1      18.298  46.287 -50.707  1.00  0.00     0.169 HD
HETATM    4  C3  UNL     1      16.320  46.217 -50.199  1.00  0.00     0.156 A 
HETATM    5  N2  UNL     1      16.548  46.454 -48.897  1.00  0.00    -0.174 N 
ATOM      6  H2  UNL     1      17.494  46.588 -48.542  1.00  0.00     0.186 HD
HETATM    7  C4  UNL     1      15.490  46.506 -48.085  1.00  0.00     0.679 A 
HETATM    8  N4  UNL     1      14.254  46.329 -48.534  1.00  0.00    -0.175 N 
ATOM      9  H4  UNL     1      13.484  46.375 -47.868  1.00  0.00     0.186 HD
HETATM   10  C5  UNL     1      13.970  46.091 -49.836  1.00  0.00     0.148 A 
HETATM   11  C6  UNL     1      15.058  46.038 -50.672  1.00  0.00     0.151 A 
HETATM   12  N6  UNL     1      14.857  45.810 -51.987  1.00  0.00    -0.215 N 
HETATM   13  C7  UNL     1      15.901  45.749 -52.837  1.00  0.00     0.117 A 
ENDROOT
BRANCH  13  14
HETATM   14  C8  UNL     1      15.664  45.418 -54.252  1.00  0.00     0.256 C 
BRANCH  14  15
HETATM   15  O3  UNL     1      15.107  46.457 -54.998  1.00  0.00    -0.254 OA
BRANCH  15  16
HETATM   16  S1  UNL     1      16.338  47.052 -55.986  1.00  0.00     0.355 S 
HETATM   17  O4  UNL     1      15.764  47.607 -57.287  1.00  0.00    -0.176 OA
HETATM   18  O5  UNL     1      17.185  45.874 -56.390  1.00  0.00    -0.176 OA
BRANCH  16  19
HETATM   19  N7  UNL     1      17.251  48.180 -55.125  1.00  0.00    -0.306 N 
ATOM     20  H72 UNL     1      17.106  49.189 -55.160  1.00  0.00     0.171 HD
ATOM     21  H71 UNL     1      17.957  47.694 -54.573  1.00  0.00     0.171 HD
ENDBRANCH  16  19
ENDBRANCH  15  16
ENDBRANCH  14  15
ENDBRANCH  13  14
BRANCH   1  22
HETATM   22  O1  UNL     1      18.229  45.865 -53.278  1.00  0.00    -0.339 OA
HETATM   23  C1  UNL     1      19.531  45.565 -52.874  1.00  0.00     0.211 C 
ENDBRANCH   1  22
BRANCH  12  24
HETATM   24  O2  UNL     1      13.582  45.672 -52.458  1.00  0.00    -0.282 OA
ATOM     25  H2  UNL     1      13.287  44.824 -52.767  1.00  0.00     0.245 HD
ENDBRANCH  12  24
BRANCH  10  26
HETATM   26  N5  UNL     1      12.807  45.904 -50.294  1.00  0.00    -0.383 N 
ATOM     27  H52 UNL     1      12.227  46.699 -50.561  1.00  0.00     0.157 HD
ATOM     28  H51 UNL     1      12.382  44.988 -50.442  1.00  0.00     0.157 HD
ENDBRANCH  10  26
BRANCH   7  29
HETATM   29  N3  UNL     1      15.679  46.728 -46.828  1.00  0.00    -0.234 N 
ATOM     30  H32 UNL     1      16.468  46.286 -46.357  1.00  0.00     0.174 HD
ATOM     31  H31 UNL     1      15.035  47.346 -46.333  1.00  0.00     0.174 HD
ENDBRANCH   7  29
TORSDOF 8
ENDMDL
MODEL 2
REMARK VINA RESULT: -6.320803785      2.698      5.017
REMARK  8 active torsions:
REMARK  status: ('A' for Active; 'I' for Inactive)
REMARK    1  A    between atoms: O1_2  and  C2_3 
REMARK    2  A    between atoms: C4_9  and  N3_10 
REMARK    3  A    between atoms: C5_15  and  N5_16 
REMARK    4  A    between atoms: N6_20  and  O2_21 
REMARK    5  A    between atoms: C7_23  and  C8_24 
REMARK    6  A    between atoms: C8_24  and  O3_25 
REMARK    7  A    between atoms: O3_25  and  S1_26 
REMARK    8  A    between atoms: S1_26  and  N7_27 
ROOT
HETATM    1  C2  UNL     1      16.713  47.095 -52.457  1.00  0.00     0.171 A 
HETATM    2  N1  UNL     1      17.564  46.280 -51.810  1.00  0.00    -0.319 N 
ATOM      3  H1  UNL     1      17.264  45.855 -50.933  1.00  0.00     0.169 HD
HETATM    4  C3  UNL     1      18.796  46.003 -52.278  1.00  0.00     0.156 A 
HETATM    5  N2  UNL     1      19.604  45.178 -51.593  1.00  0.00    -0.174 N 
ATOM      6  H2  UNL     1      19.304  44.752 -50.716  1.00  0.00     0.186 HD
HETATM    7  C4  UNL     1      20.814  44.937 -52.101  1.00  0.00     0.679 A 
HETATM    8  N4  UNL     1      21.217  45.489 -53.238  1.00  0.00    -0.175 N 
ATOM      9  H4  UNL     1      22.154  45.273 -53.577  1.00  0.00     0.186 HD
HETATM   10  C5  UNL     1      20.441  46.324 -53.969  1.00  0.00     0.148 A 
HETATM   11  C6  UNL     1      19.195  46.571 -53.446  1.00  0.00     0.151 A 
HETATM   12  N6  UNL     1      18.360  47.390 -54.118  1.00  0.00    -0.215 N 
HETATM   13  C7  UNL     1      17.131  47.658 -53.635  1.00  0.00     0.117 A 
ENDROOT
BRANCH  13  14
HETATM   14  C8  UNL     1      16.268  48.618 -54.344  1.00  0.00     0.256 C 
BRANCH  14  15
HETATM   15  O3  UNL     1      16.746  49.003 -55.596  1.00  0.00    -0.254 OA
BRANCH  15  16
HETATM   16  S1  UNL     1      15.729  48.292 -56.739  1.00  0.00     0.355 S 
HETATM   17  O4  UNL     1      14.312  48.156 -56.190  1.00  0.00    -0.176 OA
HETATM   18  O5  UNL     1      16.219  46.883 -56.946  1.00  0.00    -0.176 OA
BRANCH  16  19
HETATM   19  N7  UNL     1      15.805  49.170 -58.179  1.00  0.00    -0.306 N 
ATOM     20  H72 UNL     1      15.079  49.807 -58.506  1.00  0.00     0.171 HD
ATOM     21  H71 UNL     1      16.682  48.962 -58.657  1.00  0.00     0.171 HD
ENDBRANCH  16  19
ENDBRANCH  15  16
ENDBRANCH  14  15
ENDBRANCH  13  14
BRANCH   1  22
HETATM   22  O1  UNL     1      15.440  47.384 -51.994  1.00  0.00    -0.339 OA
HETATM   23  C1  UNL     1      14.669  46.435 -51.321  1.00  0.00     0.211 C 
ENDBRANCH   1  22
BRANCH  12  24
HETATM   24  O2  UNL     1      18.757  47.923 -55.312  1.00  0.00    -0.282 OA
ATOM     25  H2  UNL     1      18.495  48.807 -55.540  1.00  0.00     0.245 HD
ENDBRANCH  12  24
BRANCH  10  26
HETATM   26  N5  UNL     1      20.799  46.877 -55.047  1.00  0.00    -0.383 N 
ATOM     27  H52 UNL     1      20.133  46.992 -55.810  1.00  0.00     0.157 HD
ATOM     28  H51 UNL     1      21.732  47.248 -55.226  1.00  0.00     0.157 HD
ENDBRANCH  10  26
BRANCH   7  29
HETATM   29  N3  UNL     1      21.614  44.152 -51.462  1.00  0.00    -0.234 N 
ATOM     30  H32 UNL     1      21.375  43.860 -50.514  1.00  0.00     0.174 HD
ATOM     31  H31 UNL     1      22.468  43.835 -51.922  1.00  0.00     0.174 HD
ENDBRANCH   7  29
TORSDOF 8
ENDMDL
MODEL 3
REMARK VINA RESULT: -6.307613004      1.515      2.098
REMARK  8 active torsions:
REMARK  status: ('A' for Active; 'I' for Inactive)
REMARK    1  A    between atoms: O1_2  and  C2_3 
REMARK    2  A    between atoms: C4_9  and  N3_10 
REMARK    3  A    between atoms: C5_15  and  N5_16 
REMARK    4  A    between atoms: N6_20  and  O2_21 
REMARK    5  A    between atoms: C7_23  and  C8_24 
REMARK    6  A    between atoms: C8_24  and  O3_25 
REMARK    7  A    between atoms: O3_25  and  S1_26 
REMARK    8  A    between atoms: S1_26  and  N7_27 
ROOT
HETATM    1  C2  UNL     1      18.269  46.268 -51.429  1.00  0.00     0.171 A 
HETATM    2  N1  UNL     1      17.515  46.388 -50.325  1.00  0.00    -0.319 N 
ATOM      3  H1  UNL     1      17.972  46.605 -49.439  1.00  0.00     0.169 HD
HETATM    4  C3  UNL     1      16.177  46.231 -50.342  1.00  0.00     0.156 A 
HETATM    5  N2  UNL     1      15.471  46.366 -49.208  1.00  0.00    -0.174 N 
ATOM      6  H2  UNL     1      15.928  46.585 -48.323  1.00  0.00     0.186 HD
HETATM    7  C4  UNL     1      14.148  46.202 -49.282  1.00  0.00     0.679 A 
HETATM    8  N4  UNL     1      13.543  45.913 -50.426  1.00  0.00    -0.175 N 
ATOM      9  H4  UNL     1      12.530  45.793 -50.424  1.00  0.00     0.186 HD
HETATM   10  C5  UNL     1      14.207  45.770 -51.597  1.00  0.00     0.148 A 
HETATM   11  C6  UNL     1      15.568  45.940 -51.522  1.00  0.00     0.151 A 
HETATM   12  N6  UNL     1      16.301  45.819 -52.647  1.00  0.00    -0.215 N 
HETATM   13  C7  UNL     1      17.639  45.976 -52.612  1.00  0.00     0.117 A 
ENDROOT
BRANCH  13  14
HETATM   14  C8  UNL     1      18.427  45.759 -53.837  1.00  0.00     0.256 C 
BRANCH  14  15
HETATM   15  O3  UNL     1      18.827  46.932 -54.477  1.00  0.00    -0.254 OA
BRANCH  15  16
HETATM   16  S1  UNL     1      17.815  47.121 -55.812  1.00  0.00     0.355 S 
HETATM   17  O4  UNL     1      17.291  45.769 -56.288  1.00  0.00    -0.176 OA
HETATM   18  O5  UNL     1      18.668  47.641 -56.939  1.00  0.00    -0.176 OA
BRANCH  16  19
HETATM   19  N7  UNL     1      16.587  48.216 -55.434  1.00  0.00    -0.306 N 
ATOM     20  H72 UNL     1      16.719  49.064 -54.882  1.00  0.00     0.171 HD
ATOM     21  H71 UNL     1      15.709  47.895 -55.843  1.00  0.00     0.171 HD
ENDBRANCH  16  19
ENDBRANCH  15  16
ENDBRANCH  14  15
ENDBRANCH  13  14
BRANCH   1  22
HETATM   22  O1  UNL     1      19.645  46.434 -51.430  1.00  0.00    -0.339 OA
HETATM   23  C1  UNL     1      20.236  47.682 -51.230  1.00  0.00     0.211 C 
ENDBRANCH   1  22
BRANCH  12  24
HETATM   24  O2  UNL     1      15.674  45.566 -53.834  1.00  0.00    -0.282 OA
ATOM     25  H2  UNL     1      15.217  46.269 -54.281  1.00  0.00     0.245 HD
ENDBRANCH  12  24
BRANCH  10  26
HETATM   26  N5  UNL     1      13.663  45.481 -52.701  1.00  0.00    -0.383 N 
ATOM     27  H52 UNL     1      14.136  45.699 -53.578  1.00  0.00     0.157 HD
ATOM     28  H51 UNL     1      12.761  45.016 -52.798  1.00  0.00     0.157 HD
ENDBRANCH  10  26
BRANCH   7  29
HETATM   29  N3  UNL     1      13.444  46.321 -48.207  1.00  0.00    -0.234 N 
ATOM     30  H32 UNL     1      13.825  46.839 -47.416  1.00  0.00     0.174 HD
ATOM     31  H31 UNL     1      12.517  45.896 -48.175  1.00  0.00     0.174 HD
ENDBRANCH   7  29
TORSDOF 8
ENDMDL
MODEL 4
REMARK VINA RESULT: -6.273945973      1.438      1.793
REMARK  8 active torsions:
REMARK  status: ('A' for Active; 'I' for Inactive)
REMARK    1  A    between atoms: O1_2  and  C2_3 
REMARK    2  A    between atoms: C4_9  and  N3_10 
REMARK    3  A    between atoms: C5_15  and  N5_16 
REMARK    4  A    between atoms: N6_20  and  O2_21 
REMARK    5  A    between atoms: C7_23  and  C8_24 
REMARK    6  A    between atoms: C8_24  and  O3_25 
REMARK    7  A    between atoms: O3_25  and  S1_26 
REMARK    8  A    between atoms: S1_26  and  N7_27 
ROOT
HETATM    1  C2  UNL     1      18.230  46.081 -53.628  1.00  0.00     0.171 A 
HETATM    2  N1  UNL     1      18.159  46.187 -52.291  1.00  0.00    -0.319 N 
ATOM      3  H1  UNL     1      19.019  46.341 -51.765  1.00  0.00     0.169 HD
HETATM    4  C3  UNL     1      16.995  46.097 -51.619  1.00  0.00     0.156 A 
HETATM    5  N2  UNL     1      16.981  46.214 -50.282  1.00  0.00    -0.174 N 
ATOM      6  H2  UNL     1      17.841  46.371 -49.756  1.00  0.00     0.186 HD
HETATM    7  C4  UNL     1      15.802  46.118 -49.666  1.00  0.00     0.679 A 
HETATM    8  N4  UNL     1      14.677  45.911 -50.338  1.00  0.00    -0.175 N 
ATOM      9  H4  UNL     1      13.804  45.841 -49.816  1.00  0.00     0.186 HD
HETATM   10  C5  UNL     1      14.635  45.789 -51.687  1.00  0.00     0.148 A 
HETATM   11  C6  UNL     1      15.850  45.889 -52.320  1.00  0.00     0.151 A 
HETATM   12  N6  UNL     1      15.891  45.783 -53.664  1.00  0.00    -0.215 N 
HETATM   13  C7  UNL     1      17.065  45.873 -54.321  1.00  0.00     0.117 A 
ENDROOT
BRANCH  13  14
HETATM   14  C8  UNL     1      17.096  45.673 -55.779  1.00  0.00     0.256 C 
BRANCH  14  15
HETATM   15  O3  UNL     1      16.147  46.416 -56.481  1.00  0.00    -0.254 OA
BRANCH  15  16
HETATM   16  S1  UNL     1      16.758  47.983 -56.605  1.00  0.00     0.355 S 
HETATM   17  O4  UNL     1      16.238  48.667 -57.866  1.00  0.00    -0.176 OA
HETATM   18  O5  UNL     1      18.246  47.859 -56.798  1.00  0.00    -0.176 OA
BRANCH  16  19
HETATM   19  N7  UNL     1      16.405  48.835 -55.191  1.00  0.00    -0.306 N 
ATOM     20  H72 UNL     1      16.902  48.720 -54.308  1.00  0.00     0.171 HD
ATOM     21  H71 UNL     1      15.628  49.472 -55.364  1.00  0.00     0.171 HD
ENDBRANCH  16  19
ENDBRANCH  15  16
ENDBRANCH  14  15
ENDBRANCH  13  14
BRANCH   1  22
HETATM   22  O1  UNL     1      19.418  46.178 -54.335  1.00  0.00    -0.339 OA
HETATM   23  C1  UNL     1      20.397  47.116 -54.002  1.00  0.00     0.211 C 
ENDBRANCH   1  22
BRANCH  12  24
HETATM   24  O2  UNL     1      14.729  45.614 -54.362  1.00  0.00    -0.282 OA
ATOM     25  H2  UNL     1      14.198  46.373 -54.576  1.00  0.00     0.245 HD
ENDBRANCH  12  24
BRANCH  10  26
HETATM   26  N5  UNL     1      13.584  45.577 -52.356  1.00  0.00    -0.383 N 
ATOM     27  H52 UNL     1      13.115  46.348 -52.830  1.00  0.00     0.157 HD
ATOM     28  H51 UNL     1      13.153  44.662 -52.483  1.00  0.00     0.157 HD
ENDBRANCH  10  26
BRANCH   7  29
HETATM   29  N3  UNL     1      15.758  46.223 -48.380  1.00  0.00    -0.234 N 
ATOM     30  H32 UNL     1      16.582  46.552 -47.879  1.00  0.00     0.174 HD
ATOM     31  H31 UNL     1      14.896  45.977 -47.894  1.00  0.00     0.174 HD
ENDBRANCH   7  29
TORSDOF 8
ENDMDL
MODEL 5
REMARK VINA RESULT: -6.225841541      2.918      5.340
REMARK  8 active torsions:
REMARK  status: ('A' for Active; 'I' for Inactive)
REMARK    1  A    between atoms: O1_2  and  C2_3 
REMARK    2  A    between atoms: C4_9  and  N3_10 
REMARK    3  A    between atoms: C5_15  and  N5_16 
REMARK    4  A    between atoms: N6_20  and  O2_21 
REMARK    5  A    between atoms: C7_23  and  C8_24 
REMARK    6  A    between atoms: C8_24  and  O3_25 
REMARK    7  A    between atoms: O3_25  and  S1_26 
REMARK    8  A    between atoms: S1_26  and  N7_27 
ROOT
HETATM    1  C2  UNL     1      15.784  46.286 -49.766  1.00  0.00     0.171 A 
HETATM    2  N1  UNL     1      16.968  46.276 -50.399  1.00  0.00    -0.319 N 
ATOM      3  H1  UNL     1      17.817  46.425 -49.853  1.00  0.00     0.169 HD
HETATM    4  C3  UNL     1      17.077  46.075 -51.726  1.00  0.00     0.156 A 
HETATM    5  N2  UNL     1      18.288  46.070 -52.307  1.00  0.00    -0.174 N 
ATOM      6  H2  UNL     1      19.137  46.217 -51.761  1.00  0.00     0.186 HD
HETATM    7  C4  UNL     1      18.339  45.866 -53.625  1.00  0.00     0.679 A 
HETATM    8  N4  UNL     1      17.242  45.677 -54.346  1.00  0.00    -0.175 N 
ATOM      9  H4  UNL     1      17.339  45.531 -55.350  1.00  0.00     0.186 HD
HETATM   10  C5  UNL     1      15.998  45.670 -53.809  1.00  0.00     0.148 A 
HETATM   11  C6  UNL     1      15.946  45.878 -52.453  1.00  0.00     0.151 A 
HETATM   12  N6  UNL     1      14.743  45.880 -51.842  1.00  0.00    -0.215 N 
HETATM   13  C7  UNL     1      14.652  46.084 -50.513  1.00  0.00     0.117 A 
ENDROOT
BRANCH  13  14
HETATM   14  C8  UNL     1      13.324  46.162 -49.882  1.00  0.00     0.256 C 
BRANCH  14  15
HETATM   15  O3  UNL     1      12.475  47.113 -50.448  1.00  0.00    -0.254 OA
BRANCH  15  16
HETATM   16  S1  UNL     1      12.897  48.599 -49.773  1.00  0.00     0.355 S 
HETATM   17  O4  UNL     1      11.780  49.620 -49.973  1.00  0.00    -0.176 OA
HETATM   18  O5  UNL     1      14.067  49.123 -50.563  1.00  0.00    -0.176 OA
BRANCH  16  19
HETATM   19  N7  UNL     1      13.317  48.379 -48.153  1.00  0.00    -0.306 N 
ATOM     20  H72 UNL     1      13.234  47.496 -47.649  1.00  0.00     0.171 HD
ATOM     21  H71 UNL     1      13.662  49.259 -47.770  1.00  0.00     0.171 HD
ENDBRANCH  16  19
ENDBRANCH  15  16
ENDBRANCH  14  15
ENDBRANCH  13  14
BRANCH   1  22
HETATM   22  O1  UNL     1      15.655  46.484 -48.400  1.00  0.00    -0.339 OA
HETATM   23  C1  UNL     1      16.627  46.047 -47.499  1.00  0.00     0.211 C 
ENDBRANCH   1  22
BRANCH  12  24
HETATM   24  O2  UNL     1      13.616  45.640 -52.576  1.00  0.00    -0.282 OA
ATOM     25  H2  UNL     1      13.613  45.836 -53.506  1.00  0.00     0.245 HD
ENDBRANCH  12  24
BRANCH  10  26
HETATM   26  N5  UNL     1      14.933  45.507 -54.469  1.00  0.00    -0.383 N 
ATOM     27  H52 UNL     1      14.935  45.620 -55.483  1.00  0.00     0.157 HD
ATOM     28  H51 UNL     1      14.034  45.246 -54.063  1.00  0.00     0.157 HD
ENDBRANCH  10  26
BRANCH   7  29
HETATM   29  N3  UNL     1      19.489  45.861 -54.211  1.00  0.00    -0.234 N 
ATOM     30  H32 UNL     1      20.337  45.875 -53.646  1.00  0.00     0.174 HD
ATOM     31  H31 UNL     1      19.522  45.837 -55.231  1.00  0.00     0.174 HD
ENDBRANCH   7  29
TORSDOF 8
ENDMDL
