MODEL 1
REMARK VINA RESULT: -7.748106189      0.000      0.000
REMARK  5 active torsions:
REMARK  status: ('A' for Active; 'I' for Inactive)
REMARK    1  A    between atoms: O1_2  and  C2_3 
REMARK    2  A    between atoms: C2_3  and  C3_4 
REMARK       I    between atoms: C3_4  and  N1_6 
REMARK       I    between atoms: N1_6  and  C4_8 
REMARK       I    between atoms: C4_8  and  N2_10 
REMARK    3  A    between atoms: N2_10  and  N3_12 
REMARK       I    between atoms: C5_14  and  N5_16 
REMARK    4  A    between atoms: N5_16  and  N6_18 
REMARK    5  A    between atoms: C6_20  and  C8_22 
ROOT
HETATM    1  N3  UNL     1      14.043  46.426 -51.720  1.00  0.00    -0.268 N 
ATOM      2  H3  UNL     1      13.413  46.934 -52.342  1.00  0.00     0.190 HD
HETATM    3  C5  UNL     1      14.841  45.531 -52.157  1.00  0.00     0.222 C 
HETATM    4  N4  UNL     1      15.705  44.834 -51.292  1.00  0.00    -0.061 NA
HETATM    5  N5  UNL     1      14.860  45.227 -53.544  1.00  0.00    -0.272 N 
ATOM      6  H5  UNL     1      14.907  44.257 -53.859  1.00  0.00     0.189 HD
ENDROOT
BRANCH   1   7
HETATM    7  N2  UNL     1      14.078  46.682 -50.310  1.00  0.00    -0.249 N 
HETATM    8  C4  UNL     1      13.171  46.027 -49.469  1.00  0.00     0.341 C 
HETATM    9  N1  UNL     1      13.119  46.203 -48.088  1.00  0.00    -0.276 N 
HETATM   10  O3  UNL     1      12.351  45.224 -50.044  1.00  0.00    -0.245 OA
HETATM   11  C3  UNL     1      13.919  47.026 -47.278  1.00  0.00     0.249 C 
ATOM     12  H1  UNL     1      12.405  45.661 -47.600  1.00  0.00     0.173 HD
HETATM   13  O2  UNL     1      14.814  47.727 -47.759  1.00  0.00    -0.271 OA
ATOM     14  H2  UNL     1      14.758  47.335 -49.922  1.00  0.00     0.192 HD
BRANCH  11  15
HETATM   15  C2  UNL     1      13.692  47.059 -45.834  1.00  0.00     0.270 C 
BRANCH  15  16
HETATM   16  O1  UNL     1      12.576  47.646 -45.368  1.00  0.00    -0.387 OA
HETATM   17  C1  UNL     1      11.504  46.890 -45.021  1.00  0.00     0.202 C 
ENDBRANCH  15  16
ENDBRANCH  11  15
ENDBRANCH   1   7
BRANCH   5  18
HETATM   18  N6  UNL     1      14.814  46.269 -54.472  1.00  0.00    -0.298 N 
HETATM   19  C6  UNL     1      15.854  46.594 -55.132  1.00  0.00     0.075 C 
HETATM   20  C7  UNL     1      17.115  45.868 -54.918  1.00  0.00     0.074 C 
ATOM     21  H6  UNL     1      13.941  46.774 -54.622  1.00  0.00     0.186 HD
BRANCH  19  22
HETATM   22  C8  UNL     1      15.746  47.697 -56.093  1.00  0.00     0.195 A 
HETATM   23  N7  UNL     1      15.620  48.998 -55.771  1.00  0.00    -0.233 N 
HETATM   24  O4  UNL     1      15.555  49.644 -56.903  1.00  0.00    -0.192 OA
ATOM     25  H7  UNL     1      15.583  49.398 -54.834  1.00  0.00     0.197 HD
HETATM   26  C9  UNL     1      15.633  48.829 -57.903  1.00  0.00     0.287 A 
HETATM   27  N8  UNL     1      15.596  49.182 -59.145  1.00  0.00    -0.357 N 
HETATM   28  O5  UNL     1      15.749  47.631 -57.393  1.00  0.00    -0.252 OA
ATOM     29  H82 UNL     1      15.505  50.117 -59.543  1.00  0.00     0.160 HD
ATOM     30  H81 UNL     1      15.657  48.539 -59.934  1.00  0.00     0.160 HD
ENDBRANCH  19  22
ENDBRANCH   5  18
TORSDOF 5
ENDMDL
MODEL 2
REMARK VINA RESULT: -7.580018526      2.423      9.224
REMARK  5 active torsions:
REMARK  status: ('A' for Active; 'I' for Inactive)
REMARK    1  A    between atoms: O1_2  and  C2_3 
REMARK    2  A    between atoms: C2_3  and  C3_4 
REMARK       I    between atoms: C3_4  and  N1_6 
REMARK       I    between atoms: N1_6  and  C4_8 
REMARK       I    between atoms: C4_8  and  N2_10 
REMARK    3  A    between atoms: N2_10  and  N3_12 
REMARK       I    between atoms: C5_14  and  N5_16 
REMARK    4  A    between atoms: N5_16  and  N6_18 
REMARK    5  A    between atoms: C6_20  and  C8_22 
ROOT
HETATM    1  N3  UNL     1      14.680  45.336 -50.486  1.00  0.00    -0.268 N 
ATOM      2  H3  UNL     1      15.305  44.943 -49.782  1.00  0.00     0.190 HD
HETATM    3  C5  UNL     1      13.507  45.745 -50.190  1.00  0.00     0.222 C 
HETATM    4  N4  UNL     1      12.650  46.283 -51.168  1.00  0.00    -0.061 NA
HETATM    5  N5  UNL     1      13.052  45.656 -48.848  1.00  0.00    -0.272 N 
ATOM      6  H5  UNL     1      12.104  45.339 -48.644  1.00  0.00     0.189 HD
ENDROOT
BRANCH   1   7
HETATM    7  N2  UNL     1      15.072  45.456 -51.860  1.00  0.00    -0.249 N 
HETATM    8  C4  UNL     1      16.095  46.345 -52.208  1.00  0.00     0.341 C 
HETATM    9  N1  UNL     1      16.552  46.538 -53.510  1.00  0.00    -0.276 N 
HETATM   10  O3  UNL     1      16.619  47.005 -51.240  1.00  0.00    -0.245 OA
HETATM   11  C3  UNL     1      16.115  45.920 -54.694  1.00  0.00     0.249 C 
ATOM     12  H1  UNL     1      17.304  47.219 -53.618  1.00  0.00     0.173 HD
HETATM   13  O2  UNL     1      15.210  45.080 -54.684  1.00  0.00    -0.271 OA
ATOM     14  H2  UNL     1      14.609  44.898 -52.577  1.00  0.00     0.192 HD
BRANCH  11  15
HETATM   15  C2  UNL     1      16.740  46.274 -55.967  1.00  0.00     0.270 C 
BRANCH  15  16
HETATM   16  O1  UNL     1      16.019  46.954 -56.875  1.00  0.00    -0.387 OA
HETATM   17  C1  UNL     1      15.662  48.241 -56.635  1.00  0.00     0.202 C 
ENDBRANCH  15  16
ENDBRANCH  11  15
ENDBRANCH   1   7
BRANCH   5  18
HETATM   18  N6  UNL     1      13.917  46.006 -47.810  1.00  0.00    -0.298 N 
HETATM   19  C6  UNL     1      13.467  46.229 -46.639  1.00  0.00     0.075 C 
HETATM   20  C7  UNL     1      12.024  46.119 -46.375  1.00  0.00     0.074 C 
ATOM     21  H6  UNL     1      14.918  46.083 -47.991  1.00  0.00     0.186 HD
BRANCH  19  22
HETATM   22  C8  UNL     1      14.424  46.593 -45.588  1.00  0.00     0.195 A 
HETATM   23  N7  UNL     1      14.160  47.399 -44.542  1.00  0.00    -0.233 N 
HETATM   24  O4  UNL     1      15.264  47.465 -43.852  1.00  0.00    -0.192 OA
ATOM     25  H7  UNL     1      13.276  47.863 -44.333  1.00  0.00     0.197 HD
HETATM   26  C9  UNL     1      16.194  46.754 -44.400  1.00  0.00     0.287 A 
HETATM   27  N8  UNL     1      17.394  46.629 -43.940  1.00  0.00    -0.357 N 
HETATM   28  O5  UNL     1      15.665  46.221 -45.471  1.00  0.00    -0.252 OA
ATOM     29  H82 UNL     1      17.806  47.045 -43.105  1.00  0.00     0.160 HD
ATOM     30  H81 UNL     1      18.127  46.068 -44.373  1.00  0.00     0.160 HD
ENDBRANCH  19  22
ENDBRANCH   5  18
TORSDOF 5
ENDMDL
MODEL 3
REMARK VINA RESULT: -7.499885187      1.077      1.187
REMARK  5 active torsions:
REMARK  status: ('A' for Active; 'I' for Inactive)
REMARK    1  A    between atoms: O1_2  and  C2_3 
REMARK    2  A    between atoms: C2_3  and  C3_4 
REMARK       I    between atoms: C3_4  and  N1_6 
REMARK       I    between atoms: N1_6  and  C4_8 
REMARK       I    between atoms: C4_8  and  N2_10 
REMARK    3  A    between atoms: N2_10  and  N3_12 
REMARK       I    between atoms: C5_14  and  N5_16 
REMARK    4  A    between atoms: N5_16  and  N6_18 
REMARK    5  A    between atoms: C6_20  and  C8_22 
ROOT
HETATM    1  N3  UNL     1      13.728  46.166 -51.973  1.00  0.00    -0.268 N 
ATOM      2  H3  UNL     1      13.122  46.645 -52.639  1.00  0.00     0.190 HD
HETATM    3  C5  UNL     1      14.638  45.355 -52.354  1.00  0.00     0.222 C 
HETATM    4  N4  UNL     1      15.468  44.698 -51.427  1.00  0.00    -0.061 NA
HETATM    5  N5  UNL     1      14.818  45.107 -53.741  1.00  0.00    -0.272 N 
ATOM      6  H5  UNL     1      14.977  44.158 -54.078  1.00  0.00     0.189 HD
ENDROOT
BRANCH   1   7
HETATM    7  N2  UNL     1      13.602  46.369 -50.559  1.00  0.00    -0.249 N 
HETATM    8  C4  UNL     1      13.966  47.601 -50.005  1.00  0.00     0.341 C 
HETATM    9  N1  UNL     1      13.884  47.902 -48.647  1.00  0.00    -0.276 N 
HETATM   10  O3  UNL     1      14.399  48.482 -50.831  1.00  0.00    -0.245 OA
HETATM   11  C3  UNL     1      13.441  47.085 -47.593  1.00  0.00     0.249 C 
ATOM     12  H1  UNL     1      14.184  48.841 -48.383  1.00  0.00     0.173 HD
HETATM   13  O2  UNL     1      13.055  45.930 -47.794  1.00  0.00    -0.271 OA
ATOM     14  H2  UNL     1      13.250  45.621 -49.962  1.00  0.00     0.192 HD
BRANCH  11  15
HETATM   15  C2  UNL     1      13.437  47.607 -46.227  1.00  0.00     0.270 C 
BRANCH  15  16
HETATM   16  O1  UNL     1      12.260  47.900 -45.650  1.00  0.00    -0.387 OA
HETATM   17  C1  UNL     1      11.571  46.940 -44.983  1.00  0.00     0.202 C 
ENDBRANCH  15  16
ENDBRANCH  11  15
ENDBRANCH   1   7
BRANCH   5  18
HETATM   18  N6  UNL     1      14.776  46.177 -54.636  1.00  0.00    -0.298 N 
HETATM   19  C6  UNL     1      15.830  46.554 -55.244  1.00  0.00     0.075 C 
HETATM   20  C7  UNL     1      17.104  45.859 -55.003  1.00  0.00     0.074 C 
ATOM     21  H6  UNL     1      13.894  46.661 -54.804  1.00  0.00     0.186 HD
BRANCH  19  22
HETATM   22  C8  UNL     1      15.725  47.684 -56.174  1.00  0.00     0.195 A 
HETATM   23  N7  UNL     1      15.531  48.968 -55.817  1.00  0.00    -0.233 N 
HETATM   24  O4  UNL     1      15.496  49.649 -56.930  1.00  0.00    -0.192 OA
ATOM     25  H7  UNL     1      15.431  49.333 -54.871  1.00  0.00     0.197 HD
HETATM   26  C9  UNL     1      15.656  48.872 -57.950  1.00  0.00     0.287 A 
HETATM   27  N8  UNL     1      15.667  49.265 -59.180  1.00  0.00    -0.357 N 
HETATM   28  O5  UNL     1      15.796  47.662 -57.473  1.00  0.00    -0.252 OA
ATOM     29  H82 UNL     1      15.558  50.208 -59.553  1.00  0.00     0.160 HD
ATOM     30  H81 UNL     1      15.794  48.651 -59.985  1.00  0.00     0.160 HD
ENDBRANCH  19  22
ENDBRANCH   5  18
TORSDOF 5
ENDMDL
MODEL 4
REMARK VINA RESULT: -7.485200811      2.967      3.919
REMARK  5 active torsions:
REMARK  status: ('A' for Active; 'I' for Inactive)
REMARK    1  A    between atoms: O1_2  and  C2_3 
REMARK    2  A    between atoms: C2_3  and  C3_4 
REMARK       I    between atoms: C3_4  and  N1_6 
REMARK       I    between atoms: N1_6  and  C4_8 
REMARK       I    between atoms: C4_8  and  N2_10 
REMARK    3  A    between atoms: N2_10  and  N3_12 
REMARK       I    between atoms: C5_14  and  N5_16 
REMARK    4  A    between atoms: N5_16  and  N6_18 
REMARK    5  A    between atoms: C6_20  and  C8_22 
ROOT
HETATM    1  N3  UNL     1      14.663  46.471 -50.298  1.00  0.00    -0.268 N 
ATOM      2  H3  UNL     1      15.425  47.122 -50.488  1.00  0.00     0.190 HD
HETATM    3  C5  UNL     1      14.267  45.627 -51.170  1.00  0.00     0.222 C 
HETATM    4  N4  UNL     1      13.213  44.734 -50.900  1.00  0.00    -0.061 NA
HETATM    5  N5  UNL     1      14.899  45.585 -52.441  1.00  0.00    -0.272 N 
ATOM      6  H5  UNL     1      14.342  45.488 -53.291  1.00  0.00     0.189 HD
ENDROOT
BRANCH   1   7
HETATM    7  N2  UNL     1      13.980  46.458 -49.037  1.00  0.00    -0.249 N 
HETATM    8  C4  UNL     1      14.047  47.580 -48.205  1.00  0.00     0.341 C 
HETATM    9  N1  UNL     1      13.423  47.671 -46.964  1.00  0.00    -0.276 N 
HETATM   10  O3  UNL     1      14.738  48.567 -48.649  1.00  0.00    -0.245 OA
HETATM   11  C3  UNL     1      12.630  46.713 -46.308  1.00  0.00     0.249 C 
ATOM     12  H1  UNL     1      13.558  48.550 -46.463  1.00  0.00     0.173 HD
HETATM   13  O2  UNL     1      12.400  45.613 -46.817  1.00  0.00    -0.271 OA
ATOM     14  H2  UNL     1      13.449  45.636 -48.750  1.00  0.00     0.192 HD
BRANCH  11  15
HETATM   15  C2  UNL     1      12.066  47.019 -44.994  1.00  0.00     0.270 C 
BRANCH  15  16
HETATM   16  O1  UNL     1      10.746  47.251 -44.895  1.00  0.00    -0.387 OA
HETATM   17  C1  UNL     1      10.246  48.476 -45.195  1.00  0.00     0.202 C 
ENDBRANCH  15  16
ENDBRANCH  11  15
ENDBRANCH   1   7
BRANCH   5  18
HETATM   18  N6  UNL     1      16.289  45.678 -52.515  1.00  0.00    -0.298 N 
HETATM   19  C6  UNL     1      16.871  45.799 -53.642  1.00  0.00     0.075 C 
HETATM   20  C7  UNL     1      16.075  45.842 -54.878  1.00  0.00     0.074 C 
ATOM     21  H6  UNL     1      16.844  45.648 -51.660  1.00  0.00     0.186 HD
BRANCH  19  22
HETATM   22  C8  UNL     1      18.335  45.892 -53.658  1.00  0.00     0.195 A 
HETATM   23  N7  UNL     1      19.063  46.528 -54.595  1.00  0.00    -0.233 N 
HETATM   24  O4  UNL     1      20.311  46.377 -54.245  1.00  0.00    -0.192 OA
ATOM     25  H7  UNL     1      18.711  47.027 -55.412  1.00  0.00     0.197 HD
HETATM   26  C9  UNL     1      20.403  45.689 -53.155  1.00  0.00     0.287 A 
HETATM   27  N8  UNL     1      21.512  45.381 -52.570  1.00  0.00    -0.357 N 
HETATM   28  O5  UNL     1      19.179  45.395 -52.801  1.00  0.00    -0.252 OA
ATOM     29  H82 UNL     1      22.467  45.610 -52.846  1.00  0.00     0.160 HD
ATOM     30  H81 UNL     1      21.585  44.838 -51.710  1.00  0.00     0.160 HD
ENDBRANCH  19  22
ENDBRANCH   5  18
TORSDOF 5
ENDMDL
MODEL 5
REMARK VINA RESULT: -7.459561784      1.409      1.455
REMARK  5 active torsions:
REMARK  status: ('A' for Active; 'I' for Inactive)
REMARK    1  A    between atoms: O1_2  and  C2_3 
REMARK    2  A    between atoms: C2_3  and  C3_4 
REMARK       I    between atoms: C3_4  and  N1_6 
REMARK       I    between atoms: N1_6  and  C4_8 
REMARK       I    between atoms: C4_8  and  N2_10 
REMARK    3  A    between atoms: N2_10  and  N3_12 
REMARK       I    between atoms: C5_14  and  N5_16 
REMARK    4  A    between atoms: N5_16  and  N6_18 
REMARK    5  A    between atoms: C6_20  and  C8_22 
ROOT
HETATM    1  N3  UNL     1      15.528  45.779 -51.528  1.00  0.00    -0.268 N 
ATOM      2  H3  UNL     1      14.858  45.592 -52.274  1.00  0.00     0.190 HD
HETATM    3  C5  UNL     1      16.780  45.874 -51.757  1.00  0.00     0.222 C 
HETATM    4  N4  UNL     1      17.697  46.130 -50.721  1.00  0.00    -0.061 NA
HETATM    5  N5  UNL     1      17.263  45.718 -53.084  1.00  0.00    -0.272 N 
ATOM      6  H5  UNL     1      18.104  45.170 -53.266  1.00  0.00     0.189 HD
ENDROOT
BRANCH   1   7
HETATM    7  N2  UNL     1      15.111  45.947 -50.167  1.00  0.00    -0.249 N 
HETATM    8  C4  UNL     1      13.746  45.956 -49.860  1.00  0.00     0.341 C 
HETATM    9  N1  UNL     1      13.235  46.112 -48.573  1.00  0.00    -0.276 N 
HETATM   10  O3  UNL     1      12.947  45.808 -50.853  1.00  0.00    -0.245 OA
HETATM   11  C3  UNL     1      13.935  46.285 -47.367  1.00  0.00     0.249 C 
ATOM     12  H1  UNL     1      12.218  46.100 -48.496  1.00  0.00     0.173 HD
HETATM   13  O2  UNL     1      15.169  46.317 -47.338  1.00  0.00    -0.271 OA
ATOM     14  H2  UNL     1      15.805  46.059 -49.428  1.00  0.00     0.192 HD
BRANCH  11  15
HETATM   15  C2  UNL     1      13.193  46.432 -46.116  1.00  0.00     0.270 C 
BRANCH  15  16
HETATM   16  O1  UNL     1      11.933  45.968 -46.053  1.00  0.00    -0.387 OA
HETATM   17  C1  UNL     1      11.020  46.585 -45.260  1.00  0.00     0.202 C 
ENDBRANCH  15  16
ENDBRANCH  11  15
ENDBRANCH   1   7
BRANCH   5  18
HETATM   18  N6  UNL     1      16.574  46.322 -54.136  1.00  0.00    -0.298 N 
HETATM   19  C6  UNL     1      17.175  47.113 -54.934  1.00  0.00     0.075 C 
HETATM   20  C7  UNL     1      18.606  47.394 -54.748  1.00  0.00     0.074 C 
ATOM     21  H6  UNL     1      15.580  46.129 -54.267  1.00  0.00     0.186 HD
BRANCH  19  22
HETATM   22  C8  UNL     1      16.398  47.719 -56.022  1.00  0.00     0.195 A 
HETATM   23  N7  UNL     1      15.055  47.792 -56.071  1.00  0.00    -0.233 N 
HETATM   24  O4  UNL     1      14.768  48.396 -57.190  1.00  0.00    -0.192 OA
ATOM     25  H7  UNL     1      14.396  47.444 -55.374  1.00  0.00     0.197 HD
HETATM   26  C9  UNL     1      15.844  48.703 -57.837  1.00  0.00     0.287 A 
HETATM   27  N8  UNL     1      15.870  49.308 -58.977  1.00  0.00    -0.357 N 
HETATM   28  O5  UNL     1      16.844  48.280 -57.108  1.00  0.00    -0.252 OA
ATOM     29  H82 UNL     1      15.090  49.638 -59.546  1.00  0.00     0.160 HD
ATOM     30  H81 UNL     1      16.720  49.550 -59.488  1.00  0.00     0.160 HD
ENDBRANCH  19  22
ENDBRANCH   5  18
TORSDOF 5
ENDMDL
