MODEL 1
REMARK VINA RESULT: -6.361977531      0.000      0.000
REMARK  7 active torsions:
REMARK  status: ('A' for Active; 'I' for Inactive)
REMARK    1  A    between atoms: S1_2  and  N1_4 
REMARK    2  A    between atoms: S1_2  and  C3_13 
REMARK    3  A    between atoms: N1_4  and  N2_6 
REMARK       I    between atoms: N2_6  and  C2_8 
REMARK    4  A    between atoms: C5_17  and  N6_18 
REMARK    5  A    between atoms: N9_27  and  C8_28 
REMARK    6  A    between atoms: C8_28  and  C9_29 
REMARK    7  A    between atoms: C9_29  and  O2_30 
ROOT
HETATM    1  C3  UNL     1      14.039  48.216 -47.456  1.00  0.00     0.187 A 
HETATM    2  N5  UNL     1      13.417  47.428 -46.516  1.00  0.00    -0.328 N 
ATOM      3  H5  UNL     1      13.747  46.516 -46.201  1.00  0.00     0.168 HD
HETATM    4  C4  UNL     1      12.328  48.037 -46.084  1.00  0.00     0.123 A 
HETATM    5  C5  UNL     1      11.354  47.688 -45.151  1.00  0.00     0.131 A 
HETATM    6  N7  UNL     1      10.341  48.527 -44.916  1.00  0.00    -0.337 N 
ATOM      7  H7  UNL     1       9.622  48.281 -44.235  1.00  0.00     0.168 HD
HETATM    8  C6  UNL     1      10.270  49.693 -45.577  1.00  0.00     0.183 A 
HETATM    9  N8  UNL     1      11.219  50.030 -46.485  1.00  0.00    -0.336 N 
ATOM     10  H8  UNL     1      11.139  50.923 -46.974  1.00  0.00     0.168 HD
HETATM   11  C7  UNL     1      12.257  49.232 -46.763  1.00  0.00     0.141 A 
HETATM   12  N9  UNL     1      13.313  49.316 -47.596  1.00  0.00    -0.307 N 
ENDROOT
BRANCH   1  13
HETATM   13  S1  UNL     1      15.513  47.747 -48.208  1.00  0.00     0.098 S 
HETATM   14  C1  UNL     1      16.889  48.746 -47.709  1.00  0.00     0.147 C 
HETATM   15  O1  UNL     1      15.903  46.338 -47.742  1.00  0.00    -0.241 OA
BRANCH  13  16
HETATM   16  N1  UNL     1      15.422  47.614 -49.763  1.00  0.00    -0.251 N 
ATOM     17  H1  UNL     1      15.702  48.376 -50.381  1.00  0.00     0.197 HD
BRANCH  16  18
HETATM   18  N2  UNL     1      14.940  46.402 -50.267  1.00  0.00    -0.267 N 
HETATM   19  C2  UNL     1      13.753  46.251 -50.995  1.00  0.00     0.201 C 
HETATM   20  N3  UNL     1      13.846  45.660 -52.162  1.00  0.00    -0.372 N 
HETATM   21  N4  UNL     1      12.474  46.684 -50.567  1.00  0.00    -0.062 NA
ATOM     22  H32 UNL     1      14.767  45.348 -52.470  1.00  0.00     0.158 HD
ATOM     23  H31 UNL     1      12.982  45.550 -52.692  1.00  0.00     0.158 HD
ATOM     24  H2  UNL     1      15.494  45.565 -50.091  1.00  0.00     0.190 HD
ENDBRANCH  16  18
ENDBRANCH  13  16
ENDBRANCH   1  13
BRANCH  12  25
HETATM   25  C8  UNL     1      13.537  50.404 -48.465  1.00  0.00     0.159 C 
BRANCH  25  26
HETATM   26  C9  UNL     1      13.079  50.242 -49.884  1.00  0.00     0.184 C 
BRANCH  26  27
HETATM   27  O2  UNL     1      11.756  49.735 -49.804  1.00  0.00    -0.399 OA
ATOM     28  H2  UNL     1      11.842  48.789 -49.834  1.00  0.00     0.209 HD
ENDBRANCH  26  27
ENDBRANCH  25  26
ENDBRANCH  12  25
BRANCH   5  29
HETATM   29  N6  UNL     1      11.439  46.567 -44.527  1.00  0.00    -0.383 N 
ATOM     30  H62 UNL     1      11.857  45.751 -44.975  1.00  0.00     0.157 HD
ATOM     31  H61 UNL     1      11.086  46.489 -43.574  1.00  0.00     0.157 HD
ENDBRANCH   5  29
TORSDOF 7
ENDMDL
MODEL 2
REMARK VINA RESULT: -6.258588252      2.847      7.207
REMARK  7 active torsions:
REMARK  status: ('A' for Active; 'I' for Inactive)
REMARK    1  A    between atoms: S1_2  and  N1_4 
REMARK    2  A    between atoms: S1_2  and  C3_13 
REMARK    3  A    between atoms: N1_4  and  N2_6 
REMARK       I    between atoms: N2_6  and  C2_8 
REMARK    4  A    between atoms: C5_17  and  N6_18 
REMARK    5  A    between atoms: N9_27  and  C8_28 
REMARK    6  A    between atoms: C8_28  and  C9_29 
REMARK    7  A    between atoms: C9_29  and  O2_30 
ROOT
HETATM    1  C3  UNL     1      14.862  46.397 -51.088  1.00  0.00     0.187 A 
HETATM    2  N5  UNL     1      14.802  46.273 -52.456  1.00  0.00    -0.328 N 
ATOM      3  H5  UNL     1      13.962  46.390 -53.022  1.00  0.00     0.168 HD
HETATM    4  C4  UNL     1      16.002  45.980 -52.924  1.00  0.00     0.123 A 
HETATM    5  C5  UNL     1      16.489  45.753 -54.209  1.00  0.00     0.131 A 
HETATM    6  N7  UNL     1      17.784  45.469 -54.379  1.00  0.00    -0.337 N 
ATOM      7  H7  UNL     1      18.151  45.300 -55.316  1.00  0.00     0.168 HD
HETATM    8  C6  UNL     1      18.601  45.406 -53.315  1.00  0.00     0.183 A 
HETATM    9  N8  UNL     1      18.124  45.627 -52.065  1.00  0.00    -0.336 N 
ATOM     10  H8  UNL     1      18.769  45.572 -51.275  1.00  0.00     0.168 HD
HETATM   11  C7  UNL     1      16.838  45.916 -51.832  1.00  0.00     0.141 A 
HETATM   12  N9  UNL     1      16.117  46.173 -50.723  1.00  0.00    -0.307 N 
ENDROOT
BRANCH   1  13
HETATM   13  S1  UNL     1      13.483  46.812 -50.148  1.00  0.00     0.098 S 
HETATM   14  C1  UNL     1      13.222  48.561 -50.041  1.00  0.00     0.147 C 
HETATM   15  O1  UNL     1      12.214  46.300 -50.843  1.00  0.00    -0.241 OA
BRANCH  13  16
HETATM   16  N1  UNL     1      13.440  46.128 -48.743  1.00  0.00    -0.251 N 
ATOM     17  H1  UNL     1      13.442  45.113 -48.643  1.00  0.00     0.197 HD
BRANCH  16  18
HETATM   18  N2  UNL     1      13.398  46.972 -47.630  1.00  0.00    -0.267 N 
HETATM   19  C2  UNL     1      13.003  46.586 -46.342  1.00  0.00     0.201 C 
HETATM   20  N3  UNL     1      13.844  46.831 -45.367  1.00  0.00    -0.372 N 
HETATM   21  N4  UNL     1      11.776  45.957 -46.022  1.00  0.00    -0.062 NA
ATOM     22  H32 UNL     1      14.728  47.285 -45.598  1.00  0.00     0.158 HD
ATOM     23  H31 UNL     1      13.557  46.551 -44.430  1.00  0.00     0.158 HD
ATOM     24  H2  UNL     1      13.677  47.944 -47.765  1.00  0.00     0.190 HD
ENDBRANCH  16  18
ENDBRANCH  13  16
ENDBRANCH   1  13
BRANCH  12  25
HETATM   25  C8  UNL     1      16.658  46.163 -49.420  1.00  0.00     0.159 C 
BRANCH  25  26
HETATM   26  C9  UNL     1      16.936  47.497 -48.793  1.00  0.00     0.184 C 
BRANCH  26  27
HETATM   27  O2  UNL     1      16.137  47.543 -47.621  1.00  0.00    -0.399 OA
ATOM     28  H2  UNL     1      15.839  48.443 -47.549  1.00  0.00     0.209 HD
ENDBRANCH  26  27
ENDBRANCH  25  26
ENDBRANCH  12  25
BRANCH   5  29
HETATM   29  N6  UNL     1      15.692  45.817 -55.215  1.00  0.00    -0.383 N 
ATOM     30  H62 UNL     1      15.747  46.593 -55.876  1.00  0.00     0.157 HD
ATOM     31  H61 UNL     1      14.995  45.087 -55.357  1.00  0.00     0.157 HD
ENDBRANCH   5  29
TORSDOF 7
ENDMDL
MODEL 3
REMARK VINA RESULT: -6.215268290      6.412      8.067
REMARK  7 active torsions:
REMARK  status: ('A' for Active; 'I' for Inactive)
REMARK    1  A    between atoms: S1_2  and  N1_4 
REMARK    2  A    between atoms: S1_2  and  C3_13 
REMARK    3  A    between atoms: N1_4  and  N2_6 
REMARK       I    between atoms: N2_6  and  C2_8 
REMARK    4  A    between atoms: C5_17  and  N6_18 
REMARK    5  A    between atoms: N9_27  and  C8_28 
REMARK    6  A    between atoms: C8_28  and  C9_29 
REMARK    7  A    between atoms: C9_29  and  O2_30 
ROOT
HETATM    1  C3  UNL     1      17.677  46.520 -51.732  1.00  0.00     0.187 A 
HETATM    2  N5  UNL     1      16.776  45.851 -52.526  1.00  0.00    -0.328 N 
ATOM      3  H5  UNL     1      16.417  44.913 -52.347  1.00  0.00     0.168 HD
HETATM    4  C4  UNL     1      16.445  46.610 -53.554  1.00  0.00     0.123 A 
HETATM    5  C5  UNL     1      15.588  46.422 -54.635  1.00  0.00     0.131 A 
HETATM    6  N7  UNL     1      15.453  47.394 -55.542  1.00  0.00    -0.337 N 
ATOM      7  H7  UNL     1      14.828  47.266 -56.339  1.00  0.00     0.168 HD
HETATM    8  C6  UNL     1      16.141  48.539 -55.404  1.00  0.00     0.183 A 
HETATM    9  N8  UNL     1      16.975  48.720 -54.350  1.00  0.00    -0.336 N 
ATOM     10  H8  UNL     1      17.485  49.601 -54.272  1.00  0.00     0.168 HD
HETATM   11  C7  UNL     1      17.151  47.784 -53.410  1.00  0.00     0.141 A 
HETATM   12  N9  UNL     1      17.897  47.703 -52.291  1.00  0.00    -0.307 N 
ENDROOT
BRANCH   1  13
HETATM   13  S1  UNL     1      18.297  45.839 -50.280  1.00  0.00     0.098 S 
HETATM   14  C1  UNL     1      18.330  46.993 -48.936  1.00  0.00     0.147 C 
HETATM   15  O1  UNL     1      17.352  44.736 -49.785  1.00  0.00    -0.241 OA
BRANCH  13  16
HETATM   16  N1  UNL     1      19.667  45.105 -50.454  1.00  0.00    -0.251 N 
ATOM     17  H1  UNL     1      19.868  44.230 -49.969  1.00  0.00     0.197 HD
BRANCH  16  18
HETATM   18  N2  UNL     1      20.602  45.703 -51.303  1.00  0.00    -0.267 N 
HETATM   19  C2  UNL     1      21.195  45.082 -52.410  1.00  0.00     0.201 C 
HETATM   20  N3  UNL     1      21.098  45.704 -53.560  1.00  0.00    -0.372 N 
HETATM   21  N4  UNL     1      21.883  43.845 -52.377  1.00  0.00    -0.062 NA
ATOM     22  H32 UNL     1      20.602  46.595 -53.584  1.00  0.00     0.158 HD
ATOM     23  H31 UNL     1      21.530  45.252 -54.365  1.00  0.00     0.158 HD
ATOM     24  H2  UNL     1      20.873  46.666 -51.102  1.00  0.00     0.190 HD
ENDBRANCH  16  18
ENDBRANCH  13  16
ENDBRANCH   1  13
BRANCH  12  25
HETATM   25  C8  UNL     1      18.766  48.725 -51.855  1.00  0.00     0.159 C 
BRANCH  25  26
HETATM   26  C9  UNL     1      19.975  48.991 -52.701  1.00  0.00     0.184 C 
BRANCH  26  27
HETATM   27  O2  UNL     1      21.079  48.496 -51.959  1.00  0.00    -0.399 OA
ATOM     28  H2  UNL     1      20.791  48.474 -51.054  1.00  0.00     0.209 HD
ENDBRANCH  26  27
ENDBRANCH  25  26
ENDBRANCH  12  25
BRANCH   5  29
HETATM   29  N6  UNL     1      14.938  45.319 -54.751  1.00  0.00    -0.383 N 
ATOM     30  H62 UNL     1      15.423  44.448 -54.969  1.00  0.00     0.157 HD
ATOM     31  H61 UNL     1      13.926  45.311 -54.623  1.00  0.00     0.157 HD
ENDBRANCH   5  29
TORSDOF 7
ENDMDL
MODEL 4
REMARK VINA RESULT: -6.190003574      5.799      7.932
REMARK  7 active torsions:
REMARK  status: ('A' for Active; 'I' for Inactive)
REMARK    1  A    between atoms: S1_2  and  N1_4 
REMARK    2  A    between atoms: S1_2  and  C3_13 
REMARK    3  A    between atoms: N1_4  and  N2_6 
REMARK       I    between atoms: N2_6  and  C2_8 
REMARK    4  A    between atoms: C5_17  and  N6_18 
REMARK    5  A    between atoms: N9_27  and  C8_28 
REMARK    6  A    between atoms: C8_28  and  C9_29 
REMARK    7  A    between atoms: C9_29  and  O2_30 
ROOT
HETATM    1  C3  UNL     1      18.519  46.102 -52.639  1.00  0.00     0.187 A 
HETATM    2  N5  UNL     1      17.553  46.035 -53.616  1.00  0.00    -0.328 N 
ATOM      3  H5  UNL     1      17.718  46.146 -54.616  1.00  0.00     0.168 HD
HETATM    4  C4  UNL     1      16.379  45.804 -53.057  1.00  0.00     0.123 A 
HETATM    5  C5  UNL     1      15.096  45.647 -53.577  1.00  0.00     0.131 A 
HETATM    6  N7  UNL     1      14.076  45.417 -52.746  1.00  0.00    -0.337 N 
ATOM      7  H7  UNL     1      13.132  45.302 -53.116  1.00  0.00     0.168 HD
HETATM    8  C6  UNL     1      14.294  45.338 -51.423  1.00  0.00     0.183 A 
HETATM    9  N8  UNL     1      15.543  45.491 -50.919  1.00  0.00    -0.336 N 
ATOM     10  H8  UNL     1      15.679  45.427 -49.910  1.00  0.00     0.168 HD
HETATM   11  C7  UNL     1      16.604  45.723 -51.701  1.00  0.00     0.141 A 
HETATM   12  N9  UNL     1      17.919  45.911 -51.472  1.00  0.00    -0.307 N 
ENDROOT
BRANCH   1  13
HETATM   13  S1  UNL     1      20.178  46.356 -53.014  1.00  0.00     0.098 S 
HETATM   14  C1  UNL     1      21.208  44.994 -52.541  1.00  0.00     0.147 C 
HETATM   15  O1  UNL     1      20.356  46.432 -54.536  1.00  0.00    -0.241 OA
BRANCH  13  16
HETATM   16  N1  UNL     1      20.745  47.721 -52.504  1.00  0.00    -0.251 N 
ATOM     17  H1  UNL     1      21.705  47.808 -52.170  1.00  0.00     0.197 HD
BRANCH  16  18
HETATM   18  N2  UNL     1      19.877  48.816 -52.528  1.00  0.00    -0.267 N 
HETATM   19  C2  UNL     1      20.180  50.093 -52.039  1.00  0.00     0.201 C 
HETATM   20  N3  UNL     1      20.020  51.097 -52.867  1.00  0.00    -0.372 N 
HETATM   21  N4  UNL     1      20.643  50.376 -50.731  1.00  0.00    -0.062 NA
ATOM     22  H32 UNL     1      19.686  50.893 -53.809  1.00  0.00     0.158 HD
ATOM     23  H31 UNL     1      20.240  52.027 -52.511  1.00  0.00     0.158 HD
ATOM     24  H2  UNL     1      18.951  48.674 -52.932  1.00  0.00     0.190 HD
ENDBRANCH  16  18
ENDBRANCH  13  16
ENDBRANCH   1  13
BRANCH  12  25
HETATM   25  C8  UNL     1      18.495  45.918 -50.185  1.00  0.00     0.159 C 
BRANCH  25  26
HETATM   26  C9  UNL     1      18.612  47.249 -49.504  1.00  0.00     0.184 C 
BRANCH  26  27
HETATM   27  O2  UNL     1      19.982  47.608 -49.595  1.00  0.00    -0.399 OA
ATOM     28  H2  UNL     1      20.141  48.201 -48.870  1.00  0.00     0.209 HD
ENDBRANCH  26  27
ENDBRANCH  25  26
ENDBRANCH  12  25
BRANCH   5  29
HETATM   29  N6  UNL     1      14.907  45.726 -54.846  1.00  0.00    -0.383 N 
ATOM     30  H62 UNL     1      15.502  45.211 -55.495  1.00  0.00     0.157 HD
ATOM     31  H61 UNL     1      14.154  46.309 -55.211  1.00  0.00     0.157 HD
ENDBRANCH   5  29
TORSDOF 7
ENDMDL
MODEL 5
REMARK VINA RESULT: -6.178715888      3.122      6.598
REMARK  7 active torsions:
REMARK  status: ('A' for Active; 'I' for Inactive)
REMARK    1  A    between atoms: S1_2  and  N1_4 
REMARK    2  A    between atoms: S1_2  and  C3_13 
REMARK    3  A    between atoms: N1_4  and  N2_6 
REMARK       I    between atoms: N2_6  and  C2_8 
REMARK    4  A    between atoms: C5_17  and  N6_18 
REMARK    5  A    between atoms: N9_27  and  C8_28 
REMARK    6  A    between atoms: C8_28  and  C9_29 
REMARK    7  A    between atoms: C9_29  and  O2_30 
ROOT
HETATM    1  C3  UNL     1      15.205  46.311 -49.616  1.00  0.00     0.187 A 
HETATM    2  N5  UNL     1      16.198  45.952 -48.736  1.00  0.00    -0.328 N 
ATOM      3  H5  UNL     1      16.084  45.850 -47.728  1.00  0.00     0.168 HD
HETATM    4  C4  UNL     1      17.324  45.758 -49.399  1.00  0.00     0.123 A 
HETATM    5  C5  UNL     1      18.606  45.388 -49.001  1.00  0.00     0.131 A 
HETATM    6  N7  UNL     1      19.569  45.267 -49.921  1.00  0.00    -0.337 N 
ATOM      7  H7  UNL     1      20.512  44.998 -49.640  1.00  0.00     0.168 HD
HETATM    8  C6  UNL     1      19.292  45.502 -51.214  1.00  0.00     0.183 A 
HETATM    9  N8  UNL     1      18.043  45.863 -51.598  1.00  0.00    -0.336 N 
ATOM     10  H8  UNL     1      17.863  46.036 -52.588  1.00  0.00     0.168 HD
HETATM   11  C7  UNL     1      17.039  45.999 -50.724  1.00  0.00     0.141 A 
HETATM   12  N9  UNL     1      15.738  46.336 -50.830  1.00  0.00    -0.307 N 
ENDROOT
BRANCH   1  13
HETATM   13  S1  UNL     1      13.592  46.607 -49.099  1.00  0.00     0.098 S 
HETATM   14  C1  UNL     1      13.046  48.255 -49.451  1.00  0.00     0.147 C 
HETATM   15  O1  UNL     1      12.624  45.727 -49.903  1.00  0.00    -0.241 OA
BRANCH  13  16
HETATM   16  N1  UNL     1      13.314  46.205 -47.614  1.00  0.00    -0.251 N 
ATOM     17  H1  UNL     1      13.384  45.236 -47.302  1.00  0.00     0.197 HD
BRANCH  16  18
HETATM   18  N2  UNL     1      12.965  47.234 -46.734  1.00  0.00    -0.267 N 
HETATM   19  C2  UNL     1      12.348  47.053 -45.490  1.00  0.00     0.201 C 
HETATM   20  N3  UNL     1      12.941  47.588 -44.451  1.00  0.00    -0.372 N 
HETATM   21  N4  UNL     1      11.143  46.341 -45.276  1.00  0.00    -0.062 NA
ATOM     22  H32 UNL     1      13.809  48.101 -44.606  1.00  0.00     0.158 HD
ATOM     23  H31 UNL     1      12.491  47.457 -43.546  1.00  0.00     0.158 HD
ATOM     24  H2  UNL     1      13.177  48.190 -47.020  1.00  0.00     0.190 HD
ENDBRANCH  16  18
ENDBRANCH  13  16
ENDBRANCH   1  13
BRANCH  12  25
HETATM   25  C8  UNL     1      15.116  46.676 -52.049  1.00  0.00     0.159 C 
BRANCH  25  26
HETATM   26  C9  UNL     1      14.818  45.549 -52.993  1.00  0.00     0.184 C 
BRANCH  26  27
HETATM   27  O2  UNL     1      13.681  44.889 -52.456  1.00  0.00    -0.399 OA
ATOM     28  H2  UNL     1      13.661  45.122 -51.535  1.00  0.00     0.209 HD
ENDBRANCH  26  27
ENDBRANCH  25  26
ENDBRANCH  12  25
BRANCH   5  29
HETATM   29  N6  UNL     1      18.851  45.167 -47.759  1.00  0.00    -0.383 N 
ATOM     30  H62 UNL     1      18.696  45.893 -47.059  1.00  0.00     0.157 HD
ATOM     31  H61 UNL     1      19.205  44.257 -47.466  1.00  0.00     0.157 HD
ENDBRANCH   5  29
TORSDOF 7
ENDMDL
