MODEL 1
REMARK VINA RESULT: -6.964443846      0.000      0.000
REMARK  9 active torsions:
REMARK  status: ('A' for Active; 'I' for Inactive)
REMARK    1  A    between atoms: O1_2  and  C2_3 
REMARK    2  A    between atoms: C4_5  and  C5_6 
REMARK    3  A    between atoms: C5_6  and  N1_7 
REMARK    4  A    between atoms: N1_7  and  N2_9 
REMARK    5  A    between atoms: N2_9  and  C6_11 
REMARK    6  A    between atoms: C7_16  and  N5_17 
REMARK    7  A    between atoms: N5_17  and  C8_19 
REMARK    8  A    between atoms: C8_19  and  O2_21 
REMARK    9  A    between atoms: C10_25  and  N7_26 
ROOT
HETATM    1  C6  UNL     1      13.806  49.812 -49.221  1.00  0.00     0.180 A 
HETATM    2  N3  UNL     1      12.689  49.619 -49.937  1.00  0.00    -0.267 N 
ATOM      3  H3  UNL     1      12.296  48.680 -49.997  1.00  0.00     0.189 HD
HETATM    4  N4  UNL     1      12.079  50.614 -50.571  1.00  0.00    -0.130 N 
ATOM      5  H4  UNL     1      11.232  50.418 -51.104  1.00  0.00     0.205 HD
HETATM    6  C7  UNL     1      12.548  51.864 -50.529  1.00  0.00     0.696 A 
HETATM    7  N6  UNL     1      13.687  52.075 -49.801  1.00  0.00    -0.172 N 
ATOM      8  H6  UNL     1      14.068  53.020 -49.750  1.00  0.00     0.186 HD
HETATM    9  C10 UNL     1      14.320  51.093 -49.154  1.00  0.00     0.162 A 
ENDROOT
BRANCH   1  10
HETATM   10  N2  UNL     1      14.382  48.829 -48.612  1.00  0.00    -0.282 N 
ATOM     11  H2  UNL     1      15.265  48.493 -48.997  1.00  0.00     0.188 HD
BRANCH  10  12
HETATM   12  N1  UNL     1      13.903  48.199 -47.490  1.00  0.00    -0.308 N 
ATOM     13  H1  UNL     1      13.732  47.196 -47.566  1.00  0.00     0.186 HD
BRANCH  12  14
HETATM   14  C5  UNL     1      13.652  48.733 -46.371  1.00  0.00     0.138 C 
BRANCH  14  15
HETATM   15  C4  UNL     1      12.646  48.085 -45.504  1.00  0.00     0.070 A 
HETATM   16  C3  UNL     1      11.316  48.241 -45.781  1.00  0.00     0.089 A 
HETATM   17  C2  UNL     1      10.378  47.645 -44.983  1.00  0.00     0.159 A 
HETATM   18  N10 UNL     1      10.793  46.911 -43.936  1.00  0.00    -0.265 N 
HETATM   19  N9  UNL     1      12.096  46.784 -43.701  1.00  0.00    -0.240 N 
ATOM     20  H10 UNL     1      10.114  46.456 -43.326  1.00  0.00     0.190 HD
HETATM   21  N8  UNL     1      13.016  47.346 -44.452  1.00  0.00    -0.285 N 
ATOM     22  H9  UNL     1      12.395  46.225 -42.902  1.00  0.00     0.208 HD
ATOM     23  H8  UNL     1      14.004  47.220 -44.234  1.00  0.00     0.188 HD
BRANCH  17  24
HETATM   24  O1  UNL     1       9.034  47.827 -45.295  1.00  0.00    -0.340 OA
HETATM   25  C1  UNL     1       8.624  49.090 -45.740  1.00  0.00     0.211 C 
ENDBRANCH  17  24
ENDBRANCH  14  15
ENDBRANCH  12  14
ENDBRANCH  10  12
ENDBRANCH   1  10
BRANCH   9  26
HETATM   26  N7  UNL     1      15.385  51.347 -48.485  1.00  0.00    -0.382 N 
ATOM     27  H72 UNL     1      15.967  50.582 -48.143  1.00  0.00     0.157 HD
ATOM     28  H71 UNL     1      15.668  52.307 -48.286  1.00  0.00     0.157 HD
ENDBRANCH   9  26
BRANCH   6  29
HETATM   29  N5  UNL     1      12.004  52.874 -51.121  1.00  0.00    -0.199 N 
ATOM     30  H5  UNL     1      11.528  52.757 -52.016  1.00  0.00     0.180 HD
BRANCH  29  31
HETATM   31  C8  UNL     1      12.082  54.170 -50.497  1.00  0.00     0.231 C 
HETATM   32  C9  UNL     1      10.826  54.923 -50.922  1.00  0.00     0.063 C 
BRANCH  31  33
HETATM   33  O2  UNL     1      13.217  54.857 -50.937  1.00  0.00    -0.377 OA
ATOM     34  H2  UNL     1      13.782  54.279 -51.436  1.00  0.00     0.212 HD
ENDBRANCH  31  33
ENDBRANCH  29  31
ENDBRANCH   6  29
TORSDOF 9
ENDMDL
MODEL 2
REMARK VINA RESULT: -6.795727898      4.950      8.744
REMARK  9 active torsions:
REMARK  status: ('A' for Active; 'I' for Inactive)
REMARK    1  A    between atoms: O1_2  and  C2_3 
REMARK    2  A    between atoms: C4_5  and  C5_6 
REMARK    3  A    between atoms: C5_6  and  N1_7 
REMARK    4  A    between atoms: N1_7  and  N2_9 
REMARK    5  A    between atoms: N2_9  and  C6_11 
REMARK    6  A    between atoms: C7_16  and  N5_17 
REMARK    7  A    between atoms: N5_17  and  C8_19 
REMARK    8  A    between atoms: C8_19  and  O2_21 
REMARK    9  A    between atoms: C10_25  and  N7_26 
ROOT
HETATM    1  C6  UNL     1      13.158  46.228 -49.190  1.00  0.00     0.180 A 
HETATM    2  N3  UNL     1      12.593  45.277 -48.433  1.00  0.00    -0.267 N 
ATOM      3  H3  UNL     1      12.343  44.387 -48.863  1.00  0.00     0.189 HD
HETATM    4  N4  UNL     1      12.349  45.459 -47.141  1.00  0.00    -0.130 N 
ATOM      5  H4  UNL     1      11.917  44.706 -46.606  1.00  0.00     0.205 HD
HETATM    6  C7  UNL     1      12.655  46.603 -46.524  1.00  0.00     0.696 A 
HETATM    7  N6  UNL     1      13.233  47.582 -47.285  1.00  0.00    -0.172 N 
ATOM      8  H6  UNL     1      13.479  48.467 -46.840  1.00  0.00     0.186 HD
HETATM    9  C10 UNL     1      13.490  47.426 -48.587  1.00  0.00     0.162 A 
ENDROOT
BRANCH   1  10
HETATM   10  N2  UNL     1      13.387  46.029 -50.446  1.00  0.00    -0.282 N 
ATOM     11  H2  UNL     1      12.740  46.451 -51.113  1.00  0.00     0.188 HD
BRANCH  10  12
HETATM   12  N1  UNL     1      14.429  45.295 -50.958  1.00  0.00    -0.308 N 
ATOM     13  H1  UNL     1      14.305  44.283 -50.987  1.00  0.00     0.186 HD
BRANCH  12  14
HETATM   14  C5  UNL     1      15.527  45.744 -51.396  1.00  0.00     0.138 C 
BRANCH  14  15
HETATM   15  C4  UNL     1      15.673  45.912 -52.857  1.00  0.00     0.070 A 
HETATM   16  C3  UNL     1      16.890  46.254 -53.378  1.00  0.00     0.089 A 
HETATM   17  C2  UNL     1      17.033  46.413 -54.730  1.00  0.00     0.159 A 
HETATM   18  N10 UNL     1      15.962  46.225 -55.520  1.00  0.00    -0.265 N 
HETATM   19  N9  UNL     1      14.795  45.892 -54.973  1.00  0.00    -0.240 N 
ATOM     20  H10 UNL     1      16.042  46.336 -56.531  1.00  0.00     0.190 HD
HETATM   21  N8  UNL     1      14.632  45.734 -53.679  1.00  0.00    -0.285 N 
ATOM     22  H9  UNL     1      13.992  45.754 -55.586  1.00  0.00     0.208 HD
ATOM     23  H8  UNL     1      13.719  45.478 -53.304  1.00  0.00     0.188 HD
BRANCH  17  24
HETATM   24  O1  UNL     1      18.287  46.762 -55.225  1.00  0.00    -0.340 OA
HETATM   25  C1  UNL     1      19.261  47.191 -54.314  1.00  0.00     0.211 C 
ENDBRANCH  17  24
ENDBRANCH  14  15
ENDBRANCH  12  14
ENDBRANCH  10  12
ENDBRANCH   1  10
BRANCH   9  26
HETATM   26  N7  UNL     1      14.034  48.378 -49.253  1.00  0.00    -0.382 N 
ATOM     27  H72 UNL     1      14.033  48.353 -50.272  1.00  0.00     0.157 HD
ATOM     28  H71 UNL     1      14.473  49.169 -48.781  1.00  0.00     0.157 HD
ENDBRANCH   9  26
BRANCH   6  29
HETATM   29  N5  UNL     1      12.445  46.844 -45.273  1.00  0.00    -0.199 N 
ATOM     30  H5  UNL     1      13.192  47.210 -44.683  1.00  0.00     0.180 HD
BRANCH  29  31
HETATM   31  C8  UNL     1      11.138  46.587 -44.726  1.00  0.00     0.231 C 
HETATM   32  C9  UNL     1      10.253  47.745 -45.173  1.00  0.00     0.063 C 
BRANCH  31  33
HETATM   33  O2  UNL     1      11.192  46.545 -43.330  1.00  0.00    -0.377 OA
ATOM     34  H2  UNL     1      10.611  45.873 -42.995  1.00  0.00     0.212 HD
ENDBRANCH  31  33
ENDBRANCH  29  31
ENDBRANCH   6  29
TORSDOF 9
ENDMDL
MODEL 3
REMARK VINA RESULT: -6.722651857      4.482      7.223
REMARK  9 active torsions:
REMARK  status: ('A' for Active; 'I' for Inactive)
REMARK    1  A    between atoms: O1_2  and  C2_3 
REMARK    2  A    between atoms: C4_5  and  C5_6 
REMARK    3  A    between atoms: C5_6  and  N1_7 
REMARK    4  A    between atoms: N1_7  and  N2_9 
REMARK    5  A    between atoms: N2_9  and  C6_11 
REMARK    6  A    between atoms: C7_16  and  N5_17 
REMARK    7  A    between atoms: N5_17  and  C8_19 
REMARK    8  A    between atoms: C8_19  and  O2_21 
REMARK    9  A    between atoms: C10_25  and  N7_26 
ROOT
HETATM    1  C6  UNL     1      14.260  48.769 -49.846  1.00  0.00     0.180 A 
HETATM    2  N3  UNL     1      12.977  48.847 -50.225  1.00  0.00    -0.267 N 
ATOM      3  H3  UNL     1      12.490  47.993 -50.499  1.00  0.00     0.189 HD
HETATM    4  N4  UNL     1      12.319  49.999 -50.253  1.00  0.00    -0.130 N 
ATOM      5  H4  UNL     1      11.343  50.008 -50.548  1.00  0.00     0.205 HD
HETATM    6  C7  UNL     1      12.905  51.149 -49.906  1.00  0.00     0.696 A 
HETATM    7  N6  UNL     1      14.215  51.085 -49.516  1.00  0.00    -0.172 N 
ATOM      8  H6  UNL     1      14.688  51.946 -49.244  1.00  0.00     0.186 HD
HETATM    9  C10 UNL     1      14.899  49.938 -49.478  1.00  0.00     0.162 A 
ENDROOT
BRANCH   1  10
HETATM   10  N2  UNL     1      14.880  47.636 -49.826  1.00  0.00    -0.282 N 
ATOM     11  H2  UNL     1      15.117  47.248 -48.913  1.00  0.00     0.188 HD
BRANCH  10  12
HETATM   12  N1  UNL     1      15.245  46.910 -50.933  1.00  0.00    -0.308 N 
ATOM     13  H1  UNL     1      14.714  46.059 -51.118  1.00  0.00     0.186 HD
BRANCH  12  14
HETATM   14  C5  UNL     1      16.172  47.187 -51.748  1.00  0.00     0.138 C 
BRANCH  14  15
HETATM   15  C4  UNL     1      15.921  46.958 -53.186  1.00  0.00     0.070 A 
HETATM   16  C3  UNL     1      16.543  47.749 -54.113  1.00  0.00     0.089 A 
HETATM   17  C2  UNL     1      16.316  47.544 -55.447  1.00  0.00     0.159 A 
HETATM   18  N10 UNL     1      15.479  46.559 -55.816  1.00  0.00    -0.265 N 
HETATM   19  N9  UNL     1      14.894  45.812 -54.883  1.00  0.00    -0.240 N 
ATOM     20  H10 UNL     1      15.293  46.385 -56.804  1.00  0.00     0.190 HD
HETATM   21  N8  UNL     1      15.096  45.989 -53.597  1.00  0.00    -0.285 N 
ATOM     22  H9  UNL     1      14.261  45.070 -55.179  1.00  0.00     0.208 HD
ATOM     23  H8  UNL     1      14.626  45.392 -52.917  1.00  0.00     0.188 HD
BRANCH  17  24
HETATM   24  O1  UNL     1      16.966  48.368 -56.361  1.00  0.00    -0.340 OA
HETATM   25  C1  UNL     1      16.233  49.403 -56.956  1.00  0.00     0.211 C 
ENDBRANCH  17  24
ENDBRANCH  14  15
ENDBRANCH  12  14
ENDBRANCH  10  12
ENDBRANCH   1  10
BRANCH   9  26
HETATM   26  N7  UNL     1      16.127  49.935 -49.105  1.00  0.00    -0.382 N 
ATOM     27  H72 UNL     1      16.870  50.049 -49.794  1.00  0.00     0.157 HD
ATOM     28  H71 UNL     1      16.380  49.819 -48.124  1.00  0.00     0.157 HD
ENDBRANCH   9  26
BRANCH   6  29
HETATM   29  N5  UNL     1      12.324  52.302 -49.911  1.00  0.00    -0.199 N 
ATOM     30  H5  UNL     1      11.739  52.592 -49.127  1.00  0.00     0.180 HD
BRANCH  29  31
HETATM   31  C8  UNL     1      12.515  53.172 -51.042  1.00  0.00     0.231 C 
HETATM   32  C9  UNL     1      11.479  54.282 -50.907  1.00  0.00     0.063 C 
BRANCH  31  33
HETATM   33  O2  UNL     1      12.308  52.474 -52.236  1.00  0.00    -0.377 OA
ATOM     34  H2  UNL     1      12.085  53.075 -52.937  1.00  0.00     0.212 HD
ENDBRANCH  31  33
ENDBRANCH  29  31
ENDBRANCH   6  29
TORSDOF 9
ENDMDL
MODEL 4
REMARK VINA RESULT: -6.705318437      5.155      8.671
REMARK  9 active torsions:
REMARK  status: ('A' for Active; 'I' for Inactive)
REMARK    1  A    between atoms: O1_2  and  C2_3 
REMARK    2  A    between atoms: C4_5  and  C5_6 
REMARK    3  A    between atoms: C5_6  and  N1_7 
REMARK    4  A    between atoms: N1_7  and  N2_9 
REMARK    5  A    between atoms: N2_9  and  C6_11 
REMARK    6  A    between atoms: C7_16  and  N5_17 
REMARK    7  A    between atoms: N5_17  and  C8_19 
REMARK    8  A    between atoms: C8_19  and  O2_21 
REMARK    9  A    between atoms: C10_25  and  N7_26 
ROOT
HETATM    1  C6  UNL     1      13.305  46.413 -50.121  1.00  0.00     0.180 A 
HETATM    2  N3  UNL     1      12.860  45.375 -49.399  1.00  0.00    -0.267 N 
ATOM      3  H3  UNL     1      12.571  44.525 -49.881  1.00  0.00     0.189 HD
HETATM    4  N4  UNL     1      12.784  45.421 -48.074  1.00  0.00    -0.130 N 
ATOM      5  H4  UNL     1      12.439  44.607 -47.567  1.00  0.00     0.205 HD
HETATM    6  C7  UNL     1      13.148  46.508 -47.388  1.00  0.00     0.696 A 
HETATM    7  N6  UNL     1      13.605  47.575 -48.114  1.00  0.00    -0.172 N 
ATOM      8  H6  UNL     1      13.891  48.418 -47.617  1.00  0.00     0.186 HD
HETATM    9  C10 UNL     1      13.692  47.555 -49.447  1.00  0.00     0.162 A 
ENDROOT
BRANCH   1  10
HETATM   10  N2  UNL     1      13.370  46.345 -51.410  1.00  0.00    -0.282 N 
ATOM     11  H2  UNL     1      12.665  46.855 -51.942  1.00  0.00     0.188 HD
BRANCH  10  12
HETATM   12  N1  UNL     1      14.312  45.643 -52.122  1.00  0.00    -0.308 N 
ATOM     13  H1  UNL     1      13.961  44.953 -52.787  1.00  0.00     0.186 HD
BRANCH  12  14
HETATM   14  C5  UNL     1      15.568  45.761 -52.039  1.00  0.00     0.138 C 
BRANCH  14  15
HETATM   15  C4  UNL     1      16.322  46.029 -53.281  1.00  0.00     0.070 A 
HETATM   16  C3  UNL     1      15.657  46.465 -54.393  1.00  0.00     0.089 A 
HETATM   17  C2  UNL     1      16.349  46.715 -55.548  1.00  0.00     0.159 A 
HETATM   18  N10 UNL     1      17.679  46.524 -55.558  1.00  0.00    -0.265 N 
HETATM   19  N9  UNL     1      18.288  46.098 -54.454  1.00  0.00    -0.240 N 
ATOM     20  H10 UNL     1      18.217  46.703 -56.406  1.00  0.00     0.190 HD
HETATM   21  N8  UNL     1      17.647  45.852 -53.335  1.00  0.00    -0.285 N 
ATOM     22  H9  UNL     1      19.298  45.957 -54.479  1.00  0.00     0.208 HD
ATOM     23  H8  UNL     1      18.156  45.527 -52.513  1.00  0.00     0.188 HD
BRANCH  17  24
HETATM   24  O1  UNL     1      15.638  47.158 -56.660  1.00  0.00    -0.340 OA
HETATM   25  C1  UNL     1      15.301  48.515 -56.732  1.00  0.00     0.211 C 
ENDBRANCH  17  24
ENDBRANCH  14  15
ENDBRANCH  12  14
ENDBRANCH  10  12
ENDBRANCH   1  10
BRANCH   9  26
HETATM   26  N7  UNL     1      14.127  48.584 -50.077  1.00  0.00    -0.382 N 
ATOM     27  H72 UNL     1      13.917  48.703 -51.068  1.00  0.00     0.157 HD
ATOM     28  H71 UNL     1      14.687  49.295 -49.605  1.00  0.00     0.157 HD
ENDBRANCH   9  26
BRANCH   6  29
HETATM   29  N5  UNL     1      13.100  46.619 -46.103  1.00  0.00    -0.199 N 
ATOM     30  H5  UNL     1      12.829  45.824 -45.524  1.00  0.00     0.180 HD
BRANCH  29  31
HETATM   31  C8  UNL     1      13.435  47.883 -45.500  1.00  0.00     0.231 C 
HETATM   32  C9  UNL     1      14.096  47.557 -44.166  1.00  0.00     0.063 C 
BRANCH  31  33
HETATM   33  O2  UNL     1      12.282  48.642 -45.283  1.00  0.00    -0.377 OA
ATOM     34  H2  UNL     1      12.507  49.496 -44.935  1.00  0.00     0.212 HD
ENDBRANCH  31  33
ENDBRANCH  29  31
ENDBRANCH   6  29
TORSDOF 9
ENDMDL
MODEL 5
REMARK VINA RESULT: -6.579992658      3.776      5.069
REMARK  9 active torsions:
REMARK  status: ('A' for Active; 'I' for Inactive)
REMARK    1  A    between atoms: O1_2  and  C2_3 
REMARK    2  A    between atoms: C4_5  and  C5_6 
REMARK    3  A    between atoms: C5_6  and  N1_7 
REMARK    4  A    between atoms: N1_7  and  N2_9 
REMARK    5  A    between atoms: N2_9  and  C6_11 
REMARK    6  A    between atoms: C7_16  and  N5_17 
REMARK    7  A    between atoms: N5_17  and  C8_19 
REMARK    8  A    between atoms: C8_19  and  O2_21 
REMARK    9  A    between atoms: C10_25  and  N7_26 
ROOT
HETATM    1  C6  UNL     1      12.750  48.702 -46.562  1.00  0.00     0.180 A 
HETATM    2  N3  UNL     1      13.668  48.452 -47.507  1.00  0.00    -0.267 N 
ATOM      3  H3  UNL     1      14.207  47.588 -47.456  1.00  0.00     0.189 HD
HETATM    4  N4  UNL     1      13.896  49.295 -48.506  1.00  0.00    -0.130 N 
ATOM      5  H4  UNL     1      14.605  49.062 -49.202  1.00  0.00     0.205 HD
HETATM    6  C7  UNL     1      13.222  50.442 -48.624  1.00  0.00     0.696 A 
HETATM    7  N6  UNL     1      12.281  50.709 -47.667  1.00  0.00    -0.172 N 
ATOM      8  H6  UNL     1      11.749  51.577 -47.732  1.00  0.00     0.186 HD
HETATM    9  C10 UNL     1      12.031  49.878 -46.651  1.00  0.00     0.162 A 
ENDROOT
BRANCH   1  10
HETATM   10  N2  UNL     1      12.544  47.866 -45.598  1.00  0.00    -0.282 N 
ATOM     11  H2  UNL     1      11.706  47.287 -45.651  1.00  0.00     0.188 HD
BRANCH  10  12
HETATM   12  N1  UNL     1      13.362  47.694 -44.508  1.00  0.00    -0.308 N 
ATOM     13  H1  UNL     1      12.916  47.374 -43.648  1.00  0.00     0.186 HD
BRANCH  12  14
HETATM   14  C5  UNL     1      14.610  47.891 -44.459  1.00  0.00     0.138 C 
BRANCH  14  15
HETATM   15  C4  UNL     1      15.503  46.779 -44.844  1.00  0.00     0.070 A 
HETATM   16  C3  UNL     1      16.733  46.669 -44.258  1.00  0.00     0.089 A 
HETATM   17  C2  UNL     1      17.567  45.641 -44.610  1.00  0.00     0.159 A 
HETATM   18  N10 UNL     1      17.150  44.758 -45.533  1.00  0.00    -0.265 N 
HETATM   19  N9  UNL     1      15.945  44.901 -46.079  1.00  0.00    -0.240 N 
ATOM     20  H10 UNL     1      17.751  43.983 -45.812  1.00  0.00     0.190 HD
HETATM   21  N8  UNL     1      15.127  45.877 -45.758  1.00  0.00    -0.285 N 
ATOM     22  H9  UNL     1      15.644  44.222 -46.778  1.00  0.00     0.208 HD
ATOM     23  H8  UNL     1      14.212  45.947 -46.203  1.00  0.00     0.188 HD
BRANCH  17  24
HETATM   24  O1  UNL     1      18.812  45.561 -43.993  1.00  0.00    -0.340 OA
HETATM   25  C1  UNL     1      19.196  46.604 -43.141  1.00  0.00     0.211 C 
ENDBRANCH  17  24
ENDBRANCH  14  15
ENDBRANCH  12  14
ENDBRANCH  10  12
ENDBRANCH   1  10
BRANCH   9  26
HETATM   26  N7  UNL     1      11.138  50.179 -45.781  1.00  0.00    -0.382 N 
ATOM     27  H72 UNL     1      11.211  49.820 -44.829  1.00  0.00     0.157 HD
ATOM     28  H71 UNL     1      10.345  50.775 -46.021  1.00  0.00     0.157 HD
ENDBRANCH   9  26
BRANCH   6  29
HETATM   29  N5  UNL     1      13.394  51.304 -49.570  1.00  0.00    -0.199 N 
ATOM     30  H5  UNL     1      13.995  52.116 -49.428  1.00  0.00     0.180 HD
BRANCH  29  31
HETATM   31  C8  UNL     1      12.725  51.099 -50.828  1.00  0.00     0.231 C 
HETATM   32  C9  UNL     1      12.284  52.478 -51.306  1.00  0.00     0.063 C 
BRANCH  31  33
HETATM   33  O2  UNL     1      11.606  50.278 -50.658  1.00  0.00    -0.377 OA
ATOM     34  H2  UNL     1      10.906  50.755 -50.230  1.00  0.00     0.212 HD
ENDBRANCH  31  33
ENDBRANCH  29  31
ENDBRANCH   6  29
TORSDOF 9
ENDMDL
