MODEL 1
REMARK VINA RESULT: -6.901238974      0.000      0.000
REMARK  5 active torsions:
REMARK  status: ('A' for Active; 'I' for Inactive)
REMARK    1  A    between atoms: C5_11  and  N3_12 
REMARK    2  A    between atoms: C6_17  and  C7_18 
REMARK       I    between atoms: C7_18  and  N6_20 
REMARK    3  A    between atoms: N6_20  and  C8_22 
REMARK    4  A    between atoms: C8_22  and  C10_24 
REMARK    5  A    between atoms: C10_24  and  O2_25 
ROOT
HETATM    1  N3  UNL     1      14.095  47.000 -48.321  1.00  0.00    -0.208 N 
HETATM    2  N4  UNL     1      15.375  46.681 -48.068  1.00  0.00    -0.232 N 
ATOM      3  H4  UNL     1      15.828  46.827 -47.165  1.00  0.00     0.209 HD
HETATM    4  N5  UNL     1      15.967  46.168 -49.098  1.00  0.00    -0.278 N 
ATOM      5  H5  UNL     1      16.936  45.853 -49.139  1.00  0.00     0.189 HD
HETATM    6  C6  UNL     1      15.078  46.124 -50.104  1.00  0.00     0.160 A 
HETATM    7  C11 UNL     1      13.915  46.652 -49.589  1.00  0.00     0.175 A 
HETATM    8  N7  UNL     1      12.727  46.794 -50.312  1.00  0.00    -0.078 NA
ENDROOT
BRANCH   1   9
HETATM    9  C5  UNL     1      13.245  47.570 -47.369  1.00  0.00     0.153 A 
HETATM   10  C4  UNL     1      13.044  48.956 -47.289  1.00  0.00     0.101 A 
HETATM   11  C3  UNL     1      12.201  49.493 -46.340  1.00  0.00     0.121 A 
HETATM   12  S1  UNL     1      13.906  50.030 -48.445  1.00  0.00    -0.044 SA
HETATM   13  N1  UNL     1      11.568  48.673 -45.487  1.00  0.00    -0.332 N 
HETATM   14  N2  UNL     1      11.986  50.755 -46.228  1.00  0.00    -0.384 N 
HETATM   15  C2  UNL     1      11.745  47.325 -45.544  1.00  0.00     0.080 A 
ATOM     16  H1  UNL     1      10.944  49.066 -44.783  1.00  0.00     0.168 HD
HETATM   17  C1  UNL     1      11.043  46.417 -44.598  1.00  0.00     0.089 C 
HETATM   18  N8  UNL     1      12.569  46.841 -46.475  1.00  0.00    -0.330 N 
ATOM     19  H8  UNL     1      12.694  45.829 -46.508  1.00  0.00     0.168 HD
ATOM     20  H22 UNL     1      11.362  51.153 -45.526  1.00  0.00     0.157 HD
ATOM     21  H21 UNL     1      12.467  51.378 -46.876  1.00  0.00     0.157 HD
ENDBRANCH   1   9
BRANCH   6  22
HETATM   22  C7  UNL     1      15.289  45.631 -51.444  1.00  0.00     0.273 C 
HETATM   23  O1  UNL     1      14.553  44.703 -51.880  1.00  0.00    -0.266 OA
HETATM   24  N6  UNL     1      16.317  46.202 -52.236  1.00  0.00    -0.349 N 
ATOM     25  H6  UNL     1      16.886  46.951 -51.843  1.00  0.00     0.163 HD
BRANCH  24  26
HETATM   26  C8  UNL     1      16.584  45.753 -53.592  1.00  0.00     0.104 C 
HETATM   27  C9  UNL     1      18.035  45.932 -53.934  1.00  0.00     0.034 C 
BRANCH  26  28
HETATM   28  C10 UNL     1      15.672  46.563 -54.506  1.00  0.00     0.189 C 
BRANCH  28  29
HETATM   29  O2  UNL     1      14.565  45.801 -54.858  1.00  0.00    -0.399 OA
ATOM     30  H2  UNL     1      14.717  44.891 -54.633  1.00  0.00     0.209 HD
ENDBRANCH  28  29
ENDBRANCH  26  28
ENDBRANCH  24  26
ENDBRANCH   6  22
TORSDOF 5
ENDMDL
MODEL 2
REMARK VINA RESULT: -6.812293980      2.228      3.350
REMARK  5 active torsions:
REMARK  status: ('A' for Active; 'I' for Inactive)
REMARK    1  A    between atoms: C5_11  and  N3_12 
REMARK    2  A    between atoms: C6_17  and  C7_18 
REMARK       I    between atoms: C7_18  and  N6_20 
REMARK    3  A    between atoms: N6_20  and  C8_22 
REMARK    4  A    between atoms: C8_22  and  C10_24 
REMARK    5  A    between atoms: C10_24  and  O2_25 
ROOT
HETATM    1  N3  UNL     1      13.972  47.752 -50.640  1.00  0.00    -0.208 N 
HETATM    2  N4  UNL     1      13.304  46.595 -50.772  1.00  0.00    -0.232 N 
ATOM      3  H4  UNL     1      12.443  46.375 -50.270  1.00  0.00     0.209 HD
HETATM    4  N5  UNL     1      13.876  45.789 -51.609  1.00  0.00    -0.278 N 
ATOM      5  H5  UNL     1      13.550  44.858 -51.865  1.00  0.00     0.189 HD
HETATM    6  C6  UNL     1      14.976  46.399 -52.079  1.00  0.00     0.160 A 
HETATM    7  C11 UNL     1      15.012  47.626 -51.455  1.00  0.00     0.175 A 
HETATM    8  N7  UNL     1      16.006  48.586 -51.661  1.00  0.00    -0.078 NA
ENDROOT
BRANCH   1   9
HETATM    9  C5  UNL     1      13.555  48.785 -49.794  1.00  0.00     0.153 A 
HETATM   10  C4  UNL     1      13.410  48.597 -48.412  1.00  0.00     0.101 A 
HETATM   11  C3  UNL     1      12.997  49.631 -47.599  1.00  0.00     0.121 A 
HETATM   12  S1  UNL     1      13.771  46.983 -47.708  1.00  0.00    -0.044 SA
HETATM   13  N1  UNL     1      12.733  50.828 -48.145  1.00  0.00    -0.332 N 
HETATM   14  N2  UNL     1      12.850  49.507 -46.328  1.00  0.00    -0.384 N 
HETATM   15  C2  UNL     1      12.866  51.036 -49.483  1.00  0.00     0.080 A 
ATOM     16  H1  UNL     1      12.427  51.595 -47.547  1.00  0.00     0.168 HD
HETATM   17  C1  UNL     1      12.573  52.363 -50.088  1.00  0.00     0.089 C 
HETATM   18  N8  UNL     1      13.268  50.012 -50.239  1.00  0.00    -0.330 N 
ATOM     19  H8  UNL     1      13.364  50.180 -51.240  1.00  0.00     0.168 HD
ATOM     20  H22 UNL     1      12.544  50.273 -45.726  1.00  0.00     0.157 HD
ATOM     21  H21 UNL     1      13.050  48.598 -45.913  1.00  0.00     0.157 HD
ENDBRANCH   1   9
BRANCH   6  22
HETATM   22  C7  UNL     1      15.927  45.884 -53.035  1.00  0.00     0.273 C 
HETATM   23  O1  UNL     1      15.519  45.133 -53.963  1.00  0.00    -0.266 OA
HETATM   24  N6  UNL     1      17.295  46.236 -52.907  1.00  0.00    -0.349 N 
ATOM     25  H6  UNL     1      17.579  46.847 -52.142  1.00  0.00     0.163 HD
BRANCH  24  26
HETATM   26  C8  UNL     1      18.304  45.752 -53.834  1.00  0.00     0.104 C 
HETATM   27  C9  UNL     1      19.667  45.796 -53.203  1.00  0.00     0.034 C 
BRANCH  26  28
HETATM   28  C10 UNL     1      18.215  46.634 -55.073  1.00  0.00     0.189 C 
BRANCH  28  29
HETATM   29  O2  UNL     1      17.582  45.940 -56.097  1.00  0.00    -0.399 OA
ATOM     30  H2  UNL     1      16.827  46.431 -56.398  1.00  0.00     0.209 HD
ENDBRANCH  28  29
ENDBRANCH  26  28
ENDBRANCH  24  26
ENDBRANCH   6  22
TORSDOF 5
ENDMDL
MODEL 3
REMARK VINA RESULT: -6.781588119      2.822      3.876
REMARK  5 active torsions:
REMARK  status: ('A' for Active; 'I' for Inactive)
REMARK    1  A    between atoms: C5_11  and  N3_12 
REMARK    2  A    between atoms: C6_17  and  C7_18 
REMARK       I    between atoms: C7_18  and  N6_20 
REMARK    3  A    between atoms: N6_20  and  C8_22 
REMARK    4  A    between atoms: C8_22  and  C10_24 
REMARK    5  A    between atoms: C10_24  and  O2_25 
ROOT
HETATM    1  N3  UNL     1      15.933  46.781 -49.561  1.00  0.00    -0.208 N 
HETATM    2  N4  UNL     1      15.651  47.830 -50.350  1.00  0.00    -0.232 N 
ATOM      3  H4  UNL     1      14.980  48.559 -50.107  1.00  0.00     0.209 HD
HETATM    4  N5  UNL     1      16.329  47.812 -51.453  1.00  0.00    -0.278 N 
ATOM      5  H5  UNL     1      16.278  48.504 -52.201  1.00  0.00     0.189 HD
HETATM    6  C6  UNL     1      17.109  46.719 -51.438  1.00  0.00     0.160 A 
HETATM    7  C11 UNL     1      16.840  46.092 -50.242  1.00  0.00     0.175 A 
HETATM    8  N7  UNL     1      17.444  44.903 -49.822  1.00  0.00    -0.078 NA
ENDROOT
BRANCH   1   9
HETATM    9  C5  UNL     1      15.331  46.576 -48.316  1.00  0.00     0.153 A 
HETATM   10  C4  UNL     1      14.011  46.115 -48.198  1.00  0.00     0.101 A 
HETATM   11  C3  UNL     1      13.440  45.922 -46.959  1.00  0.00     0.121 A 
HETATM   12  S1  UNL     1      13.068  45.780 -49.690  1.00  0.00    -0.044 SA
HETATM   13  N1  UNL     1      14.162  46.178 -45.857  1.00  0.00    -0.332 N 
HETATM   14  N2  UNL     1      12.235  45.502 -46.800  1.00  0.00    -0.384 N 
HETATM   15  C2  UNL     1      15.444  46.625 -45.945  1.00  0.00     0.080 A 
ATOM     16  H1  UNL     1      13.743  46.037 -44.938  1.00  0.00     0.168 HD
HETATM   17  C1  UNL     1      16.244  46.910 -44.723  1.00  0.00     0.089 C 
HETATM   18  N8  UNL     1      15.964  46.802 -47.161  1.00  0.00    -0.330 N 
ATOM     19  H8  UNL     1      16.926  47.137 -47.213  1.00  0.00     0.168 HD
ATOM     20  H22 UNL     1      11.812  45.358 -45.882  1.00  0.00     0.157 HD
ATOM     21  H21 UNL     1      11.687  45.307 -47.637  1.00  0.00     0.157 HD
ENDBRANCH   1   9
BRANCH   6  22
HETATM   22  C7  UNL     1      18.035  46.285 -52.457  1.00  0.00     0.273 C 
HETATM   23  O1  UNL     1      17.593  45.970 -53.595  1.00  0.00    -0.266 OA
HETATM   24  N6  UNL     1      19.419  46.224 -52.151  1.00  0.00    -0.349 N 
ATOM     25  H6  UNL     1      19.731  46.490 -51.218  1.00  0.00     0.163 HD
BRANCH  24  26
HETATM   26  C8  UNL     1      20.405  45.796 -53.129  1.00  0.00     0.104 C 
HETATM   27  C9  UNL     1      21.538  45.073 -52.458  1.00  0.00     0.034 C 
BRANCH  26  28
HETATM   28  C10 UNL     1      20.873  47.052 -53.854  1.00  0.00     0.189 C 
BRANCH  28  29
HETATM   29  O2  UNL     1      20.141  47.218 -55.023  1.00  0.00    -0.399 OA
ATOM     30  H2  UNL     1      20.708  47.105 -55.776  1.00  0.00     0.209 HD
ENDBRANCH  28  29
ENDBRANCH  26  28
ENDBRANCH  24  26
ENDBRANCH   6  22
TORSDOF 5
ENDMDL
MODEL 4
REMARK VINA RESULT: -6.769820408      3.099      7.854
REMARK  5 active torsions:
REMARK  status: ('A' for Active; 'I' for Inactive)
REMARK    1  A    between atoms: C5_11  and  N3_12 
REMARK    2  A    between atoms: C6_17  and  C7_18 
REMARK       I    between atoms: C7_18  and  N6_20 
REMARK    3  A    between atoms: N6_20  and  C8_22 
REMARK    4  A    between atoms: C8_22  and  C10_24 
REMARK    5  A    between atoms: C10_24  and  O2_25 
ROOT
HETATM    1  N3  UNL     1      17.428  46.368 -52.552  1.00  0.00    -0.208 N 
HETATM    2  N4  UNL     1      16.583  45.890 -53.480  1.00  0.00    -0.232 N 
ATOM      3  H4  UNL     1      16.873  45.588 -54.411  1.00  0.00     0.209 HD
HETATM    4  N5  UNL     1      15.359  45.857 -53.060  1.00  0.00    -0.278 N 
ATOM      5  H5  UNL     1      14.550  45.534 -53.591  1.00  0.00     0.189 HD
HETATM    6  C6  UNL     1      15.344  46.323 -51.801  1.00  0.00     0.160 A 
HETATM    7  C11 UNL     1      16.653  46.636 -51.509  1.00  0.00     0.175 A 
HETATM    8  N7  UNL     1      17.084  47.159 -50.287  1.00  0.00    -0.078 NA
ENDROOT
BRANCH   1   9
HETATM    9  C5  UNL     1      18.803  46.502 -52.766  1.00  0.00     0.153 A 
HETATM   10  C4  UNL     1      19.368  47.701 -53.226  1.00  0.00     0.101 A 
HETATM   11  C3  UNL     1      20.727  47.808 -53.430  1.00  0.00     0.121 A 
HETATM   12  S1  UNL     1      18.292  49.104 -53.551  1.00  0.00    -0.044 SA
HETATM   13  N1  UNL     1      21.512  46.748 -53.181  1.00  0.00    -0.332 N 
HETATM   14  N2  UNL     1      21.290  48.884 -53.850  1.00  0.00    -0.384 N 
HETATM   15  C2  UNL     1      20.989  45.575 -52.733  1.00  0.00     0.080 A 
ATOM     16  H1  UNL     1      22.518  46.823 -53.330  1.00  0.00     0.168 HD
HETATM   17  C1  UNL     1      21.860  44.400 -52.457  1.00  0.00     0.089 C 
HETATM   18  N8  UNL     1      19.670  45.508 -52.548  1.00  0.00    -0.330 N 
ATOM     19  H8  UNL     1      19.289  44.623 -52.212  1.00  0.00     0.168 HD
ATOM     20  H22 UNL     1      22.296  48.963 -54.001  1.00  0.00     0.157 HD
ATOM     21  H21 UNL     1      20.694  49.689 -54.040  1.00  0.00     0.157 HD
ENDBRANCH   1   9
BRANCH   6  22
HETATM   22  C7  UNL     1      14.202  46.470 -50.930  1.00  0.00     0.273 C 
HETATM   23  O1  UNL     1      13.056  46.171 -51.365  1.00  0.00    -0.266 OA
HETATM   24  N6  UNL     1      14.397  46.945 -49.609  1.00  0.00    -0.349 N 
ATOM     25  H6  UNL     1      15.342  47.173 -49.300  1.00  0.00     0.163 HD
BRANCH  24  26
HETATM   26  C8  UNL     1      13.292  47.117 -48.681  1.00  0.00     0.104 C 
HETATM   27  C9  UNL     1      13.559  48.261 -47.745  1.00  0.00     0.034 C 
BRANCH  26  28
HETATM   28  C10 UNL     1      13.134  45.794 -47.943  1.00  0.00     0.189 C 
BRANCH  28  29
HETATM   29  O2  UNL     1      12.151  45.028 -48.559  1.00  0.00    -0.399 OA
ATOM     30  H2  UNL     1      12.524  44.207 -48.857  1.00  0.00     0.209 HD
ENDBRANCH  28  29
ENDBRANCH  26  28
ENDBRANCH  24  26
ENDBRANCH   6  22
TORSDOF 5
ENDMDL
MODEL 5
REMARK VINA RESULT: -6.650676757      2.053      3.036
REMARK  5 active torsions:
REMARK  status: ('A' for Active; 'I' for Inactive)
REMARK    1  A    between atoms: C5_11  and  N3_12 
REMARK    2  A    between atoms: C6_17  and  C7_18 
REMARK       I    between atoms: C7_18  and  N6_20 
REMARK    3  A    between atoms: N6_20  and  C8_22 
REMARK    4  A    between atoms: C8_22  and  C10_24 
REMARK    5  A    between atoms: C10_24  and  O2_25 
ROOT
HETATM    1  N3  UNL     1      14.463  47.649 -49.384  1.00  0.00    -0.208 N 
HETATM    2  N4  UNL     1      13.311  47.322 -49.990  1.00  0.00    -0.232 N 
ATOM      3  H4  UNL     1      12.388  47.533 -49.608  1.00  0.00     0.209 HD
HETATM    4  N5  UNL     1      13.502  46.707 -51.113  1.00  0.00    -0.278 N 
ATOM      5  H5  UNL     1      12.777  46.364 -51.742  1.00  0.00     0.189 HD
HETATM    6  C6  UNL     1      14.828  46.602 -51.302  1.00  0.00     0.160 A 
HETATM    7  C11 UNL     1      15.405  47.199 -50.204  1.00  0.00     0.175 A 
HETATM    8  N7  UNL     1      16.783  47.307 -49.999  1.00  0.00    -0.078 NA
ENDROOT
BRANCH   1   9
HETATM    9  C5  UNL     1      14.521  48.319 -48.158  1.00  0.00     0.153 A 
HETATM   10  C4  UNL     1      13.905  47.808 -47.006  1.00  0.00     0.101 A 
HETATM   11  C3  UNL     1      13.975  48.487 -45.809  1.00  0.00     0.121 A 
HETATM   12  S1  UNL     1      13.017  46.249 -47.109  1.00  0.00    -0.044 SA
HETATM   13  N1  UNL     1      14.643  49.650 -45.753  1.00  0.00    -0.332 N 
HETATM   14  N2  UNL     1      13.428  48.060 -44.727  1.00  0.00    -0.384 N 
HETATM   15  C2  UNL     1      15.250  50.166 -46.856  1.00  0.00     0.080 A 
ATOM     16  H1  UNL     1      14.698  50.156 -44.869  1.00  0.00     0.168 HD
HETATM   17  C1  UNL     1      15.990  51.455 -46.795  1.00  0.00     0.089 C 
HETATM   18  N8  UNL     1      15.160  49.481 -47.998  1.00  0.00    -0.330 N 
ATOM     19  H8  UNL     1      15.619  49.878 -48.818  1.00  0.00     0.168 HD
ATOM     20  H22 UNL     1      13.480  48.563 -43.841  1.00  0.00     0.157 HD
ATOM     21  H21 UNL     1      12.920  47.177 -44.769  1.00  0.00     0.157 HD
ENDBRANCH   1   9
BRANCH   6  22
HETATM   22  C7  UNL     1      15.512  45.991 -52.418  1.00  0.00     0.273 C 
HETATM   23  O1  UNL     1      14.902  45.136 -53.118  1.00  0.00    -0.266 OA
HETATM   24  N6  UNL     1      16.850  46.368 -52.698  1.00  0.00    -0.349 N 
ATOM     25  H6  UNL     1      17.301  47.064 -52.106  1.00  0.00     0.163 HD
BRANCH  24  26
HETATM   26  C8  UNL     1      17.596  45.793 -53.803  1.00  0.00     0.104 C 
HETATM   27  C9  UNL     1      19.064  45.754 -53.489  1.00  0.00     0.034 C 
BRANCH  26  28
HETATM   28  C10 UNL     1      17.292  46.649 -55.027  1.00  0.00     0.189 C 
BRANCH  28  29
HETATM   29  O2  UNL     1      17.595  45.940 -56.182  1.00  0.00    -0.399 OA
ATOM     30  H2  UNL     1      16.793  45.689 -56.624  1.00  0.00     0.209 HD
ENDBRANCH  28  29
ENDBRANCH  26  28
ENDBRANCH  24  26
ENDBRANCH   6  22
TORSDOF 5
ENDMDL
