MODEL 1
REMARK VINA RESULT: -7.708359116      0.000      0.000
REMARK  4 active torsions:
REMARK  status: ('A' for Active; 'I' for Inactive)
REMARK    1  A    between atoms: C2_2  and  C3_4 
REMARK    2  A    between atoms: C4_7  and  C5_8 
REMARK    3  A    between atoms: N2_9  and  C6_11 
REMARK    4  A    between atoms: C9_22  and  N7_23 
ROOT
HETATM    1  C6  UNL     1      18.611  46.087 -52.954  1.00  0.00     0.157 A 
HETATM    2  N3  UNL     1      19.493  45.411 -52.110  1.00  0.00    -0.174 N 
ATOM      3  H3  UNL     1      19.115  44.893 -51.317  1.00  0.00     0.186 HD
HETATM    4  C7  UNL     1      20.796  45.418 -52.300  1.00  0.00     0.678 A 
HETATM    5  N4  UNL     1      21.624  44.749 -51.531  1.00  0.00    -0.234 N 
ATOM      6  H41 UNL     1      22.633  44.754 -51.679  1.00  0.00     0.174 HD
ATOM      7  H42 UNL     1      21.200  44.240 -50.755  1.00  0.00     0.174 HD
HETATM    8  N5  UNL     1      21.370  46.107 -53.352  1.00  0.00    -0.176 N 
ATOM      9  H5  UNL     1      22.381  46.106 -53.487  1.00  0.00     0.185 HD
HETATM   10  C8  UNL     1      20.574  46.769 -54.179  1.00  0.00     0.168 A 
HETATM   11  N6  UNL     1      21.095  47.530 -55.287  1.00  0.00    -0.079 NA
HETATM   12  C9  UNL     1      19.233  46.758 -53.980  1.00  0.00     0.188 A 
ENDROOT
BRANCH   1  13
HETATM   13  N2  UNL     1      17.415  46.010 -52.771  1.00  0.00    -0.347 N 
HETATM   14  C5  UNL     1      16.123  46.200 -53.130  1.00  0.00     0.122 C 
ATOM     15  H2  UNL     1      17.344  45.564 -51.856  1.00  0.00     0.167 HD
BRANCH  14  16
HETATM   16  C4  UNL     1      15.127  46.469 -52.028  1.00  0.00     0.091 A 
HETATM   17  N1  UNL     1      14.334  45.686 -51.338  1.00  0.00    -0.335 N 
HETATM   18  C3  UNL     1      13.836  46.298 -50.224  1.00  0.00     0.155 A 
ATOM     19  H1  UNL     1      14.114  44.727 -51.604  1.00  0.00     0.168 HD
HETATM   20  N9  UNL     1      14.363  47.556 -50.238  1.00  0.00    -0.321 N 
HETATM   21  C10 UNL     1      15.148  47.683 -51.319  1.00  0.00     0.148 A 
HETATM   22  C11 UNL     1      14.110  48.644 -49.325  1.00  0.00     0.159 C 
HETATM   23  N8  UNL     1      15.848  48.826 -51.808  1.00  0.00    -0.080 NA
BRANCH  18  24
HETATM   24  C2  UNL     1      13.005  45.707 -49.200  1.00  0.00     0.189 C 
HETATM   25  C1  UNL     1      13.192  45.819 -47.752  1.00  0.00     0.100 C 
HETATM   26  O1  UNL     1      12.002  45.015 -49.592  1.00  0.00    -0.290 OA
ENDBRANCH  18  24
ENDBRANCH  14  16
ENDBRANCH   1  13
BRANCH  12  27
HETATM   27  N7  UNL     1      18.406  47.538 -54.876  1.00  0.00    -0.108 N 
HETATM   28  O2  UNL     1      18.076  48.674 -54.487  1.00  0.00    -0.532 OA
HETATM   29  O3  UNL     1      17.986  47.080 -56.090  1.00  0.00    -0.532 OA
ENDBRANCH  12  27
TORSDOF 4
ENDMDL
MODEL 2
REMARK VINA RESULT: -7.529016388      2.177      3.004
REMARK  4 active torsions:
REMARK  status: ('A' for Active; 'I' for Inactive)
REMARK    1  A    between atoms: C2_2  and  C3_4 
REMARK    2  A    between atoms: C4_7  and  C5_8 
REMARK    3  A    between atoms: N2_9  and  C6_11 
REMARK    4  A    between atoms: C9_22  and  N7_23 
ROOT
HETATM    1  C6  UNL     1      16.929  46.899 -52.303  1.00  0.00     0.157 A 
HETATM    2  N3  UNL     1      18.250  47.166 -51.940  1.00  0.00    -0.174 N 
ATOM      3  H3  UNL     1      18.435  47.573 -51.023  1.00  0.00     0.186 HD
HETATM    4  C7  UNL     1      19.266  46.911 -52.737  1.00  0.00     0.678 A 
HETATM    5  N4  UNL     1      20.512  47.121 -52.381  1.00  0.00    -0.234 N 
ATOM      6  H41 UNL     1      21.299  46.923 -52.999  1.00  0.00     0.174 HD
ATOM      7  H42 UNL     1      20.649  47.524 -51.453  1.00  0.00     0.174 HD
HETATM    8  N5  UNL     1      19.081  46.366 -53.994  1.00  0.00    -0.176 N 
ATOM      9  H5  UNL     1      19.876  46.174 -54.603  1.00  0.00     0.185 HD
HETATM   10  C8  UNL     1      17.843  46.100 -54.388  1.00  0.00     0.168 A 
HETATM   11  N6  UNL     1      17.563  45.551 -55.691  1.00  0.00    -0.079 NA
HETATM   12  C9  UNL     1      16.800  46.363 -53.563  1.00  0.00     0.188 A 
ENDROOT
BRANCH   1  13
HETATM   13  N2  UNL     1      16.030  47.103 -51.517  1.00  0.00    -0.347 N 
HETATM   14  C5  UNL     1      15.195  47.909 -50.818  1.00  0.00     0.122 C 
ATOM     15  H2  UNL     1      15.753  46.165 -51.226  1.00  0.00     0.167 HD
BRANCH  14  16
HETATM   16  C4  UNL     1      14.759  47.440 -49.451  1.00  0.00     0.091 A 
HETATM   17  N1  UNL     1      13.579  47.273 -48.905  1.00  0.00    -0.335 N 
HETATM   18  C3  UNL     1      13.633  46.530 -47.761  1.00  0.00     0.155 A 
ATOM     19  H1  UNL     1      12.717  47.656 -49.292  1.00  0.00     0.168 HD
HETATM   20  N9  UNL     1      14.951  46.223 -47.593  1.00  0.00    -0.321 N 
HETATM   21  C10 UNL     1      15.652  46.761 -48.603  1.00  0.00     0.148 A 
HETATM   22  C11 UNL     1      15.574  45.510 -46.504  1.00  0.00     0.159 C 
HETATM   23  N8  UNL     1      17.061  46.784 -48.824  1.00  0.00    -0.080 NA
BRANCH  18  24
HETATM   24  C2  UNL     1      12.519  46.085 -46.955  1.00  0.00     0.189 C 
HETATM   25  C1  UNL     1      12.088  46.649 -45.675  1.00  0.00     0.100 C 
HETATM   26  O1  UNL     1      11.835  45.099 -47.401  1.00  0.00    -0.290 OA
ENDBRANCH  18  24
ENDBRANCH  14  16
ENDBRANCH   1  13
BRANCH  12  27
HETATM   27  N7  UNL     1      15.464  46.106 -54.054  1.00  0.00    -0.108 N 
HETATM   28  O2  UNL     1      14.770  45.306 -53.398  1.00  0.00    -0.532 OA
HETATM   29  O3  UNL     1      14.959  46.688 -55.179  1.00  0.00    -0.532 OA
ENDBRANCH  12  27
TORSDOF 4
ENDMDL
MODEL 3
REMARK VINA RESULT: -7.501900481      2.329      7.101
REMARK  4 active torsions:
REMARK  status: ('A' for Active; 'I' for Inactive)
REMARK    1  A    between atoms: C2_2  and  C3_4 
REMARK    2  A    between atoms: C4_7  and  C5_8 
REMARK    3  A    between atoms: N2_9  and  C6_11 
REMARK    4  A    between atoms: C9_22  and  N7_23 
ROOT
HETATM    1  C6  UNL     1      14.870  46.282 -49.138  1.00  0.00     0.157 A 
HETATM    2  N3  UNL     1      14.899  46.565 -47.771  1.00  0.00    -0.174 N 
ATOM      3  H3  UNL     1      15.724  47.021 -47.381  1.00  0.00     0.186 HD
HETATM    4  C7  UNL     1      13.901  46.264 -46.968  1.00  0.00     0.678 A 
HETATM    5  N4  UNL     1      13.908  46.566 -45.690  1.00  0.00    -0.234 N 
ATOM      6  H41 UNL     1      13.134  46.333 -45.068  1.00  0.00     0.174 HD
ATOM      7  H42 UNL     1      14.750  47.028 -45.346  1.00  0.00     0.174 HD
HETATM    8  N5  UNL     1      12.760  45.638 -47.434  1.00  0.00    -0.176 N 
ATOM      9  H5  UNL     1      11.994  45.408 -46.801  1.00  0.00     0.185 HD
HETATM   10  C8  UNL     1      12.687  45.343 -48.724  1.00  0.00     0.168 A 
HETATM   11  N6  UNL     1      11.541  44.672 -49.286  1.00  0.00    -0.079 NA
HETATM   12  C9  UNL     1      13.717  45.657 -49.549  1.00  0.00     0.188 A 
ENDROOT
BRANCH   1  13
HETATM   13  N2  UNL     1      15.790  46.624 -49.849  1.00  0.00    -0.347 N 
HETATM   14  C5  UNL     1      16.598  47.551 -50.416  1.00  0.00     0.122 C 
ATOM     15  H2  UNL     1      16.147  45.742 -50.216  1.00  0.00     0.167 HD
BRANCH  14  16
HETATM   16  C4  UNL     1      17.134  47.255 -51.796  1.00  0.00     0.091 A 
HETATM   17  N1  UNL     1      16.556  47.142 -52.967  1.00  0.00    -0.335 N 
HETATM   18  C3  UNL     1      17.450  47.184 -53.998  1.00  0.00     0.155 A 
ATOM     19  H1  UNL     1      15.550  47.035 -53.094  1.00  0.00     0.168 HD
HETATM   20  N9  UNL     1      18.671  47.329 -53.409  1.00  0.00    -0.321 N 
HETATM   21  C10 UNL     1      18.507  47.375 -52.078  1.00  0.00     0.148 A 
HETATM   22  C11 UNL     1      19.971  47.360 -54.036  1.00  0.00     0.159 C 
HETATM   23  N8  UNL     1      19.483  47.437 -51.040  1.00  0.00    -0.080 NA
BRANCH  18  24
HETATM   24  C2  UNL     1      17.154  47.174 -55.412  1.00  0.00     0.189 C 
HETATM   25  C1  UNL     1      16.569  48.268 -56.190  1.00  0.00     0.100 C 
HETATM   26  O1  UNL     1      17.430  46.103 -56.057  1.00  0.00    -0.290 OA
ENDBRANCH  18  24
ENDBRANCH  14  16
ENDBRANCH   1  13
BRANCH  12  27
HETATM   27  N7  UNL     1      13.617  45.269 -50.939  1.00  0.00    -0.108 N 
HETATM   28  O2  UNL     1      13.332  46.169 -51.752  1.00  0.00    -0.532 OA
HETATM   29  O3  UNL     1      13.811  43.991 -51.372  1.00  0.00    -0.532 OA
ENDBRANCH  12  27
TORSDOF 4
ENDMDL
MODEL 4
REMARK VINA RESULT: -7.481906764      1.646      2.030
REMARK  4 active torsions:
REMARK  status: ('A' for Active; 'I' for Inactive)
REMARK    1  A    between atoms: C2_2  and  C3_4 
REMARK    2  A    between atoms: C4_7  and  C5_8 
REMARK    3  A    between atoms: N2_9  and  C6_11 
REMARK    4  A    between atoms: C9_22  and  N7_23 
ROOT
HETATM    1  C6  UNL     1      17.055  46.064 -52.578  1.00  0.00     0.157 A 
HETATM    2  N3  UNL     1      18.285  45.738 -52.004  1.00  0.00    -0.174 N 
ATOM      3  H3  UNL     1      18.307  45.423 -51.035  1.00  0.00     0.186 HD
HETATM    4  C7  UNL     1      19.418  45.825 -52.669  1.00  0.00     0.678 A 
HETATM    5  N4  UNL     1      20.571  45.479 -52.145  1.00  0.00    -0.234 N 
ATOM      6  H41 UNL     1      21.449  45.546 -52.660  1.00  0.00     0.174 HD
ATOM      7  H42 UNL     1      20.544  45.163 -51.175  1.00  0.00     0.174 HD
HETATM    8  N5  UNL     1      19.455  46.253 -53.983  1.00  0.00    -0.176 N 
ATOM      9  H5  UNL     1      20.340  46.317 -54.487  1.00  0.00     0.185 HD
HETATM   10  C8  UNL     1      18.313  46.579 -54.571  1.00  0.00     0.168 A 
HETATM   11  N6  UNL     1      18.268  47.055 -55.931  1.00  0.00    -0.079 NA
HETATM   12  C9  UNL     1      17.148  46.487 -53.882  1.00  0.00     0.188 A 
ENDROOT
BRANCH   1  13
HETATM   13  N2  UNL     1      16.032  45.920 -51.944  1.00  0.00    -0.347 N 
HETATM   14  C5  UNL     1      14.685  45.849 -51.825  1.00  0.00     0.122 C 
ATOM     15  H2  UNL     1      16.362  45.774 -50.991  1.00  0.00     0.167 HD
BRANCH  14  16
HETATM   16  C4  UNL     1      14.074  46.338 -50.533  1.00  0.00     0.091 A 
HETATM   17  N1  UNL     1      13.534  45.715 -49.515  1.00  0.00    -0.335 N 
HETATM   18  C3  UNL     1      13.400  46.520 -48.421  1.00  0.00     0.155 A 
ATOM     19  H1  UNL     1      13.246  44.737 -49.538  1.00  0.00     0.168 HD
HETATM   20  N9  UNL     1      13.893  47.732 -48.804  1.00  0.00    -0.321 N 
HETATM   21  C10 UNL     1      14.308  47.648 -50.077  1.00  0.00     0.148 A 
HETATM   22  C11 UNL     1      13.929  48.964 -48.051  1.00  0.00     0.159 C 
HETATM   23  N8  UNL     1      14.819  48.663 -50.938  1.00  0.00    -0.080 NA
BRANCH  18  24
HETATM   24  C2  UNL     1      12.926  46.140 -47.109  1.00  0.00     0.189 C 
HETATM   25  C1  UNL     1      13.549  46.471 -45.826  1.00  0.00     0.100 C 
HETATM   26  O1  UNL     1      11.853  45.444 -47.057  1.00  0.00    -0.290 OA
ENDBRANCH  18  24
ENDBRANCH  14  16
ENDBRANCH   1  13
BRANCH  12  27
HETATM   27  N7  UNL     1      15.932  46.904 -54.546  1.00  0.00    -0.108 N 
HETATM   28  O2  UNL     1      15.673  48.121 -54.528  1.00  0.00    -0.532 OA
HETATM   29  O3  UNL     1      15.085  46.032 -55.166  1.00  0.00    -0.532 OA
ENDBRANCH  12  27
TORSDOF 4
ENDMDL
MODEL 5
REMARK VINA RESULT: -7.481862975      2.250      2.943
REMARK  4 active torsions:
REMARK  status: ('A' for Active; 'I' for Inactive)
REMARK    1  A    between atoms: C2_2  and  C3_4 
REMARK    2  A    between atoms: C4_7  and  C5_8 
REMARK    3  A    between atoms: N2_9  and  C6_11 
REMARK    4  A    between atoms: C9_22  and  N7_23 
ROOT
HETATM    1  C6  UNL     1      17.335  46.222 -52.393  1.00  0.00     0.157 A 
HETATM    2  N3  UNL     1      18.591  45.795 -51.959  1.00  0.00    -0.174 N 
ATOM      3  H3  UNL     1      18.703  45.500 -50.990  1.00  0.00     0.186 HD
HETATM    4  C7  UNL     1      19.638  45.759 -52.758  1.00  0.00     0.678 A 
HETATM    5  N4  UNL     1      20.810  45.319 -52.364  1.00  0.00    -0.234 N 
ATOM      6  H41 UNL     1      21.621  45.291 -52.982  1.00  0.00     0.174 HD
ATOM      7  H42 UNL     1      20.873  45.029 -51.388  1.00  0.00     0.174 HD
HETATM    8  N5  UNL     1      19.553  46.153 -54.080  1.00  0.00    -0.176 N 
ATOM      9  H5  UNL     1      20.372  46.122 -54.688  1.00  0.00     0.185 HD
HETATM   10  C8  UNL     1      18.382  46.572 -54.538  1.00  0.00     0.168 A 
HETATM   11  N6  UNL     1      18.215  47.019 -55.898  1.00  0.00    -0.079 NA
HETATM   12  C9  UNL     1      17.306  46.605 -53.713  1.00  0.00     0.188 A 
ENDROOT
BRANCH   1  13
HETATM   13  N2  UNL     1      16.388  46.189 -51.637  1.00  0.00    -0.347 N 
HETATM   14  C5  UNL     1      15.310  46.737 -51.027  1.00  0.00     0.122 C 
ATOM     15  H2  UNL     1      16.421  45.244 -51.257  1.00  0.00     0.167 HD
BRANCH  14  16
HETATM   16  C4  UNL     1      14.997  46.276 -49.624  1.00  0.00     0.091 A 
HETATM   17  N1  UNL     1      15.694  46.275 -48.514  1.00  0.00    -0.335 N 
HETATM   18  C3  UNL     1      14.919  46.064 -47.410  1.00  0.00     0.155 A 
ATOM     19  H1  UNL     1      16.703  46.416 -48.479  1.00  0.00     0.168 HD
HETATM   20  N9  UNL     1      13.649  45.920 -47.885  1.00  0.00    -0.321 N 
HETATM   21  C10 UNL     1      13.669  46.045 -49.220  1.00  0.00     0.148 A 
HETATM   22  C11 UNL     1      12.447  45.610 -47.148  1.00  0.00     0.159 C 
HETATM   23  N8  UNL     1      12.613  45.894 -50.167  1.00  0.00    -0.080 NA
BRANCH  18  24
HETATM   24  C2  UNL     1      15.342  46.084 -46.029  1.00  0.00     0.189 C 
HETATM   25  C1  UNL     1      14.989  47.087 -45.022  1.00  0.00     0.100 C 
HETATM   26  O1  UNL     1      16.103  45.132 -45.638  1.00  0.00    -0.290 OA
ENDBRANCH  18  24
ENDBRANCH  14  16
ENDBRANCH   1  13
BRANCH  12  27
HETATM   27  N7  UNL     1      16.061  47.120 -54.240  1.00  0.00    -0.108 N 
HETATM   28  O2  UNL     1      15.884  48.349 -54.158  1.00  0.00    -0.532 OA
HETATM   29  O3  UNL     1      15.104  46.325 -54.799  1.00  0.00    -0.532 OA
ENDBRANCH  12  27
TORSDOF 4
ENDMDL
