MODEL 1
REMARK VINA RESULT: -8.394921488      0.000      0.000
REMARK  16 active torsions:
REMARK  status: ('A' for Active; 'I' for Inactive)
REMARK    1  A    between atoms: C3_4  and  C4_5 
REMARK    2  A    between atoms: C4_5  and  O1_6 
REMARK    3  A    between atoms: O1_6  and  C5_7 
REMARK    4  A    between atoms: C5_7  and  C6_8 
REMARK    5  A    between atoms: C6_8  and  O2_9 
REMARK    6  A    between atoms: C6_8  and  C7_11 
REMARK       I    between atoms: N5_18  and  C8_19 
REMARK    7  A    between atoms: C8_19  and  C9_21 
REMARK    8  A    between atoms: C9_21  and  O5_22 
REMARK    9  A    between atoms: C9_21  and  C10_24 
REMARK   10  A    between atoms: C11_28  and  C12_29 
REMARK   11  A    between atoms: C13_31  and  C14_32 
REMARK   12  A    between atoms: C15_38  and  C16_39 
REMARK   13  A    between atoms: C18_45  and  O8_46 
REMARK   14  A    between atoms: C19_48  and  O9_49 
REMARK   15  A    between atoms: C21_53  and  O11_54 
REMARK   16  A    between atoms: C22_56  and  O12_57 
ROOT
HETATM    1  N1  UNL     1      35.266  -2.293  22.631  1.00  0.00    -0.190 NA
HETATM    2  C1  UNL     1      36.408  -2.094  22.629  1.00  0.00     0.122 C 
HETATM    3  C2  UNL     1      37.824  -1.862  22.605  1.00  0.00     0.167 A 
HETATM    4  C3  UNL     1      38.434  -0.740  23.192  1.00  0.00     0.090 A 
HETATM    5  N3  UNL     1      39.732  -0.931  22.933  1.00  0.00    -0.285 N 
ATOM      6  H3  UNL     1      40.480  -0.299  23.218  1.00  0.00     0.188 HD
HETATM    7  N4  UNL     1      39.915  -2.064  22.249  1.00  0.00    -0.232 N 
ATOM      8  H4  UNL     1      40.817  -2.422  21.937  1.00  0.00     0.209 HD
HETATM    9  N5  UNL     1      38.754  -2.648  22.038  1.00  0.00    -0.195 N 
HETATM   10  C8  UNL     1      38.479  -3.871  21.355  1.00  0.00     0.278 C 
HETATM   11  O4  UNL     1      37.296  -4.287  21.250  1.00  0.00    -0.268 OA
ENDROOT
BRANCH   4  12
HETATM   12  C4  UNL     1      37.699   0.340  23.894  1.00  0.00     0.229 C 
BRANCH  12  13
HETATM   13  O1  UNL     1      37.616   1.449  23.148  1.00  0.00    -0.382 OA
BRANCH  13  14
HETATM   14  C5  UNL     1      37.523   2.684  23.658  1.00  0.00     0.209 C 
BRANCH  14  15
HETATM   15  C6  UNL     1      36.327   3.514  23.268  1.00  0.00     0.230 C 
BRANCH  15  16
HETATM   16  O2  UNL     1      35.698   2.929  22.187  1.00  0.00    -0.384 OA
ATOM     17  H2  UNL     1      34.799   3.232  22.145  1.00  0.00     0.210 HD
ENDBRANCH  15  16
BRANCH  15  18
HETATM   18  C7  UNL     1      35.399   3.674  24.429  1.00  0.00     0.262 C 
HETATM   19  N2  UNL     1      35.004   2.570  25.221  1.00  0.00    -0.060 NA
HETATM   20  O3  UNL     1      34.938   4.808  24.740  1.00  0.00    -0.274 OA
ENDBRANCH  15  18
ENDBRANCH  14  15
ENDBRANCH  13  14
ENDBRANCH  12  13
ENDBRANCH   4  12
BRANCH  10  21
HETATM   21  C9  UNL     1      39.536  -4.701  20.747  1.00  0.00     0.268 C 
BRANCH  21  22
HETATM   22  O5  UNL     1      40.350  -3.888  19.980  1.00  0.00    -0.382 OA
ATOM     23  H5  UNL     1      40.699  -4.400  19.259  1.00  0.00     0.210 HD
ENDBRANCH  21  22
BRANCH  21  24
HETATM   24  C10 UNL     1      38.823  -5.723  19.854  1.00  0.00     0.360 C 
HETATM   25  N6  UNL     1      38.231  -5.016  18.762  1.00  0.00    -0.033 N 
HETATM   26  C11 UNL     1      37.640  -5.950  17.807  1.00  0.00     0.279 C 
ATOM     27  H62 UNL     1      37.555  -4.323  19.081  1.00  0.00     0.281 HD
ATOM     28  H61 UNL     1      38.896  -4.386  18.314  1.00  0.00     0.281 HD
HETATM   29  C22 UNL     1      38.757  -6.897  17.369  1.00  0.00     0.179 C 
HETATM   30  C23 UNL     1      39.157  -7.645  18.642  1.00  0.00     0.205 C 
HETATM   31  O13 UNL     1      39.716  -6.718  19.486  1.00  0.00    -0.354 OA
BRANCH  26  32
HETATM   32  C12 UNL     1      37.219  -5.168  16.609  1.00  0.00     0.124 A 
HETATM   33  O6  UNL     1      37.534  -3.883  16.507  1.00  0.00    -0.304 OA
HETATM   34  C13 UNL     1      37.186  -3.146  15.482  1.00  0.00     0.144 A 
HETATM   35  C19 UNL     1      36.461  -3.702  14.447  1.00  0.00     0.155 A 
HETATM   36  C20 UNL     1      36.109  -5.025  14.500  1.00  0.00     0.243 A 
HETATM   37  O10 UNL     1      35.453  -5.530  13.564  1.00  0.00    -0.282 OA
HETATM   38  C21 UNL     1      36.510  -5.759  15.620  1.00  0.00     0.151 A 
BRANCH  34  39
HETATM   39  C14 UNL     1      37.560  -1.747  15.428  1.00  0.00     0.124 A 
HETATM   40  N7  UNL     1      36.840  -0.701  14.970  1.00  0.00    -0.237 N 
HETATM   41  O7  UNL     1      37.526   0.388  15.098  1.00  0.00    -0.156 OA
ATOM     42  H7  UNL     1      35.899  -0.761  14.583  1.00  0.00     0.197 HD
HETATM   43  N8  UNL     1      38.674   0.112  15.622  1.00  0.00    -0.237 N 
HETATM   44  C15 UNL     1      38.753  -1.227  15.853  1.00  0.00     0.119 A 
ATOM     45  H8  UNL     1      39.407   0.790  15.830  1.00  0.00     0.197 HD
BRANCH  44  46
HETATM   46  C16 UNL     1      39.880  -1.946  16.429  1.00  0.00     0.116 A 
HETATM   47  N9  UNL     1      40.467  -3.083  16.040  1.00  0.00    -0.347 N 
HETATM   48  C17 UNL     1      41.465  -3.342  16.898  1.00  0.00     0.183 A 
ATOM     49  H9  UNL     1      40.203  -3.651  15.235  1.00  0.00     0.167 HD
HETATM   50  N10 UNL     1      41.541  -2.402  17.836  1.00  0.00    -0.331 N 
HETATM   51  C18 UNL     1      40.556  -1.521  17.556  1.00  0.00     0.170 A 
ATOM     52  H10 UNL     1      42.206  -2.355  18.608  1.00  0.00     0.168 HD
BRANCH  51  53
HETATM   53  O8  UNL     1      40.343  -0.396  18.345  1.00  0.00    -0.344 OA
ATOM     54  H8  UNL     1      40.905  -0.003  19.004  1.00  0.00     0.219 HD
ENDBRANCH  51  53
ENDBRANCH  44  46
ENDBRANCH  34  39
BRANCH  35  55
HETATM   55  O9  UNL     1      36.105  -2.888  13.364  1.00  0.00    -0.355 OA
ATOM     56  H9  UNL     1      35.340  -2.331  13.445  1.00  0.00     0.218 HD
ENDBRANCH  35  55
BRANCH  38  57
HETATM   57  O11 UNL     1      36.140  -7.083  15.626  1.00  0.00    -0.355 OA
ATOM     58  H11 UNL     1      36.584  -7.756  16.128  1.00  0.00     0.218 HD
ENDBRANCH  38  57
ENDBRANCH  26  32
BRANCH  29  59
HETATM   59  O12 UNL     1      39.834  -6.198  16.862  1.00  0.00    -0.391 OA
ATOM     60  H12 UNL     1      40.498  -6.060  17.528  1.00  0.00     0.210 HD
ENDBRANCH  29  59
ENDBRANCH  21  24
ENDBRANCH  10  21
TORSDOF 16
ENDMDL
MODEL 2
REMARK VINA RESULT: -8.283641090      1.467      2.050
REMARK  16 active torsions:
REMARK  status: ('A' for Active; 'I' for Inactive)
REMARK    1  A    between atoms: C3_4  and  C4_5 
REMARK    2  A    between atoms: C4_5  and  O1_6 
REMARK    3  A    between atoms: O1_6  and  C5_7 
REMARK    4  A    between atoms: C5_7  and  C6_8 
REMARK    5  A    between atoms: C6_8  and  O2_9 
REMARK    6  A    between atoms: C6_8  and  C7_11 
REMARK       I    between atoms: N5_18  and  C8_19 
REMARK    7  A    between atoms: C8_19  and  C9_21 
REMARK    8  A    between atoms: C9_21  and  O5_22 
REMARK    9  A    between atoms: C9_21  and  C10_24 
REMARK   10  A    between atoms: C11_28  and  C12_29 
REMARK   11  A    between atoms: C13_31  and  C14_32 
REMARK   12  A    between atoms: C15_38  and  C16_39 
REMARK   13  A    between atoms: C18_45  and  O8_46 
REMARK   14  A    between atoms: C19_48  and  O9_49 
REMARK   15  A    between atoms: C21_53  and  O11_54 
REMARK   16  A    between atoms: C22_56  and  O12_57 
ROOT
HETATM    1  N1  UNL     1      35.326  -2.256  22.642  1.00  0.00    -0.190 NA
HETATM    2  C1  UNL     1      36.482  -2.172  22.618  1.00  0.00     0.122 C 
HETATM    3  C2  UNL     1      37.913  -2.083  22.569  1.00  0.00     0.167 A 
HETATM    4  C3  UNL     1      38.639  -0.993  23.077  1.00  0.00     0.090 A 
HETATM    5  N3  UNL     1      39.908  -1.327  22.821  1.00  0.00    -0.285 N 
ATOM      6  H3  UNL     1      40.719  -0.756  23.059  1.00  0.00     0.188 HD
HETATM    7  N4  UNL     1      39.969  -2.515  22.210  1.00  0.00    -0.232 N 
ATOM      8  H4  UNL     1      40.827  -2.980  21.916  1.00  0.00     0.209 HD
HETATM    9  N5  UNL     1      38.753  -2.993  22.047  1.00  0.00    -0.195 N 
HETATM   10  C8  UNL     1      38.350  -4.224  21.447  1.00  0.00     0.278 C 
HETATM   11  O4  UNL     1      37.131  -4.526  21.377  1.00  0.00    -0.268 OA
ENDROOT
BRANCH   4  12
HETATM   12  C4  UNL     1      38.024   0.197  23.713  1.00  0.00     0.229 C 
BRANCH  12  13
HETATM   13  O1  UNL     1      37.482   1.020  22.806  1.00  0.00    -0.382 OA
BRANCH  13  14
HETATM   14  C5  UNL     1      38.184   1.915  22.098  1.00  0.00     0.209 C 
BRANCH  14  15
HETATM   15  C6  UNL     1      37.969   1.951  20.607  1.00  0.00     0.230 C 
BRANCH  15  16
HETATM   16  O2  UNL     1      37.690   3.246  20.218  1.00  0.00    -0.384 OA
ATOM     17  H2  UNL     1      36.752   3.394  20.267  1.00  0.00     0.210 HD
ENDBRANCH  15  16
BRANCH  15  18
HETATM   18  C7  UNL     1      39.162   1.403  19.892  1.00  0.00     0.262 C 
HETATM   19  N2  UNL     1      40.315   0.975  20.591  1.00  0.00    -0.060 NA
HETATM   20  O3  UNL     1      39.175   1.304  18.633  1.00  0.00    -0.274 OA
ENDBRANCH  15  18
ENDBRANCH  14  15
ENDBRANCH  13  14
ENDBRANCH  12  13
ENDBRANCH   4  12
BRANCH  10  21
HETATM   21  C9  UNL     1      39.311  -5.191  20.886  1.00  0.00     0.268 C 
BRANCH  21  22
HETATM   22  O5  UNL     1      40.294  -4.495  20.205  1.00  0.00    -0.382 OA
ATOM     23  H5  UNL     1      40.380  -4.865  19.334  1.00  0.00     0.210 HD
ENDBRANCH  21  22
BRANCH  21  24
HETATM   24  C10 UNL     1      38.520  -6.072  19.912  1.00  0.00     0.360 C 
HETATM   25  N6  UNL     1      38.060  -5.242  18.843  1.00  0.00    -0.033 N 
HETATM   26  C11 UNL     1      37.403  -6.046  17.816  1.00  0.00     0.279 C 
ATOM     27  H62 UNL     1      37.457  -4.491  19.178  1.00  0.00     0.281 HD
ATOM     28  H61 UNL     1      38.811  -4.672  18.455  1.00  0.00     0.281 HD
HETATM   29  C22 UNL     1      38.418  -7.095  17.362  1.00  0.00     0.179 C 
HETATM   30  C23 UNL     1      38.676  -7.952  18.602  1.00  0.00     0.205 C 
HETATM   31  O13 UNL     1      39.304  -7.145  19.517  1.00  0.00    -0.354 OA
BRANCH  26  32
HETATM   32  C12 UNL     1      37.126  -5.156  16.652  1.00  0.00     0.124 A 
HETATM   33  O6  UNL     1      37.627  -3.929  16.616  1.00  0.00    -0.304 OA
HETATM   34  C13 UNL     1      37.411  -3.102  15.624  1.00  0.00     0.144 A 
HETATM   35  C19 UNL     1      36.634  -3.497  14.553  1.00  0.00     0.155 A 
HETATM   36  C20 UNL     1      36.091  -4.756  14.537  1.00  0.00     0.243 A 
HETATM   37  O10 UNL     1      35.387  -5.115  13.569  1.00  0.00    -0.282 OA
HETATM   38  C21 UNL     1      36.357  -5.591  15.625  1.00  0.00     0.151 A 
BRANCH  34  39
HETATM   39  C14 UNL     1      37.987  -1.772  15.642  1.00  0.00     0.124 A 
HETATM   40  N7  UNL     1      37.426  -0.608  15.255  1.00  0.00    -0.237 N 
HETATM   41  O7  UNL     1      38.265   0.360  15.433  1.00  0.00    -0.156 OA
ATOM     42  H7  UNL     1      36.483  -0.506  14.880  1.00  0.00     0.197 HD
HETATM   43  N8  UNL     1      39.365  -0.112  15.922  1.00  0.00    -0.237 N 
HETATM   44  C15 UNL     1      39.246  -1.458  16.077  1.00  0.00     0.119 A 
ATOM     45  H8  UNL     1      40.190   0.439  16.156  1.00  0.00     0.197 HD
BRANCH  44  46
HETATM   46  C16 UNL     1      40.260  -2.368  16.594  1.00  0.00     0.116 A 
HETATM   47  N9  UNL     1      40.566  -3.616  16.226  1.00  0.00    -0.347 N 
HETATM   48  C17 UNL     1      41.573  -4.036  17.006  1.00  0.00     0.183 A 
ATOM     49  H9  UNL     1      40.115  -4.153  15.485  1.00  0.00     0.167 HD
HETATM   50  N10 UNL     1      41.929  -3.091  17.873  1.00  0.00    -0.331 N 
HETATM   51  C18 UNL     1      41.117  -2.041  17.626  1.00  0.00     0.170 A 
ATOM     52  H10 UNL     1      42.664  -3.148  18.578  1.00  0.00     0.168 HD
BRANCH  51  53
HETATM   53  O8  UNL     1      41.213  -0.863  18.359  1.00  0.00    -0.344 OA
ATOM     54  H8  UNL     1      41.777  -0.651  19.094  1.00  0.00     0.219 HD
ENDBRANCH  51  53
ENDBRANCH  44  46
ENDBRANCH  34  39
BRANCH  35  55
HETATM   55  O9  UNL     1      36.423  -2.592  13.506  1.00  0.00    -0.355 OA
ATOM     56  H9  UNL     1      36.945  -2.676  12.718  1.00  0.00     0.218 HD
ENDBRANCH  35  55
BRANCH  38  57
HETATM   57  O11 UNL     1      35.797  -6.845  15.563  1.00  0.00    -0.355 OA
ATOM     58  H11 UNL     1      34.891  -7.011  15.331  1.00  0.00     0.218 HD
ENDBRANCH  38  57
ENDBRANCH  26  32
BRANCH  29  59
HETATM   59  O12 UNL     1      39.589  -6.503  16.933  1.00  0.00    -0.391 OA
ATOM     60  H12 UNL     1      39.887  -6.884  16.115  1.00  0.00     0.210 HD
ENDBRANCH  29  59
ENDBRANCH  21  24
ENDBRANCH  10  21
TORSDOF 16
ENDMDL
MODEL 3
REMARK VINA RESULT: -7.995522730      6.236     12.659
REMARK  16 active torsions:
REMARK  status: ('A' for Active; 'I' for Inactive)
REMARK    1  A    between atoms: C3_4  and  C4_5 
REMARK    2  A    between atoms: C4_5  and  O1_6 
REMARK    3  A    between atoms: O1_6  and  C5_7 
REMARK    4  A    between atoms: C5_7  and  C6_8 
REMARK    5  A    between atoms: C6_8  and  O2_9 
REMARK    6  A    between atoms: C6_8  and  C7_11 
REMARK       I    between atoms: N5_18  and  C8_19 
REMARK    7  A    between atoms: C8_19  and  C9_21 
REMARK    8  A    between atoms: C9_21  and  O5_22 
REMARK    9  A    between atoms: C9_21  and  C10_24 
REMARK   10  A    between atoms: C11_28  and  C12_29 
REMARK   11  A    between atoms: C13_31  and  C14_32 
REMARK   12  A    between atoms: C15_38  and  C16_39 
REMARK   13  A    between atoms: C18_45  and  O8_46 
REMARK   14  A    between atoms: C19_48  and  O9_49 
REMARK   15  A    between atoms: C21_53  and  O11_54 
REMARK   16  A    between atoms: C22_56  and  O12_57 
ROOT
HETATM    1  N1  UNL     1      37.945   4.518  21.478  1.00  0.00    -0.190 NA
HETATM    2  C1  UNL     1      37.326   4.210  22.409  1.00  0.00     0.122 C 
HETATM    3  C2  UNL     1      36.541   3.843  23.553  1.00  0.00     0.167 A 
HETATM    4  C3  UNL     1      36.766   2.676  24.304  1.00  0.00     0.090 A 
HETATM    5  N3  UNL     1      35.822   2.738  25.249  1.00  0.00    -0.285 N 
ATOM      6  H3  UNL     1      35.688   2.042  25.982  1.00  0.00     0.188 HD
HETATM    7  N4  UNL     1      35.078   3.839  25.102  1.00  0.00    -0.232 N 
ATOM      8  H4  UNL     1      34.298   4.105  25.702  1.00  0.00     0.209 HD
HETATM    9  N5  UNL     1      35.506   4.529  24.065  1.00  0.00    -0.195 N 
HETATM   10  C8  UNL     1      35.009   5.762  23.546  1.00  0.00     0.278 C 
HETATM   11  O4  UNL     1      35.547   6.288  22.537  1.00  0.00    -0.268 OA
ENDROOT
BRANCH   4  12
HETATM   12  C4  UNL     1      37.825   1.682  24.007  1.00  0.00     0.229 C 
BRANCH  12  13
HETATM   13  O1  UNL     1      37.400   0.746  23.149  1.00  0.00    -0.382 OA
BRANCH  13  14
HETATM   14  C5  UNL     1      36.766  -0.374  23.521  1.00  0.00     0.209 C 
BRANCH  14  15
HETATM   15  C6  UNL     1      37.423  -1.690  23.199  1.00  0.00     0.230 C 
BRANCH  15  16
HETATM   16  O2  UNL     1      38.504  -1.878  24.037  1.00  0.00    -0.384 OA
ATOM     17  H2  UNL     1      39.206  -2.298  23.554  1.00  0.00     0.210 HD
ENDBRANCH  15  16
BRANCH  15  18
HETATM   18  C7  UNL     1      36.437  -2.809  23.309  1.00  0.00     0.262 C 
HETATM   19  N2  UNL     1      35.393  -2.973  22.369  1.00  0.00    -0.060 NA
HETATM   20  O3  UNL     1      36.510  -3.648  24.251  1.00  0.00    -0.274 OA
ENDBRANCH  15  18
ENDBRANCH  14  15
ENDBRANCH  13  14
ENDBRANCH  12  13
ENDBRANCH   4  12
BRANCH  10  21
HETATM   21  C9  UNL     1      33.867   6.479  24.144  1.00  0.00     0.268 C 
BRANCH  21  22
HETATM   22  O5  UNL     1      33.059   6.950  23.125  1.00  0.00    -0.382 OA
ATOM     23  H5  UNL     1      33.526   7.631  22.656  1.00  0.00     0.210 HD
ENDBRANCH  21  22
BRANCH  21  24
HETATM   24  C10 UNL     1      34.458   7.654  24.932  1.00  0.00     0.360 C 
HETATM   25  N6  UNL     1      35.866   7.441  25.051  1.00  0.00    -0.033 N 
HETATM   26  C11 UNL     1      36.506   8.590  25.685  1.00  0.00     0.279 C 
ATOM     27  H62 UNL     1      36.078   6.572  25.540  1.00  0.00     0.281 HD
ATOM     28  H61 UNL     1      36.293   7.218  24.152  1.00  0.00     0.281 HD
HETATM   29  C22 UNL     1      36.158   9.813  24.837  1.00  0.00     0.179 C 
HETATM   30  C23 UNL     1      34.638   9.943  24.945  1.00  0.00     0.205 C 
HETATM   31  O13 UNL     1      34.101   8.846  24.320  1.00  0.00    -0.354 OA
BRANCH  26  32
HETATM   32  C12 UNL     1      37.982   8.391  25.601  1.00  0.00     0.124 A 
HETATM   33  O6  UNL     1      38.510   7.746  24.569  1.00  0.00    -0.304 OA
HETATM   34  C13 UNL     1      39.796   7.536  24.446  1.00  0.00     0.144 A 
HETATM   35  C19 UNL     1      40.667   7.995  25.415  1.00  0.00     0.155 A 
HETATM   36  C20 UNL     1      40.176   8.669  26.503  1.00  0.00     0.243 A 
HETATM   37  O10 UNL     1      40.961   9.084  27.381  1.00  0.00    -0.282 OA
HETATM   38  C21 UNL     1      38.793   8.861  26.577  1.00  0.00     0.151 A 
BRANCH  34  39
HETATM   39  C14 UNL     1      40.314   6.824  23.294  1.00  0.00     0.124 A 
HETATM   40  N7  UNL     1      40.928   5.623  23.254  1.00  0.00    -0.237 N 
HETATM   41  O7  UNL     1      41.236   5.332  22.032  1.00  0.00    -0.156 OA
ATOM     42  H7  UNL     1      41.119   5.034  24.064  1.00  0.00     0.197 HD
HETATM   43  N8  UNL     1      40.853   6.292  21.255  1.00  0.00    -0.237 N 
HETATM   44  C15 UNL     1      40.262   7.265  21.999  1.00  0.00     0.119 A 
ATOM     45  H8  UNL     1      40.975   6.315  20.243  1.00  0.00     0.197 HD
BRANCH  44  46
HETATM   46  C16 UNL     1      39.699   8.515  21.509  1.00  0.00     0.116 A 
HETATM   47  N9  UNL     1      40.275   9.709  21.331  1.00  0.00    -0.347 N 
HETATM   48  C17 UNL     1      39.340  10.547  20.861  1.00  0.00     0.183 A 
ATOM     49  H9  UNL     1      41.250   9.940  21.519  1.00  0.00     0.167 HD
HETATM   50  N10 UNL     1      38.169   9.928  20.730  1.00  0.00    -0.331 N 
HETATM   51  C18 UNL     1      38.378   8.655  21.131  1.00  0.00     0.170 A 
ATOM     52  H10 UNL     1      37.294  10.331  20.395  1.00  0.00     0.168 HD
BRANCH  51  53
HETATM   53  O8  UNL     1      37.353   7.716  21.124  1.00  0.00    -0.344 OA
ATOM     54  H8  UNL     1      36.481   7.768  21.499  1.00  0.00     0.219 HD
ENDBRANCH  51  53
ENDBRANCH  44  46
ENDBRANCH  34  39
BRANCH  35  55
HETATM   55  O9  UNL     1      42.037   7.757  25.254  1.00  0.00    -0.355 OA
ATOM     56  H9  UNL     1      42.638   8.095  25.907  1.00  0.00     0.218 HD
ENDBRANCH  35  55
BRANCH  38  57
HETATM   57  O11 UNL     1      38.347   9.547  27.683  1.00  0.00    -0.355 OA
ATOM     58  H11 UNL     1      38.839   9.626  28.492  1.00  0.00     0.218 HD
ENDBRANCH  38  57
ENDBRANCH  26  32
BRANCH  29  59
HETATM   59  O12 UNL     1      36.533   9.630  23.521  1.00  0.00    -0.391 OA
ATOM     60  H12 UNL     1      37.404   9.974  23.361  1.00  0.00     0.210 HD
ENDBRANCH  29  59
ENDBRANCH  21  24
ENDBRANCH  10  21
TORSDOF 16
ENDMDL
MODEL 4
REMARK VINA RESULT: -7.959947352      4.980     11.678
REMARK  16 active torsions:
REMARK  status: ('A' for Active; 'I' for Inactive)
REMARK    1  A    between atoms: C3_4  and  C4_5 
REMARK    2  A    between atoms: C4_5  and  O1_6 
REMARK    3  A    between atoms: O1_6  and  C5_7 
REMARK    4  A    between atoms: C5_7  and  C6_8 
REMARK    5  A    between atoms: C6_8  and  O2_9 
REMARK    6  A    between atoms: C6_8  and  C7_11 
REMARK       I    between atoms: N5_18  and  C8_19 
REMARK    7  A    between atoms: C8_19  and  C9_21 
REMARK    8  A    between atoms: C9_21  and  O5_22 
REMARK    9  A    between atoms: C9_21  and  C10_24 
REMARK   10  A    between atoms: C11_28  and  C12_29 
REMARK   11  A    between atoms: C13_31  and  C14_32 
REMARK   12  A    between atoms: C15_38  and  C16_39 
REMARK   13  A    between atoms: C18_45  and  O8_46 
REMARK   14  A    between atoms: C19_48  and  O9_49 
REMARK   15  A    between atoms: C21_53  and  O11_54 
REMARK   16  A    between atoms: C22_56  and  O12_57 
ROOT
HETATM    1  N1  UNL     1      41.322  -1.369  22.364  1.00  0.00    -0.190 NA
HETATM    2  C1  UNL     1      40.184  -1.263  22.559  1.00  0.00     0.122 C 
HETATM    3  C2  UNL     1      38.774  -1.117  22.781  1.00  0.00     0.167 A 
HETATM    4  C3  UNL     1      37.986  -2.088  23.423  1.00  0.00     0.090 A 
HETATM    5  N3  UNL     1      36.764  -1.545  23.408  1.00  0.00    -0.285 N 
ATOM      6  H3  UNL     1      35.929  -1.983  23.798  1.00  0.00     0.188 HD
HETATM    7  N4  UNL     1      36.787  -0.348  22.813  1.00  0.00    -0.232 N 
ATOM      8  H4  UNL     1      35.977   0.258  22.683  1.00  0.00     0.209 HD
HETATM    9  N5  UNL     1      38.013  -0.070  22.422  1.00  0.00    -0.195 N 
HETATM   10  C8  UNL     1      38.494   1.094  21.750  1.00  0.00     0.278 C 
HETATM   11  O4  UNL     1      39.712   1.196  21.450  1.00  0.00    -0.268 OA
ENDROOT
BRANCH   4  12
HETATM   12  C4  UNL     1      38.505  -3.378  23.937  1.00  0.00     0.229 C 
BRANCH  12  13
HETATM   13  O1  UNL     1      37.758  -4.412  23.528  1.00  0.00    -0.382 OA
BRANCH  13  14
HETATM   14  C5  UNL     1      37.540  -4.710  22.240  1.00  0.00     0.209 C 
BRANCH  14  15
HETATM   15  C6  UNL     1      36.215  -5.331  21.881  1.00  0.00     0.230 C 
BRANCH  15  16
HETATM   16  O2  UNL     1      36.288  -6.698  22.060  1.00  0.00    -0.384 OA
ATOM     17  H2  UNL     1      37.173  -6.992  21.877  1.00  0.00     0.210 HD
ENDBRANCH  15  16
BRANCH  15  18
HETATM   18  C7  UNL     1      35.114  -4.724  22.691  1.00  0.00     0.262 C 
HETATM   19  N2  UNL     1      34.339  -5.497  23.586  1.00  0.00    -0.060 NA
HETATM   20  O3  UNL     1      34.844  -3.494  22.599  1.00  0.00    -0.274 OA
ENDBRANCH  15  18
ENDBRANCH  14  15
ENDBRANCH  13  14
ENDBRANCH  12  13
ENDBRANCH   4  12
BRANCH  10  21
HETATM   21  C9  UNL     1      37.617   2.220  21.375  1.00  0.00     0.268 C 
BRANCH  21  22
HETATM   22  O5  UNL     1      38.275   3.000  20.440  1.00  0.00    -0.382 OA
ATOM     23  H5  UNL     1      37.663   3.639  20.093  1.00  0.00     0.210 HD
ENDBRANCH  21  22
BRANCH  21  24
HETATM   24  C10 UNL     1      37.377   3.027  22.656  1.00  0.00     0.360 C 
HETATM   25  N6  UNL     1      37.375   4.413  22.310  1.00  0.00    -0.033 N 
HETATM   26  C11 UNL     1      37.028   5.231  23.469  1.00  0.00     0.279 C 
ATOM     27  H62 UNL     1      38.261   4.701  21.895  1.00  0.00     0.281 HD
ATOM     28  H61 UNL     1      36.766   4.604  21.515  1.00  0.00     0.281 HD
HETATM   29  C22 UNL     1      35.668   4.738  23.964  1.00  0.00     0.179 C 
HETATM   30  C23 UNL     1      35.913   3.294  24.405  1.00  0.00     0.205 C 
HETATM   31  O13 UNL     1      36.219   2.581  23.273  1.00  0.00    -0.354 OA
BRANCH  26  32
HETATM   32  C12 UNL     1      36.853   6.634  22.997  1.00  0.00     0.124 A 
HETATM   33  O6  UNL     1      35.793   7.337  23.374  1.00  0.00    -0.304 OA
HETATM   34  C13 UNL     1      35.584   8.570  22.986  1.00  0.00     0.144 A 
HETATM   35  C19 UNL     1      36.489   9.194  22.149  1.00  0.00     0.155 A 
HETATM   36  C20 UNL     1      37.603   8.514  21.729  1.00  0.00     0.243 A 
HETATM   37  O10 UNL     1      38.422   9.076  20.972  1.00  0.00    -0.282 OA
HETATM   38  C21 UNL     1      37.769   7.201  22.178  1.00  0.00     0.151 A 
BRANCH  34  39
HETATM   39  C14 UNL     1      34.406   9.287  23.432  1.00  0.00     0.124 A 
HETATM   40  N7  UNL     1      33.402   9.799  22.690  1.00  0.00    -0.237 N 
HETATM   41  O7  UNL     1      32.532  10.363  23.464  1.00  0.00    -0.156 OA
ATOM     42  H7  UNL     1      33.338   9.749  21.674  1.00  0.00     0.197 HD
HETATM   43  N8  UNL     1      32.916  10.248  24.693  1.00  0.00    -0.237 N 
HETATM   44  C15 UNL     1      34.097   9.575  24.735  1.00  0.00     0.119 A 
ATOM     45  H8  UNL     1      32.412  10.605  25.504  1.00  0.00     0.197 HD
BRANCH  44  46
HETATM   46  C16 UNL     1      34.868   9.240  25.924  1.00  0.00     0.116 A 
HETATM   47  N9  UNL     1      35.237   8.048  26.406  1.00  0.00    -0.347 N 
HETATM   48  C17 UNL     1      35.932   8.261  27.532  1.00  0.00     0.183 A 
ATOM     49  H9  UNL     1      35.027   7.141  25.991  1.00  0.00     0.167 HD
HETATM   50  N10 UNL     1      36.024   9.563  27.796  1.00  0.00    -0.331 N 
HETATM   51  C18 UNL     1      35.364  10.188  26.798  1.00  0.00     0.170 A 
ATOM     52  H10 UNL     1      36.497   9.998  28.588  1.00  0.00     0.168 HD
BRANCH  51  53
HETATM   53  O8  UNL     1      35.258  11.574  26.755  1.00  0.00    -0.344 OA
ATOM     54  H8  UNL     1      35.942  12.235  26.772  1.00  0.00     0.219 HD
ENDBRANCH  51  53
ENDBRANCH  44  46
ENDBRANCH  34  39
BRANCH  35  55
HETATM   55  O9  UNL     1      36.239  10.513  21.753  1.00  0.00    -0.355 OA
ATOM     56  H9  UNL     1      35.582  10.671  21.085  1.00  0.00     0.218 HD
ENDBRANCH  35  55
BRANCH  38  57
HETATM   57  O11 UNL     1      38.903   6.562  21.735  1.00  0.00    -0.355 OA
ATOM     58  H11 UNL     1      38.895   5.772  21.207  1.00  0.00     0.218 HD
ENDBRANCH  38  57
ENDBRANCH  26  32
BRANCH  29  59
HETATM   59  O12 UNL     1      34.725   4.781  22.957  1.00  0.00    -0.391 OA
ATOM     60  H12 UNL     1      34.710   5.633  22.536  1.00  0.00     0.210 HD
ENDBRANCH  29  59
ENDBRANCH  21  24
ENDBRANCH  10  21
TORSDOF 16
ENDMDL
MODEL 5
REMARK VINA RESULT: -7.929868458      2.691      8.475
REMARK  16 active torsions:
REMARK  status: ('A' for Active; 'I' for Inactive)
REMARK    1  A    between atoms: C3_4  and  C4_5 
REMARK    2  A    between atoms: C4_5  and  O1_6 
REMARK    3  A    between atoms: O1_6  and  C5_7 
REMARK    4  A    between atoms: C5_7  and  C6_8 
REMARK    5  A    between atoms: C6_8  and  O2_9 
REMARK    6  A    between atoms: C6_8  and  C7_11 
REMARK       I    between atoms: N5_18  and  C8_19 
REMARK    7  A    between atoms: C8_19  and  C9_21 
REMARK    8  A    between atoms: C9_21  and  O5_22 
REMARK    9  A    between atoms: C9_21  and  C10_24 
REMARK   10  A    between atoms: C11_28  and  C12_29 
REMARK   11  A    between atoms: C13_31  and  C14_32 
REMARK   12  A    between atoms: C15_38  and  C16_39 
REMARK   13  A    between atoms: C18_45  and  O8_46 
REMARK   14  A    between atoms: C19_48  and  O9_49 
REMARK   15  A    between atoms: C21_53  and  O11_54 
REMARK   16  A    between atoms: C22_56  and  O12_57 
ROOT
HETATM    1  N1  UNL     1      36.774  -3.333  22.301  1.00  0.00    -0.190 NA
HETATM    2  C1  UNL     1      37.849  -3.580  21.943  1.00  0.00     0.122 C 
HETATM    3  C2  UNL     1      39.186  -3.887  21.523  1.00  0.00     0.167 A 
HETATM    4  C3  UNL     1      39.490  -4.521  20.306  1.00  0.00     0.090 A 
HETATM    5  N3  UNL     1      40.824  -4.605  20.332  1.00  0.00    -0.285 N 
ATOM      6  H3  UNL     1      41.395  -5.018  19.594  1.00  0.00     0.188 HD
HETATM    7  N4  UNL     1      41.308  -4.073  21.459  1.00  0.00    -0.232 N 
ATOM      8  H4  UNL     1      42.296  -4.020  21.706  1.00  0.00     0.209 HD
HETATM    9  N5  UNL     1      40.317  -3.628  22.202  1.00  0.00    -0.195 N 
HETATM   10  C8  UNL     1      40.372  -2.989  23.477  1.00  0.00     0.278 C 
HETATM   11  O4  UNL     1      39.313  -2.621  24.049  1.00  0.00    -0.268 OA
ENDROOT
BRANCH   4  12
HETATM   12  C4  UNL     1      38.476  -4.960  19.317  1.00  0.00     0.229 C 
BRANCH  12  13
HETATM   13  O1  UNL     1      38.347  -4.080  18.316  1.00  0.00    -0.382 OA
BRANCH  13  14
HETATM   14  C5  UNL     1      38.058  -4.424  17.054  1.00  0.00     0.209 C 
BRANCH  14  15
HETATM   15  C6  UNL     1      37.963  -3.322  16.032  1.00  0.00     0.230 C 
BRANCH  15  16
HETATM   16  O2  UNL     1      39.113  -3.306  15.269  1.00  0.00    -0.384 OA
ATOM     17  H2  UNL     1      39.192  -2.464  14.837  1.00  0.00     0.210 HD
ENDBRANCH  15  16
BRANCH  15  18
HETATM   18  C7  UNL     1      36.740  -3.493  15.188  1.00  0.00     0.262 C 
HETATM   19  N2  UNL     1      36.420  -2.583  14.154  1.00  0.00    -0.060 NA
HETATM   20  O3  UNL     1      35.953  -4.463  15.375  1.00  0.00    -0.274 OA
ENDBRANCH  15  18
ENDBRANCH  14  15
ENDBRANCH  13  14
ENDBRANCH  12  13
ENDBRANCH   4  12
BRANCH  10  21
HETATM   21  C9  UNL     1      41.639  -2.726  24.185  1.00  0.00     0.268 C 
BRANCH  21  22
HETATM   22  O5  UNL     1      41.562  -3.280  25.450  1.00  0.00    -0.382 OA
ATOM     23  H5  UNL     1      40.669  -3.563  25.604  1.00  0.00     0.210 HD
ENDBRANCH  21  22
BRANCH  21  24
HETATM   24  C10 UNL     1      41.770  -1.202  24.287  1.00  0.00     0.360 C 
HETATM   25  N6  UNL     1      41.073  -0.625  23.180  1.00  0.00    -0.033 N 
HETATM   26  C11 UNL     1      41.056   0.832  23.288  1.00  0.00     0.279 C 
ATOM     27  H62 UNL     1      41.458  -0.934  22.287  1.00  0.00     0.281 HD
ATOM     28  H61 UNL     1      40.134  -1.009  23.082  1.00  0.00     0.281 HD
HETATM   29  C22 UNL     1      40.416   1.166  24.636  1.00  0.00     0.179 C 
HETATM   30  C23 UNL     1      41.372   0.582  25.678  1.00  0.00     0.205 C 
HETATM   31  O13 UNL     1      41.329  -0.782  25.532  1.00  0.00    -0.354 OA
BRANCH  26  32
HETATM   32  C12 UNL     1      40.156   1.354  22.221  1.00  0.00     0.124 A 
HETATM   33  O6  UNL     1      39.177   2.196  22.527  1.00  0.00    -0.304 OA
HETATM   34  C13 UNL     1      38.353   2.682  21.633  1.00  0.00     0.144 A 
HETATM   35  C19 UNL     1      38.483   2.322  20.306  1.00  0.00     0.155 A 
HETATM   36  C20 UNL     1      39.478   1.456  19.933  1.00  0.00     0.243 A 
HETATM   37  O10 UNL     1      39.597   1.129  18.733  1.00  0.00    -0.282 OA
HETATM   38  C21 UNL     1      40.325   0.972  20.934  1.00  0.00     0.151 A 
BRANCH  34  39
HETATM   39  C14 UNL     1      37.302   3.598  22.030  1.00  0.00     0.124 A 
HETATM   40  N7  UNL     1      37.057   4.844  21.574  1.00  0.00    -0.237 N 
HETATM   41  O7  UNL     1      36.023   5.333  22.178  1.00  0.00    -0.156 OA
ATOM     42  H7  UNL     1      37.604   5.328  20.862  1.00  0.00     0.197 HD
HETATM   43  N8  UNL     1      35.568   4.463  23.019  1.00  0.00    -0.237 N 
HETATM   44  C15 UNL     1      36.339   3.343  22.969  1.00  0.00     0.119 A 
ATOM     45  H8  UNL     1      34.758   4.595  23.625  1.00  0.00     0.197 HD
BRANCH  44  46
HETATM   46  C16 UNL     1      36.169   2.132  23.759  1.00  0.00     0.116 A 
HETATM   47  N9  UNL     1      36.463   0.861  23.465  1.00  0.00    -0.347 N 
HETATM   48  C17 UNL     1      36.116   0.108  24.518  1.00  0.00     0.183 A 
ATOM     49  H9  UNL     1      36.878   0.526  22.596  1.00  0.00     0.167 HD
HETATM   50  N10 UNL     1      35.602   0.857  25.491  1.00  0.00    -0.331 N 
HETATM   51  C18 UNL     1      35.629   2.126  25.031  1.00  0.00     0.170 A 
ATOM     52  H10 UNL     1      35.259   0.538  26.397  1.00  0.00     0.168 HD
BRANCH  51  53
HETATM   53  O8  UNL     1      35.160   3.186  25.800  1.00  0.00    -0.344 OA
ATOM     54  H8  UNL     1      35.402   3.450  26.680  1.00  0.00     0.219 HD
ENDBRANCH  51  53
ENDBRANCH  44  46
ENDBRANCH  34  39
BRANCH  35  55
HETATM   55  O9  UNL     1      37.587   2.859  19.374  1.00  0.00    -0.355 OA
ATOM     56  H9  UNL     1      36.656   2.735  19.512  1.00  0.00     0.218 HD
ENDBRANCH  35  55
BRANCH  38  57
HETATM   57  O11 UNL     1      41.311   0.111  20.512  1.00  0.00    -0.355 OA
ATOM     58  H11 UNL     1      41.319  -0.310  19.660  1.00  0.00     0.218 HD
ENDBRANCH  38  57
ENDBRANCH  26  32
BRANCH  29  59
HETATM   59  O12 UNL     1      39.167   0.590  24.751  1.00  0.00    -0.391 OA
ATOM     60  H12 UNL     1      38.603   1.103  25.318  1.00  0.00     0.210 HD
ENDBRANCH  29  59
ENDBRANCH  21  24
ENDBRANCH  10  21
TORSDOF 16
ENDMDL
