MODEL 1
REMARK VINA RESULT: -6.475769329      0.000      0.000
REMARK  20 active torsions:
REMARK  status: ('A' for Active; 'I' for Inactive)
REMARK    1  A    between atoms: C2_2  and  O2_4 
REMARK    2  A    between atoms: O2_4  and  C3_5 
REMARK    3  A    between atoms: C3_5  and  C4_6 
REMARK    4  A    between atoms: C5_8  and  O4_9 
REMARK    5  A    between atoms: O4_9  and  C6_10 
REMARK    6  A    between atoms: C6_10  and  C7_12 
REMARK    7  A    between atoms: C8_13  and  O6_14 
REMARK    8  A    between atoms: C9_16  and  N1_17 
REMARK    9  A    between atoms: C10_18  and  O7_19 
REMARK   10  A    between atoms: C11_21  and  O8_22 
REMARK   11  A    between atoms: N2_24  and  O9_25 
REMARK   12  A    between atoms: C13_29  and  O11_30 
REMARK   13  A    between atoms: C14_32  and  O12_33 
REMARK   14  A    between atoms: C15_35  and  N3_36 
REMARK   15  A    between atoms: N3_36  and  N4_38 
REMARK   16  A    between atoms: C17_43  and  O13_44 
REMARK   17  A    between atoms: C18_46  and  O14_47 
REMARK   18  A    between atoms: O14_47  and  C19_48 
REMARK   19  A    between atoms: C21_51  and  O16_52 
REMARK   20  A    between atoms: O16_52  and  C22_53 
ROOT
HETATM    1  C7  UNL     1      40.270  -2.240  22.553  1.00  0.00     0.106 A 
HETATM    2  C8  UNL     1      39.091  -2.908  22.822  1.00  0.00     0.114 A 
HETATM    3  C9  UNL     1      38.491  -3.696  21.822  1.00  0.00     0.116 A 
HETATM    4  C13 UNL     1      39.110  -3.769  20.605  1.00  0.00     0.132 A 
HETATM    5  C14 UNL     1      40.276  -3.113  20.328  1.00  0.00     0.131 A 
HETATM    6  C15 UNL     1      40.870  -2.335  21.313  1.00  0.00     0.106 A 
ENDROOT
BRANCH   1   7
HETATM    7  C6  UNL     1      40.877  -1.428  23.589  1.00  0.00     0.301 C 
HETATM    8  O5  UNL     1      41.380  -2.014  24.607  1.00  0.00    -0.259 OA
BRANCH   7   9
HETATM    9  O4  UNL     1      40.974  -0.050  23.598  1.00  0.00    -0.283 OA
BRANCH   9  10
HETATM   10  C5  UNL     1      39.940   0.721  23.076  1.00  0.00     0.301 C 
HETATM   11  O3  UNL     1      40.364   1.650  22.130  1.00  0.00    -0.348 OA
HETATM   12  C4  UNL     1      39.225   2.017  21.400  1.00  0.00     0.181 C 
HETATM   13  C21 UNL     1      38.280   2.836  22.241  1.00  0.00     0.195 C 
HETATM   14  C18 UNL     1      37.925   2.027  23.470  1.00  0.00     0.197 C 
HETATM   15  C17 UNL     1      39.193   1.514  24.149  1.00  0.00     0.206 C 
BRANCH  12  16
HETATM   16  C3  UNL     1      39.642   2.700  20.136  1.00  0.00     0.213 C 
BRANCH  16  17
HETATM   17  O2  UNL     1      40.480   1.873  19.369  1.00  0.00    -0.319 OA
BRANCH  17  18
HETATM   18  C2  UNL     1      39.934   1.155  18.335  1.00  0.00     0.254 C 
HETATM   19  C1  UNL     1      39.188   1.839  17.260  1.00  0.00     0.126 C 
HETATM   20  O1  UNL     1      40.068  -0.085  18.303  1.00  0.00    -0.266 OA
ENDBRANCH  17  18
ENDBRANCH  16  17
ENDBRANCH  12  16
BRANCH  13  21
HETATM   21  O16 UNL     1      38.802   4.102  22.580  1.00  0.00    -0.311 OA
BRANCH  21  22
HETATM   22  C22 UNL     1      38.025   5.249  22.526  1.00  0.00     0.255 C 
HETATM   23  C23 UNL     1      38.337   6.386  23.423  1.00  0.00     0.126 C 
HETATM   24  O17 UNL     1      37.061   5.352  21.735  1.00  0.00    -0.266 OA
ENDBRANCH  21  22
ENDBRANCH  13  21
BRANCH  14  25
HETATM   25  O14 UNL     1      37.164   2.823  24.362  1.00  0.00    -0.311 OA
BRANCH  25  26
HETATM   26  C19 UNL     1      35.919   2.419  24.782  1.00  0.00     0.255 C 
HETATM   27  C20 UNL     1      35.319   1.102  24.374  1.00  0.00     0.126 C 
HETATM   28  O15 UNL     1      35.276   3.196  25.533  1.00  0.00    -0.266 OA
ENDBRANCH  25  26
ENDBRANCH  14  25
BRANCH  15  29
HETATM   29  O13 UNL     1      38.800   0.672  25.195  1.00  0.00    -0.388 OA
ATOM     30  H13 UNL     1      39.558   0.270  25.602  1.00  0.00     0.210 HD
ENDBRANCH  15  29
ENDBRANCH   9  10
ENDBRANCH   7   9
ENDBRANCH   1   7
BRANCH   2  31
HETATM   31  O6  UNL     1      38.428  -2.880  23.999  1.00  0.00    -0.357 OA
ATOM     32  H6  UNL     1      37.553  -2.535  24.129  1.00  0.00     0.217 HD
ENDBRANCH   2  31
BRANCH   6  33
HETATM   33  N3  UNL     1      42.082  -1.688  20.958  1.00  0.00    -0.279 N 
HETATM   34  C16 UNL     1      43.394  -2.310  21.079  1.00  0.00     0.179 C 
BRANCH  33  35
HETATM   35  N4  UNL     1      42.025  -0.393  20.446  1.00  0.00    -0.247 N 
HETATM   36  N5  UNL     1      42.733   0.536  20.922  1.00  0.00    -0.331 N 
ATOM     37  H52 UNL     1      43.356   0.316  21.700  1.00  0.00     0.178 HD
ATOM     38  H51 UNL     1      42.692   1.483  20.548  1.00  0.00     0.178 HD
ATOM     39  H4  UNL     1      41.397  -0.190  19.669  1.00  0.00     0.208 HD
ENDBRANCH  33  35
ENDBRANCH   6  33
BRANCH   3  40
HETATM   40  N1  UNL     1      37.284  -4.364  22.138  1.00  0.00    -0.233 N 
HETATM   41  C10 UNL     1      36.072  -3.796  22.309  1.00  0.00     0.206 A 
HETATM   42  C11 UNL     1      35.172  -4.807  22.605  1.00  0.00     0.224 A 
HETATM   43  N2  UNL     1      35.837  -5.972  22.613  1.00  0.00    -0.144 N 
HETATM   44  C12 UNL     1      37.106  -5.688  22.330  1.00  0.00     0.362 A 
HETATM   45  O10 UNL     1      38.026  -6.535  22.249  1.00  0.00    -0.243 OA
BRANCH  41  46
HETATM   46  O7  UNL     1      35.747  -2.458  22.213  1.00  0.00    -0.342 OA
ATOM     47  H7  UNL     1      35.566  -1.959  21.425  1.00  0.00     0.219 HD
ENDBRANCH  41  46
BRANCH  42  48
HETATM   48  O8  UNL     1      33.810  -4.630  22.852  1.00  0.00    -0.341 OA
ATOM     49  H8  UNL     1      33.426  -4.431  23.698  1.00  0.00     0.219 HD
ENDBRANCH  42  48
BRANCH  43  50
HETATM   50  O9  UNL     1      35.275  -7.193  22.868  1.00  0.00    -0.277 OA
ATOM     51  H9  UNL     1      34.796  -7.715  22.235  1.00  0.00     0.245 HD
ENDBRANCH  43  50
ENDBRANCH   3  40
BRANCH   5  52
HETATM   52  O12 UNL     1      40.896  -3.186  19.109  1.00  0.00    -0.356 OA
ATOM     53  H12 UNL     1      41.681  -2.693  18.900  1.00  0.00     0.218 HD
ENDBRANCH   5  52
BRANCH   4  54
HETATM   54  O11 UNL     1      38.470  -4.565  19.652  1.00  0.00    -0.356 OA
ATOM     55  H11 UNL     1      38.683  -4.370  18.747  1.00  0.00     0.218 HD
ENDBRANCH   4  54
TORSDOF 20
ENDMDL
MODEL 2
REMARK VINA RESULT: -6.367312253      3.208      8.441
REMARK  20 active torsions:
REMARK  status: ('A' for Active; 'I' for Inactive)
REMARK    1  A    between atoms: C2_2  and  O2_4 
REMARK    2  A    between atoms: O2_4  and  C3_5 
REMARK    3  A    between atoms: C3_5  and  C4_6 
REMARK    4  A    between atoms: C5_8  and  O4_9 
REMARK    5  A    between atoms: O4_9  and  C6_10 
REMARK    6  A    between atoms: C6_10  and  C7_12 
REMARK    7  A    between atoms: C8_13  and  O6_14 
REMARK    8  A    between atoms: C9_16  and  N1_17 
REMARK    9  A    between atoms: C10_18  and  O7_19 
REMARK   10  A    between atoms: C11_21  and  O8_22 
REMARK   11  A    between atoms: N2_24  and  O9_25 
REMARK   12  A    between atoms: C13_29  and  O11_30 
REMARK   13  A    between atoms: C14_32  and  O12_33 
REMARK   14  A    between atoms: C15_35  and  N3_36 
REMARK   15  A    between atoms: N3_36  and  N4_38 
REMARK   16  A    between atoms: C17_43  and  O13_44 
REMARK   17  A    between atoms: C18_46  and  O14_47 
REMARK   18  A    between atoms: O14_47  and  C19_48 
REMARK   19  A    between atoms: C21_51  and  O16_52 
REMARK   20  A    between atoms: O16_52  and  C22_53 
ROOT
HETATM    1  C7  UNL     1      38.013  -2.131  23.228  1.00  0.00     0.106 A 
HETATM    2  C8  UNL     1      37.281  -0.959  23.243  1.00  0.00     0.114 A 
HETATM    3  C9  UNL     1      37.942   0.276  23.388  1.00  0.00     0.116 A 
HETATM    4  C13 UNL     1      39.305   0.264  23.510  1.00  0.00     0.132 A 
HETATM    5  C14 UNL     1      40.038  -0.890  23.497  1.00  0.00     0.131 A 
HETATM    6  C15 UNL     1      39.388  -2.109  23.355  1.00  0.00     0.106 A 
ENDROOT
BRANCH   1   7
HETATM    7  C6  UNL     1      37.321  -3.396  23.083  1.00  0.00     0.301 C 
HETATM    8  O5  UNL     1      37.243  -4.168  24.099  1.00  0.00    -0.259 OA
BRANCH   7   9
HETATM    9  O4  UNL     1      36.719  -3.874  21.936  1.00  0.00    -0.283 OA
BRANCH   9  10
HETATM   10  C5  UNL     1      37.290  -4.938  21.247  1.00  0.00     0.301 C 
HETATM   11  O3  UNL     1      37.406  -4.715  19.878  1.00  0.00    -0.348 OA
HETATM   12  C4  UNL     1      38.359  -5.629  19.408  1.00  0.00     0.181 C 
HETATM   13  C21 UNL     1      37.828  -7.038  19.451  1.00  0.00     0.195 C 
HETATM   14  C18 UNL     1      37.411  -7.340  20.874  1.00  0.00     0.197 C 
HETATM   15  C17 UNL     1      36.497  -6.237  21.401  1.00  0.00     0.206 C 
BRANCH  12  16
HETATM   16  C3  UNL     1      38.826  -5.208  18.050  1.00  0.00     0.213 C 
BRANCH  16  17
HETATM   17  O2  UNL     1      38.083  -4.113  17.579  1.00  0.00    -0.319 OA
BRANCH  17  18
HETATM   18  C2  UNL     1      37.702  -4.090  16.261  1.00  0.00     0.254 C 
HETATM   19  C1  UNL     1      36.575  -4.921  15.792  1.00  0.00     0.126 C 
HETATM   20  O1  UNL     1      38.312  -3.363  15.451  1.00  0.00    -0.266 OA
ENDBRANCH  17  18
ENDBRANCH  16  17
ENDBRANCH  12  16
BRANCH  13  21
HETATM   21  O16 UNL     1      36.774  -7.257  18.538  1.00  0.00    -0.311 OA
BRANCH  21  22
HETATM   22  C22 UNL     1      36.824  -8.274  17.597  1.00  0.00     0.255 C 
HETATM   23  C23 UNL     1      35.825  -9.367  17.648  1.00  0.00     0.126 C 
HETATM   24  O17 UNL     1      37.694  -8.294  16.699  1.00  0.00    -0.266 OA
ENDBRANCH  21  22
ENDBRANCH  13  21
BRANCH  14  25
HETATM   25  O14 UNL     1      36.762  -8.600  20.924  1.00  0.00    -0.311 OA
BRANCH  25  26
HETATM   26  C19 UNL     1      37.486  -9.762  21.038  1.00  0.00     0.255 C 
HETATM   27  C20 UNL     1      36.881 -11.116  20.787  1.00  0.00     0.126 C 
HETATM   28  O15 UNL     1      38.697  -9.667  21.365  1.00  0.00    -0.266 OA
ENDBRANCH  25  26
ENDBRANCH  14  25
BRANCH  15  29
HETATM   29  O13 UNL     1      36.253  -6.503  22.754  1.00  0.00    -0.388 OA
ATOM     30  H13 UNL     1      36.740  -7.269  23.035  1.00  0.00     0.210 HD
ENDBRANCH  15  29
ENDBRANCH   9  10
ENDBRANCH   7   9
ENDBRANCH   1   7
BRANCH   2  31
HETATM   31  O6  UNL     1      35.938  -0.875  23.126  1.00  0.00    -0.357 OA
ATOM     32  H6  UNL     1      35.409  -0.134  23.395  1.00  0.00     0.217 HD
ENDBRANCH   2  31
BRANCH   6  33
HETATM   33  N3  UNL     1      40.212  -3.263  23.343  1.00  0.00    -0.279 N 
HETATM   34  C16 UNL     1      40.763  -3.848  22.128  1.00  0.00     0.179 C 
BRANCH  33  35
HETATM   35  N4  UNL     1      40.535  -3.869  24.556  1.00  0.00    -0.247 N 
HETATM   36  N5  UNL     1      40.051  -4.985  24.885  1.00  0.00    -0.331 N 
ATOM     37  H52 UNL     1      39.410  -5.442  24.236  1.00  0.00     0.178 HD
ATOM     38  H51 UNL     1      40.287  -5.429  25.772  1.00  0.00     0.178 HD
ATOM     39  H4  UNL     1      41.177  -3.398  25.193  1.00  0.00     0.208 HD
ENDBRANCH  33  35
ENDBRANCH   6  33
BRANCH   3  40
HETATM   40  N1  UNL     1      37.157   1.452  23.397  1.00  0.00    -0.233 N 
HETATM   41  C10 UNL     1      36.317   1.851  24.375  1.00  0.00     0.206 A 
HETATM   42  C11 UNL     1      35.752   3.053  23.981  1.00  0.00     0.224 A 
HETATM   43  N2  UNL     1      36.249   3.376  22.778  1.00  0.00    -0.144 N 
HETATM   44  C12 UNL     1      37.092   2.403  22.441  1.00  0.00     0.362 A 
HETATM   45  O10 UNL     1      37.748   2.365  21.374  1.00  0.00    -0.243 OA
BRANCH  41  46
HETATM   46  O7  UNL     1      36.042   1.206  25.565  1.00  0.00    -0.342 OA
ATOM     47  H7  UNL     1      35.303   0.642  25.762  1.00  0.00     0.219 HD
ENDBRANCH  41  46
BRANCH  42  48
HETATM   48  O8  UNL     1      34.827   3.791  24.720  1.00  0.00    -0.341 OA
ATOM     49  H8  UNL     1      33.901   3.868  24.521  1.00  0.00     0.219 HD
ENDBRANCH  42  48
BRANCH  43  50
HETATM   50  O9  UNL     1      35.921   4.500  22.071  1.00  0.00    -0.277 OA
ATOM     51  H9  UNL     1      36.546   5.103  21.687  1.00  0.00     0.245 HD
ENDBRANCH  43  50
ENDBRANCH   3  40
BRANCH   5  52
HETATM   52  O12 UNL     1      41.402  -0.901  23.621  1.00  0.00    -0.356 OA
ATOM     53  H12 UNL     1      41.851  -1.362  24.320  1.00  0.00     0.218 HD
ENDBRANCH   5  52
BRANCH   4  54
HETATM   54  O11 UNL     1      39.907   1.516  23.651  1.00  0.00    -0.356 OA
ATOM     55  H11 UNL     1      39.769   1.944  24.488  1.00  0.00     0.218 HD
ENDBRANCH   4  54
TORSDOF 20
ENDMDL
MODEL 3
REMARK VINA RESULT: -6.340651216      3.411      8.321
REMARK  20 active torsions:
REMARK  status: ('A' for Active; 'I' for Inactive)
REMARK    1  A    between atoms: C2_2  and  O2_4 
REMARK    2  A    between atoms: O2_4  and  C3_5 
REMARK    3  A    between atoms: C3_5  and  C4_6 
REMARK    4  A    between atoms: C5_8  and  O4_9 
REMARK    5  A    between atoms: O4_9  and  C6_10 
REMARK    6  A    between atoms: C6_10  and  C7_12 
REMARK    7  A    between atoms: C8_13  and  O6_14 
REMARK    8  A    between atoms: C9_16  and  N1_17 
REMARK    9  A    between atoms: C10_18  and  O7_19 
REMARK   10  A    between atoms: C11_21  and  O8_22 
REMARK   11  A    between atoms: N2_24  and  O9_25 
REMARK   12  A    between atoms: C13_29  and  O11_30 
REMARK   13  A    between atoms: C14_32  and  O12_33 
REMARK   14  A    between atoms: C15_35  and  N3_36 
REMARK   15  A    between atoms: N3_36  and  N4_38 
REMARK   16  A    between atoms: C17_43  and  O13_44 
REMARK   17  A    between atoms: C18_46  and  O14_47 
REMARK   18  A    between atoms: O14_47  and  C19_48 
REMARK   19  A    between atoms: C21_51  and  O16_52 
REMARK   20  A    between atoms: O16_52  and  C22_53 
ROOT
HETATM    1  C7  UNL     1      38.203  -2.743  23.010  1.00  0.00     0.106 A 
HETATM    2  C8  UNL     1      37.433  -1.606  23.168  1.00  0.00     0.114 A 
HETATM    3  C9  UNL     1      38.058  -0.370  23.421  1.00  0.00     0.116 A 
HETATM    4  C13 UNL     1      39.423  -0.345  23.502  1.00  0.00     0.132 A 
HETATM    5  C14 UNL     1      40.193  -1.463  23.348  1.00  0.00     0.131 A 
HETATM    6  C15 UNL     1      39.579  -2.684  23.098  1.00  0.00     0.106 A 
ENDROOT
BRANCH   1   7
HETATM    7  C6  UNL     1      37.549  -4.011  22.754  1.00  0.00     0.301 C 
HETATM    8  O5  UNL     1      37.591  -4.912  23.660  1.00  0.00    -0.259 OA
BRANCH   7   9
HETATM    9  O4  UNL     1      36.865  -4.363  21.607  1.00  0.00    -0.283 OA
BRANCH   9  10
HETATM   10  C5  UNL     1      37.441  -5.249  20.703  1.00  0.00     0.301 C 
HETATM   11  O3  UNL     1      37.529  -4.742  19.410  1.00  0.00    -0.348 OA
HETATM   12  C4  UNL     1      38.489  -5.520  18.746  1.00  0.00     0.181 C 
HETATM   13  C21 UNL     1      37.982  -6.917  18.500  1.00  0.00     0.195 C 
HETATM   14  C18 UNL     1      37.594  -7.518  19.834  1.00  0.00     0.197 C 
HETATM   15  C17 UNL     1      36.672  -6.567  20.593  1.00  0.00     0.206 C 
BRANCH  12  16
HETATM   16  C3  UNL     1      38.926  -4.816  17.500  1.00  0.00     0.213 C 
BRANCH  16  17
HETATM   17  O2  UNL     1      38.034  -3.782  17.166  1.00  0.00    -0.319 OA
BRANCH  17  18
HETATM   18  C2  UNL     1      38.107  -3.225  15.915  1.00  0.00     0.254 C 
HETATM   19  C1  UNL     1      36.892  -3.077  15.088  1.00  0.00     0.126 C 
HETATM   20  O1  UNL     1      39.207  -2.839  15.471  1.00  0.00    -0.266 OA
ENDBRANCH  17  18
ENDBRANCH  16  17
ENDBRANCH  12  16
BRANCH  13  21
HETATM   21  O16 UNL     1      36.916  -6.961  17.577  1.00  0.00    -0.311 OA
BRANCH  21  22
HETATM   22  C22 UNL     1      37.046  -7.577  16.342  1.00  0.00     0.255 C 
HETATM   23  C23 UNL     1      36.711  -6.825  15.110  1.00  0.00     0.126 C 
HETATM   24  O17 UNL     1      37.440  -8.760  16.238  1.00  0.00    -0.266 OA
ENDBRANCH  21  22
ENDBRANCH  13  21
BRANCH  14  25
HETATM   25  O14 UNL     1      36.967  -8.772  19.629  1.00  0.00    -0.311 OA
BRANCH  25  26
HETATM   26  C19 UNL     1      37.466  -9.914  20.208  1.00  0.00     0.255 C 
HETATM   27  C20 UNL     1      37.516 -11.230  19.482  1.00  0.00     0.126 C 
HETATM   28  O15 UNL     1      37.892  -9.832  21.389  1.00  0.00    -0.266 OA
ENDBRANCH  25  26
ENDBRANCH  14  25
BRANCH  15  29
HETATM   29  O13 UNL     1      36.455  -7.114  21.863  1.00  0.00    -0.388 OA
ATOM     30  H13 UNL     1      36.913  -7.942  21.951  1.00  0.00     0.210 HD
ENDBRANCH  15  29
ENDBRANCH   9  10
ENDBRANCH   7   9
ENDBRANCH   1   7
BRANCH   2  31
HETATM   31  O6  UNL     1      36.085  -1.559  23.099  1.00  0.00    -0.357 OA
ATOM     32  H6  UNL     1      35.559  -0.771  23.160  1.00  0.00     0.217 HD
ENDBRANCH   2  31
BRANCH   6  33
HETATM   33  N3  UNL     1      40.440  -3.800  22.942  1.00  0.00    -0.279 N 
HETATM   34  C16 UNL     1      40.932  -4.267  21.652  1.00  0.00     0.179 C 
BRANCH  33  35
HETATM   35  N4  UNL     1      40.862  -4.486  24.081  1.00  0.00    -0.247 N 
HETATM   36  N5  UNL     1      40.415  -5.630  24.364  1.00  0.00    -0.331 N 
ATOM     37  H52 UNL     1      39.730  -6.049  23.735  1.00  0.00     0.178 HD
ATOM     38  H51 UNL     1      40.723  -6.132  25.196  1.00  0.00     0.178 HD
ATOM     39  H4  UNL     1      41.547  -4.052  24.699  1.00  0.00     0.208 HD
ENDBRANCH  33  35
ENDBRANCH   6  33
BRANCH   3  40
HETATM   40  N1  UNL     1      37.234   0.770  23.576  1.00  0.00    -0.233 N 
HETATM   41  C10 UNL     1      36.453   1.060  24.637  1.00  0.00     0.206 A 
HETATM   42  C11 UNL     1      35.820   2.265  24.377  1.00  0.00     0.224 A 
HETATM   43  N2  UNL     1      36.217   2.697  23.171  1.00  0.00    -0.144 N 
HETATM   44  C12 UNL     1      37.068   1.786  22.702  1.00  0.00     0.362 A 
HETATM   45  O10 UNL     1      37.645   1.853  21.592  1.00  0.00    -0.243 OA
BRANCH  41  46
HETATM   46  O7  UNL     1      36.289   0.318  25.790  1.00  0.00    -0.342 OA
ATOM     47  H7  UNL     1      35.537  -0.207  26.039  1.00  0.00     0.219 HD
ENDBRANCH  41  46
BRANCH  42  48
HETATM   48  O8  UNL     1      34.926   2.909  25.233  1.00  0.00    -0.341 OA
ATOM     49  H8  UNL     1      34.148   2.515  25.613  1.00  0.00     0.219 HD
ENDBRANCH  42  48
BRANCH  43  50
HETATM   50  O9  UNL     1      35.800   3.856  22.577  1.00  0.00    -0.277 OA
ATOM     51  H9  UNL     1      35.763   4.004  21.640  1.00  0.00     0.245 HD
ENDBRANCH  43  50
ENDBRANCH   3  40
BRANCH   5  52
HETATM   52  O12 UNL     1      41.560  -1.438  23.430  1.00  0.00    -0.356 OA
ATOM     53  H12 UNL     1      42.120  -1.421  22.663  1.00  0.00     0.218 HD
ENDBRANCH   5  52
BRANCH   4  54
HETATM   54  O11 UNL     1      39.987   0.907  23.755  1.00  0.00    -0.356 OA
ATOM     55  H11 UNL     1      40.684   1.168  23.164  1.00  0.00     0.218 HD
ENDBRANCH   4  54
TORSDOF 20
ENDMDL
MODEL 4
REMARK VINA RESULT: -6.337756560      3.704      8.246
REMARK  20 active torsions:
REMARK  status: ('A' for Active; 'I' for Inactive)
REMARK    1  A    between atoms: C2_2  and  O2_4 
REMARK    2  A    between atoms: O2_4  and  C3_5 
REMARK    3  A    between atoms: C3_5  and  C4_6 
REMARK    4  A    between atoms: C5_8  and  O4_9 
REMARK    5  A    between atoms: O4_9  and  C6_10 
REMARK    6  A    between atoms: C6_10  and  C7_12 
REMARK    7  A    between atoms: C8_13  and  O6_14 
REMARK    8  A    between atoms: C9_16  and  N1_17 
REMARK    9  A    between atoms: C10_18  and  O7_19 
REMARK   10  A    between atoms: C11_21  and  O8_22 
REMARK   11  A    between atoms: N2_24  and  O9_25 
REMARK   12  A    between atoms: C13_29  and  O11_30 
REMARK   13  A    between atoms: C14_32  and  O12_33 
REMARK   14  A    between atoms: C15_35  and  N3_36 
REMARK   15  A    between atoms: N3_36  and  N4_38 
REMARK   16  A    between atoms: C17_43  and  O13_44 
REMARK   17  A    between atoms: C18_46  and  O14_47 
REMARK   18  A    between atoms: O14_47  and  C19_48 
REMARK   19  A    between atoms: C21_51  and  O16_52 
REMARK   20  A    between atoms: O16_52  and  C22_53 
ROOT
HETATM    1  C7  UNL     1      39.872  -3.645  21.381  1.00  0.00     0.106 A 
HETATM    2  C8  UNL     1      39.308  -2.448  21.780  1.00  0.00     0.114 A 
HETATM    3  C9  UNL     1      38.440  -2.420  22.888  1.00  0.00     0.116 A 
HETATM    4  C13 UNL     1      38.187  -3.599  23.535  1.00  0.00     0.132 A 
HETATM    5  C14 UNL     1      38.739  -4.788  23.148  1.00  0.00     0.131 A 
HETATM    6  C15 UNL     1      39.595  -4.818  22.055  1.00  0.00     0.106 A 
ENDROOT
BRANCH   1   7
HETATM    7  C6  UNL     1      40.760  -3.662  20.236  1.00  0.00     0.301 C 
HETATM    8  O5  UNL     1      41.795  -2.911  20.256  1.00  0.00    -0.259 OA
BRANCH   7   9
HETATM    9  O4  UNL     1      40.608  -4.421  19.092  1.00  0.00    -0.283 OA
BRANCH   9  10
HETATM   10  C5  UNL     1      39.392  -4.419  18.417  1.00  0.00     0.301 C 
HETATM   11  O3  UNL     1      38.830  -5.685  18.283  1.00  0.00    -0.348 OA
HETATM   12  C4  UNL     1      37.470  -5.486  18.004  1.00  0.00     0.181 C 
HETATM   13  C21 UNL     1      37.277  -4.911  16.625  1.00  0.00     0.195 C 
HETATM   14  C18 UNL     1      38.064  -3.621  16.539  1.00  0.00     0.197 C 
HETATM   15  C17 UNL     1      39.502  -3.849  17.001  1.00  0.00     0.206 C 
BRANCH  12  16
HETATM   16  C3  UNL     1      36.724  -6.763  18.228  1.00  0.00     0.213 C 
BRANCH  16  17
HETATM   17  O2  UNL     1      37.608  -7.848  18.358  1.00  0.00    -0.319 OA
BRANCH  17  18
HETATM   18  C2  UNL     1      37.090  -9.103  18.552  1.00  0.00     0.254 C 
HETATM   19  C1  UNL     1      35.876  -9.533  17.829  1.00  0.00     0.126 C 
HETATM   20  O1  UNL     1      37.647  -9.888  19.345  1.00  0.00    -0.266 OA
ENDBRANCH  17  18
ENDBRANCH  16  17
ENDBRANCH  12  16
BRANCH  13  21
HETATM   21  O16 UNL     1      37.632  -5.811  15.599  1.00  0.00    -0.311 OA
BRANCH  21  22
HETATM   22  C22 UNL     1      36.704  -6.268  14.676  1.00  0.00     0.255 C 
HETATM   23  C23 UNL     1      35.262  -6.008  14.899  1.00  0.00     0.126 C 
HETATM   24  O17 UNL     1      37.051  -6.899  13.654  1.00  0.00    -0.266 OA
ENDBRANCH  21  22
ENDBRANCH  13  21
BRANCH  14  25
HETATM   25  O14 UNL     1      38.034  -3.131  15.210  1.00  0.00    -0.311 OA
BRANCH  25  26
HETATM   26  C19 UNL     1      37.093  -2.209  14.819  1.00  0.00     0.255 C 
HETATM   27  C20 UNL     1      35.906  -2.578  13.972  1.00  0.00     0.126 C 
HETATM   28  O15 UNL     1      37.251  -1.019  15.194  1.00  0.00    -0.266 OA
ENDBRANCH  25  26
ENDBRANCH  14  25
BRANCH  15  29
HETATM   29  O13 UNL     1      40.139  -2.603  17.024  1.00  0.00    -0.388 OA
ATOM     30  H13 UNL     1      40.614  -2.487  17.838  1.00  0.00     0.210 HD
ENDBRANCH  15  29
ENDBRANCH   9  10
ENDBRANCH   7   9
ENDBRANCH   1   7
BRANCH   2  31
HETATM   31  O6  UNL     1      39.516  -1.251  21.190  1.00  0.00    -0.357 OA
ATOM     32  H6  UNL     1      38.868  -0.562  21.103  1.00  0.00     0.217 HD
ENDBRANCH   2  31
BRANCH   6  33
HETATM   33  N3  UNL     1      40.136  -6.084  21.715  1.00  0.00    -0.279 N 
HETATM   34  C16 UNL     1      41.433  -6.558  22.180  1.00  0.00     0.179 C 
BRANCH  33  35
HETATM   35  N4  UNL     1      39.388  -6.938  20.906  1.00  0.00    -0.247 N 
HETATM   36  N5  UNL     1      39.937  -7.816  20.188  1.00  0.00    -0.331 N 
ATOM     37  H52 UNL     1      40.955  -7.889  20.210  1.00  0.00     0.178 HD
ATOM     38  H51 UNL     1      39.390  -8.440  19.597  1.00  0.00     0.178 HD
ATOM     39  H4  UNL     1      38.372  -6.850  20.895  1.00  0.00     0.208 HD
ENDBRANCH  33  35
ENDBRANCH   6  33
BRANCH   3  40
HETATM   40  N1  UNL     1      37.884  -1.175  23.265  1.00  0.00    -0.233 N 
HETATM   41  C10 UNL     1      36.587  -0.814  23.176  1.00  0.00     0.206 A 
HETATM   42  C11 UNL     1      36.479   0.484  23.651  1.00  0.00     0.224 A 
HETATM   43  N2  UNL     1      37.699   0.898  24.024  1.00  0.00    -0.144 N 
HETATM   44  C12 UNL     1      38.533  -0.111  23.785  1.00  0.00     0.362 A 
HETATM   45  O10 UNL     1      39.765  -0.087  24.010  1.00  0.00    -0.243 OA
BRANCH  41  46
HETATM   46  O7  UNL     1      35.533  -1.569  22.704  1.00  0.00    -0.342 OA
ATOM     47  H7  UNL     1      35.554  -2.237  22.029  1.00  0.00     0.219 HD
ENDBRANCH  41  46
BRANCH  42  48
HETATM   48  O8  UNL     1      35.296   1.220  23.725  1.00  0.00    -0.341 OA
ATOM     49  H8  UNL     1      34.595   1.073  24.349  1.00  0.00     0.219 HD
ENDBRANCH  42  48
BRANCH  43  50
HETATM   50  O9  UNL     1      37.983   2.131  24.543  1.00  0.00    -0.277 OA
ATOM     51  H9  UNL     1      37.623   2.951  24.224  1.00  0.00     0.245 HD
ENDBRANCH  43  50
ENDBRANCH   3  40
BRANCH   5  52
HETATM   52  O12 UNL     1      38.484  -5.968  23.795  1.00  0.00    -0.356 OA
ATOM     53  H12 UNL     1      39.138  -6.650  23.896  1.00  0.00     0.218 HD
ENDBRANCH   5  52
BRANCH   4  54
HETATM   54  O11 UNL     1      37.320  -3.512  24.626  1.00  0.00    -0.356 OA
ATOM     55  H11 UNL     1      37.688  -3.770  25.463  1.00  0.00     0.218 HD
ENDBRANCH   4  54
TORSDOF 20
ENDMDL
MODEL 5
REMARK VINA RESULT: -6.307731240      3.158      7.657
REMARK  20 active torsions:
REMARK  status: ('A' for Active; 'I' for Inactive)
REMARK    1  A    between atoms: C2_2  and  O2_4 
REMARK    2  A    between atoms: O2_4  and  C3_5 
REMARK    3  A    between atoms: C3_5  and  C4_6 
REMARK    4  A    between atoms: C5_8  and  O4_9 
REMARK    5  A    between atoms: O4_9  and  C6_10 
REMARK    6  A    between atoms: C6_10  and  C7_12 
REMARK    7  A    between atoms: C8_13  and  O6_14 
REMARK    8  A    between atoms: C9_16  and  N1_17 
REMARK    9  A    between atoms: C10_18  and  O7_19 
REMARK   10  A    between atoms: C11_21  and  O8_22 
REMARK   11  A    between atoms: N2_24  and  O9_25 
REMARK   12  A    between atoms: C13_29  and  O11_30 
REMARK   13  A    between atoms: C14_32  and  O12_33 
REMARK   14  A    between atoms: C15_35  and  N3_36 
REMARK   15  A    between atoms: N3_36  and  N4_38 
REMARK   16  A    between atoms: C17_43  and  O13_44 
REMARK   17  A    between atoms: C18_46  and  O14_47 
REMARK   18  A    between atoms: O14_47  and  C19_48 
REMARK   19  A    between atoms: C21_51  and  O16_52 
REMARK   20  A    between atoms: O16_52  and  C22_53 
ROOT
HETATM    1  C7  UNL     1      37.869  -2.917  22.705  1.00  0.00     0.106 A 
HETATM    2  C8  UNL     1      37.205  -1.713  22.843  1.00  0.00     0.114 A 
HETATM    3  C9  UNL     1      37.859  -0.620  23.442  1.00  0.00     0.116 A 
HETATM    4  C13 UNL     1      39.146  -0.798  23.871  1.00  0.00     0.132 A 
HETATM    5  C14 UNL     1      39.811  -1.984  23.740  1.00  0.00     0.131 A 
HETATM    6  C15 UNL     1      39.168  -3.064  23.149  1.00  0.00     0.106 A 
ENDROOT
BRANCH   1   7
HETATM    7  C6  UNL     1      37.184  -4.037  22.091  1.00  0.00     0.301 C 
HETATM    8  O5  UNL     1      35.912  -3.982  21.970  1.00  0.00    -0.259 OA
BRANCH   7   9
HETATM    9  O4  UNL     1      37.770  -5.191  21.609  1.00  0.00    -0.283 OA
BRANCH   9  10
HETATM   10  C5  UNL     1      38.161  -5.263  20.276  1.00  0.00     0.301 C 
HETATM   11  O3  UNL     1      38.632  -4.055  19.770  1.00  0.00    -0.348 OA
HETATM   12  C4  UNL     1      39.375  -4.370  18.623  1.00  0.00     0.181 C 
HETATM   13  C21 UNL     1      38.480  -4.848  17.510  1.00  0.00     0.195 C 
HETATM   14  C18 UNL     1      37.694  -6.038  18.017  1.00  0.00     0.197 C 
HETATM   15  C17 UNL     1      37.027  -5.701  19.348  1.00  0.00     0.206 C 
BRANCH  12  16
HETATM   16  C3  UNL     1      40.226  -3.199  18.244  1.00  0.00     0.213 C 
BRANCH  16  17
HETATM   17  O2  UNL     1      41.144  -2.893  19.262  1.00  0.00    -0.319 OA
BRANCH  17  18
HETATM   18  C2  UNL     1      41.090  -1.654  19.850  1.00  0.00     0.254 C 
HETATM   19  C1  UNL     1      40.485  -0.512  19.136  1.00  0.00     0.126 C 
HETATM   20  O1  UNL     1      41.554  -1.490  20.996  1.00  0.00    -0.266 OA
ENDBRANCH  17  18
ENDBRANCH  16  17
ENDBRANCH  12  16
BRANCH  13  21
HETATM   21  O16 UNL     1      37.634  -3.835  17.011  1.00  0.00    -0.311 OA
BRANCH  21  22
HETATM   22  C22 UNL     1      37.658  -3.456  15.678  1.00  0.00     0.255 C 
HETATM   23  C23 UNL     1      36.408  -3.501  14.883  1.00  0.00     0.126 C 
HETATM   24  O17 UNL     1      38.712  -3.073  15.124  1.00  0.00    -0.266 OA
ENDBRANCH  21  22
ENDBRANCH  13  21
BRANCH  14  25
HETATM   25  O14 UNL     1      36.728  -6.419  17.051  1.00  0.00    -0.311 OA
BRANCH  25  26
HETATM   26  C19 UNL     1      37.019  -7.362  16.095  1.00  0.00     0.255 C 
HETATM   27  C20 UNL     1      37.558  -8.722  16.444  1.00  0.00     0.126 C 
HETATM   28  O15 UNL     1      36.821  -7.055  14.892  1.00  0.00    -0.266 OA
ENDBRANCH  25  26
ENDBRANCH  14  25
BRANCH  15  29
HETATM   29  O13 UNL     1      36.428  -6.873  19.827  1.00  0.00    -0.388 OA
ATOM     30  H13 UNL     1      35.607  -6.672  20.261  1.00  0.00     0.210 HD
ENDBRANCH  15  29
ENDBRANCH   9  10
ENDBRANCH   7   9
ENDBRANCH   1   7
BRANCH   2  31
HETATM   31  O6  UNL     1      35.939  -1.469  22.442  1.00  0.00    -0.357 OA
ATOM     32  H6  UNL     1      35.256  -1.086  22.981  1.00  0.00     0.217 HD
ENDBRANCH   2  31
BRANCH   6  33
HETATM   33  N3  UNL     1      39.921  -4.262  23.040  1.00  0.00    -0.279 N 
HETATM   34  C16 UNL     1      39.839  -5.356  23.998  1.00  0.00     0.179 C 
BRANCH  33  35
HETATM   35  N4  UNL     1      40.776  -4.419  21.950  1.00  0.00    -0.247 N 
HETATM   36  N5  UNL     1      42.025  -4.288  22.068  1.00  0.00    -0.331 N 
ATOM     37  H52 UNL     1      42.401  -4.062  22.988  1.00  0.00     0.178 HD
ATOM     38  H51 UNL     1      42.650  -4.404  21.271  1.00  0.00     0.178 HD
ATOM     39  H4  UNL     1      40.383  -4.645  21.037  1.00  0.00     0.208 HD
ENDBRANCH  33  35
ENDBRANCH   6  33
BRANCH   3  40
HETATM   40  N1  UNL     1      37.145   0.595  23.563  1.00  0.00    -0.233 N 
HETATM   41  C10 UNL     1      36.407   0.993  24.621  1.00  0.00     0.206 A 
HETATM   42  C11 UNL     1      35.883   2.241  24.324  1.00  0.00     0.224 A 
HETATM   43  N2  UNL     1      36.303   2.592  23.099  1.00  0.00    -0.144 N 
HETATM   44  C12 UNL     1      37.061   1.591  22.656  1.00  0.00     0.362 A 
HETATM   45  O10 UNL     1      37.629   1.567  21.539  1.00  0.00    -0.243 OA
BRANCH  41  46
HETATM   46  O7  UNL     1      36.190   0.309  25.801  1.00  0.00    -0.342 OA
ATOM     47  H7  UNL     1      35.781   0.636  26.594  1.00  0.00     0.219 HD
ENDBRANCH  41  46
BRANCH  42  48
HETATM   48  O8  UNL     1      35.062   2.992  25.164  1.00  0.00    -0.341 OA
ATOM     49  H8  UNL     1      34.913   3.928  25.094  1.00  0.00     0.219 HD
ENDBRANCH  42  48
BRANCH  43  50
HETATM   50  O9  UNL     1      35.986   3.763  22.468  1.00  0.00    -0.277 OA
ATOM     51  H9  UNL     1      36.521   4.188  21.809  1.00  0.00     0.245 HD
ENDBRANCH  43  50
ENDBRANCH   3  40
BRANCH   5  52
HETATM   52  O12 UNL     1      41.100  -2.163  24.169  1.00  0.00    -0.356 OA
ATOM     53  H12 UNL     1      41.649  -2.876  23.866  1.00  0.00     0.218 HD
ENDBRANCH   5  52
BRANCH   4  54
HETATM   54  O11 UNL     1      39.745   0.320  24.456  1.00  0.00    -0.356 OA
ATOM     55  H11 UNL     1      40.694   0.300  24.499  1.00  0.00     0.218 HD
ENDBRANCH   4  54
TORSDOF 20
ENDMDL
