MODEL 1
REMARK VINA RESULT: -6.473553590      0.000      0.000
REMARK  21 active torsions:
REMARK  status: ('A' for Active; 'I' for Inactive)
REMARK    1  A    between atoms: C2_2  and  O2_4 
REMARK    2  A    between atoms: O2_4  and  C3_5 
REMARK    3  A    between atoms: C4_7  and  C5_8 
REMARK    4  A    between atoms: C5_8  and  O4_9 
REMARK    5  A    between atoms: O4_9  and  C6_10 
REMARK    6  A    between atoms: C6_10  and  O6_15 
REMARK    7  A    between atoms: N1_11  and  O5_13 
REMARK    8  A    between atoms: O6_15  and  C7_16 
REMARK    9  A    between atoms: C7_16  and  C8_17 
REMARK   10  A    between atoms: C8_17  and  O7_18 
REMARK   11  A    between atoms: O7_18  and  C9_19 
REMARK   12  A    between atoms: C9_19  and  C10_20 
REMARK   13  A    between atoms: C11_22  and  O9_23 
REMARK   14  A    between atoms: O9_23  and  C12_24 
REMARK   15  A    between atoms: C15_28  and  O11_29 
REMARK   16  A    between atoms: C16_31  and  O12_32 
REMARK   17  A    between atoms: C17_34  and  O13_35 
REMARK   18  A    between atoms: C18_38  and  O15_40 
REMARK   19  A    between atoms: C21_44  and  O16_45 
REMARK   20  A    between atoms: C22_47  and  O17_48 
REMARK   21  A    between atoms: C23_50  and  O18_51 
ROOT
HETATM    1  C8  UNL     1      38.759  -2.328  16.411  1.00  0.00     0.194 C 
ENDROOT
BRANCH   1   2
HETATM    2  C7  UNL     1      39.268  -3.525  17.149  1.00  0.00     0.205 C 
BRANCH   2   3
HETATM    3  O6  UNL     1      38.719  -3.824  18.372  1.00  0.00    -0.313 OA
BRANCH   3   4
HETATM    4  C6  UNL     1      37.966  -4.958  18.702  1.00  0.00     0.284 C 
HETATM    5  N1  UNL     1      37.775  -5.765  17.737  1.00  0.00    -0.226 N 
ATOM      6  H1  UNL     1      38.168  -5.538  16.823  1.00  0.00     0.198 HD
BRANCH   4   7
HETATM    7  O4  UNL     1      37.484  -5.152  19.986  1.00  0.00    -0.312 OA
BRANCH   7   8
HETATM    8  C5  UNL     1      38.282  -5.381  21.106  1.00  0.00     0.214 C 
BRANCH   8   9
HETATM    9  C4  UNL     1      37.452  -5.488  22.377  1.00  0.00     0.180 C 
HETATM   10  O3  UNL     1      38.162  -5.226  23.508  1.00  0.00    -0.348 OA
HETATM   11  C3  UNL     1      38.208  -3.932  23.925  1.00  0.00     0.301 C 
HETATM   12  C23 UNL     1      36.850  -3.276  24.036  1.00  0.00     0.205 C 
HETATM   13  C22 UNL     1      36.278  -3.270  22.612  1.00  0.00     0.183 C 
HETATM   14  C21 UNL     1      36.199  -4.704  22.182  1.00  0.00     0.180 C 
BRANCH  11  15
HETATM   15  O2  UNL     1      39.020  -3.082  23.144  1.00  0.00    -0.287 OA
BRANCH  15  16
HETATM   16  C2  UNL     1      40.218  -2.561  23.616  1.00  0.00     0.257 C 
HETATM   17  C1  UNL     1      41.540  -3.179  23.317  1.00  0.00     0.126 C 
HETATM   18  O1  UNL     1      40.115  -1.509  24.328  1.00  0.00    -0.266 OA
ENDBRANCH  15  16
ENDBRANCH  11  15
BRANCH  12  19
HETATM   19  O18 UNL     1      37.008  -1.986  24.506  1.00  0.00    -0.388 OA
ATOM     20  H18 UNL     1      37.302  -1.431  23.793  1.00  0.00     0.210 HD
ENDBRANCH  12  19
BRANCH  13  21
HETATM   21  O17 UNL     1      34.984  -2.755  22.606  1.00  0.00    -0.390 OA
ATOM     22  H17 UNL     1      34.715  -2.664  21.699  1.00  0.00     0.210 HD
ENDBRANCH  13  21
BRANCH  14  23
HETATM   23  O16 UNL     1      35.154  -5.304  22.885  1.00  0.00    -0.390 OA
ATOM     24  H16 UNL     1      34.334  -5.153  22.429  1.00  0.00     0.210 HD
ENDBRANCH  14  23
ENDBRANCH   8   9
ENDBRANCH   7   8
ENDBRANCH   4   7
BRANCH   5  25
HETATM   25  O5  UNL     1      37.073  -6.908  17.875  1.00  0.00    -0.286 OA
ATOM     26  H5  UNL     1      37.440  -7.760  17.670  1.00  0.00     0.244 HD
ENDBRANCH   5  25
ENDBRANCH   3   4
ENDBRANCH   2   3
ENDBRANCH   1   2
BRANCH   1  27
HETATM   27  O7  UNL     1      39.864  -1.439  16.340  1.00  0.00    -0.386 OA
BRANCH  27  28
HETATM   28  C9  UNL     1      40.172  -0.833  17.518  1.00  0.00     0.201 C 
BRANCH  28  29
HETATM   29  C10 UNL     1      40.025   0.668  17.470  1.00  0.00     0.170 C 
HETATM   30  O8  UNL     1      39.087   1.125  18.393  1.00  0.00    -0.330 OA
HETATM   31  C11 UNL     1      39.530   1.011  19.701  1.00  0.00     0.418 C 
HETATM   32  O14 UNL     1      40.905   0.954  19.811  1.00  0.00    -0.301 OA
HETATM   33  C18 UNL     1      41.581   1.792  18.959  1.00  0.00     0.179 C 
HETATM   34  C19 UNL     1      41.260   3.252  19.183  1.00  0.00     0.080 C 
HETATM   35  C20 UNL     1      41.334   1.385  17.522  1.00  0.00     0.151 C 
HETATM   36  S1  UNL     1      41.267   2.946  16.560  1.00  0.00    -0.084 SA
BRANCH  31  37
HETATM   37  O9  UNL     1      39.098   2.146  20.386  1.00  0.00    -0.305 OA
BRANCH  37  38
HETATM   38  C12 UNL     1      38.119   1.866  21.318  1.00  0.00     0.297 C 
HETATM   39  O10 UNL     1      37.692   3.095  21.843  1.00  0.00    -0.351 OA
HETATM   40  C13 UNL     1      36.544   2.963  22.603  1.00  0.00     0.152 C 
HETATM   41  C14 UNL     1      36.139   4.358  23.044  1.00  0.00     0.042 C 
HETATM   42  C15 UNL     1      36.803   2.126  23.814  1.00  0.00     0.178 C 
HETATM   43  C16 UNL     1      38.243   1.660  23.810  1.00  0.00     0.183 C 
HETATM   44  C17 UNL     1      38.610   1.035  22.466  1.00  0.00     0.204 C 
BRANCH  42  45
HETATM   45  O11 UNL     1      36.585   2.794  25.003  1.00  0.00    -0.390 OA
ATOM     46  H11 UNL     1      37.306   2.719  25.618  1.00  0.00     0.210 HD
ENDBRANCH  42  45
BRANCH  43  47
HETATM   47  O12 UNL     1      38.343   0.642  24.755  1.00  0.00    -0.390 OA
ATOM     48  H12 UNL     1      37.893  -0.113  24.396  1.00  0.00     0.210 HD
ENDBRANCH  43  47
BRANCH  44  49
HETATM   49  O13 UNL     1      37.981  -0.227  22.454  1.00  0.00    -0.388 OA
ATOM     50  H13 UNL     1      37.983  -0.600  23.328  1.00  0.00     0.210 HD
ENDBRANCH  44  49
ENDBRANCH  37  38
ENDBRANCH  31  37
BRANCH  33  51
HETATM   51  O15 UNL     1      42.946   1.636  19.198  1.00  0.00    -0.364 OA
ATOM     52  H15 UNL     1      43.272   2.449  19.566  1.00  0.00     0.213 HD
ENDBRANCH  33  51
ENDBRANCH  28  29
ENDBRANCH  27  28
ENDBRANCH   1  27
TORSDOF 21
ENDMDL
MODEL 2
REMARK VINA RESULT: -6.438657519      4.005      9.824
REMARK  21 active torsions:
REMARK  status: ('A' for Active; 'I' for Inactive)
REMARK    1  A    between atoms: C2_2  and  O2_4 
REMARK    2  A    between atoms: O2_4  and  C3_5 
REMARK    3  A    between atoms: C4_7  and  C5_8 
REMARK    4  A    between atoms: C5_8  and  O4_9 
REMARK    5  A    between atoms: O4_9  and  C6_10 
REMARK    6  A    between atoms: C6_10  and  O6_15 
REMARK    7  A    between atoms: N1_11  and  O5_13 
REMARK    8  A    between atoms: O6_15  and  C7_16 
REMARK    9  A    between atoms: C7_16  and  C8_17 
REMARK   10  A    between atoms: C8_17  and  O7_18 
REMARK   11  A    between atoms: O7_18  and  C9_19 
REMARK   12  A    between atoms: C9_19  and  C10_20 
REMARK   13  A    between atoms: C11_22  and  O9_23 
REMARK   14  A    between atoms: O9_23  and  C12_24 
REMARK   15  A    between atoms: C15_28  and  O11_29 
REMARK   16  A    between atoms: C16_31  and  O12_32 
REMARK   17  A    between atoms: C17_34  and  O13_35 
REMARK   18  A    between atoms: C18_38  and  O15_40 
REMARK   19  A    between atoms: C21_44  and  O16_45 
REMARK   20  A    between atoms: C22_47  and  O17_48 
REMARK   21  A    between atoms: C23_50  and  O18_51 
ROOT
HETATM    1  C8  UNL     1      35.223   1.689  24.948  1.00  0.00     0.194 C 
ENDROOT
BRANCH   1   2
HETATM    2  C7  UNL     1      35.691   3.102  24.805  1.00  0.00     0.205 C 
BRANCH   2   3
HETATM    3  O6  UNL     1      34.777   4.062  24.443  1.00  0.00    -0.313 OA
BRANCH   3   4
HETATM    4  C6  UNL     1      34.952   5.072  23.488  1.00  0.00     0.284 C 
HETATM    5  N1  UNL     1      35.736   4.767  22.534  1.00  0.00    -0.226 N 
ATOM      6  H1  UNL     1      36.168   3.843  22.529  1.00  0.00     0.198 HD
BRANCH   4   7
HETATM    7  O4  UNL     1      34.307   6.292  23.607  1.00  0.00    -0.312 OA
BRANCH   7   8
HETATM    8  C5  UNL     1      34.352   7.105  24.738  1.00  0.00     0.214 C 
BRANCH   8   9
HETATM    9  C4  UNL     1      34.337   8.582  24.373  1.00  0.00     0.180 C 
HETATM   10  O3  UNL     1      35.554   9.179  24.484  1.00  0.00    -0.348 OA
HETATM   11  C3  UNL     1      36.359   9.155  23.387  1.00  0.00     0.301 C 
HETATM   12  C23 UNL     1      35.687   9.646  22.124  1.00  0.00     0.205 C 
HETATM   13  C22 UNL     1      34.538   8.663  21.861  1.00  0.00     0.183 C 
HETATM   14  C21 UNL     1      33.642   8.729  23.062  1.00  0.00     0.180 C 
BRANCH  11  15
HETATM   15  O2  UNL     1      36.932   7.899  23.094  1.00  0.00    -0.287 OA
BRANCH  15  16
HETATM   16  C2  UNL     1      37.980   7.370  23.836  1.00  0.00     0.257 C 
HETATM   17  C1  UNL     1      38.752   8.170  24.827  1.00  0.00     0.126 C 
HETATM   18  O1  UNL     1      38.243   6.143  23.613  1.00  0.00    -0.266 OA
ENDBRANCH  15  16
ENDBRANCH  11  15
BRANCH  12  19
HETATM   19  O18 UNL     1      36.600   9.621  21.088  1.00  0.00    -0.388 OA
ATOM     20  H18 UNL     1      36.620  10.475  20.672  1.00  0.00     0.210 HD
ENDBRANCH  12  19
BRANCH  13  21
HETATM   21  O17 UNL     1      33.793   9.066  20.755  1.00  0.00    -0.390 OA
ATOM     22  H17 UNL     1      34.340   9.642  20.234  1.00  0.00     0.210 HD
ENDBRANCH  13  21
BRANCH  14  23
HETATM   23  O16 UNL     1      32.963   9.947  23.021  1.00  0.00    -0.390 OA
ATOM     24  H16 UNL     1      33.230  10.438  22.253  1.00  0.00     0.210 HD
ENDBRANCH  14  23
ENDBRANCH   8   9
ENDBRANCH   7   8
ENDBRANCH   4   7
BRANCH   5  25
HETATM   25  O5  UNL     1      36.018   5.619  21.527  1.00  0.00    -0.286 OA
ATOM     26  H5  UNL     1      35.443   5.736  20.780  1.00  0.00     0.244 HD
ENDBRANCH   5  25
ENDBRANCH   3   4
ENDBRANCH   2   3
ENDBRANCH   1   2
BRANCH   1  27
HETATM   27  O7  UNL     1      36.331   0.890  24.558  1.00  0.00    -0.386 OA
BRANCH  27  28
HETATM   28  C9  UNL     1      37.259   1.547  23.812  1.00  0.00     0.201 C 
BRANCH  28  29
HETATM   29  C10 UNL     1      38.657   1.010  23.996  1.00  0.00     0.170 C 
HETATM   30  O8  UNL     1      38.654  -0.362  24.241  1.00  0.00    -0.330 OA
HETATM   31  C11 UNL     1      38.303  -1.101  23.123  1.00  0.00     0.418 C 
HETATM   32  O14 UNL     1      38.510  -0.429  21.934  1.00  0.00    -0.301 OA
HETATM   33  C18 UNL     1      39.660   0.320  21.894  1.00  0.00     0.179 C 
HETATM   34  C19 UNL     1      40.913  -0.509  22.062  1.00  0.00     0.080 C 
HETATM   35  C20 UNL     1      39.593   1.436  22.915  1.00  0.00     0.151 C 
HETATM   36  S1  UNL     1      41.300   1.630  23.561  1.00  0.00    -0.084 SA
BRANCH  31  37
HETATM   37  O9  UNL     1      39.108  -2.239  23.108  1.00  0.00    -0.305 OA
BRANCH  37  38
HETATM   38  C12 UNL     1      38.392  -3.401  23.317  1.00  0.00     0.297 C 
HETATM   39  O10 UNL     1      38.685  -4.259  22.247  1.00  0.00    -0.351 OA
HETATM   40  C13 UNL     1      38.224  -5.544  22.472  1.00  0.00     0.152 C 
HETATM   41  C14 UNL     1      38.669  -6.390  21.292  1.00  0.00     0.042 C 
HETATM   42  C15 UNL     1      36.731  -5.565  22.551  1.00  0.00     0.178 C 
HETATM   43  C16 UNL     1      36.195  -4.160  22.387  1.00  0.00     0.183 C 
HETATM   44  C17 UNL     1      36.907  -3.191  23.329  1.00  0.00     0.204 C 
BRANCH  42  45
HETATM   45  O11 UNL     1      36.140  -6.352  21.582  1.00  0.00    -0.390 OA
ATOM     46  H11 UNL     1      35.252  -6.614  21.796  1.00  0.00     0.210 HD
ENDBRANCH  42  45
BRANCH  43  47
HETATM   47  O12 UNL     1      34.862  -4.186  22.788  1.00  0.00    -0.390 OA
ATOM     48  H12 UNL     1      34.489  -3.341  22.566  1.00  0.00     0.210 HD
ENDBRANCH  43  47
BRANCH  44  49
HETATM   49  O13 UNL     1      36.390  -3.466  24.612  1.00  0.00    -0.388 OA
ATOM     50  H13 UNL     1      36.423  -4.400  24.783  1.00  0.00     0.210 HD
ENDBRANCH  44  49
ENDBRANCH  37  38
ENDBRANCH  31  37
BRANCH  33  51
HETATM   51  O15 UNL     1      39.738   0.919  20.637  1.00  0.00    -0.364 OA
ATOM     52  H15 UNL     1      40.416   0.474  20.143  1.00  0.00     0.213 HD
ENDBRANCH  33  51
ENDBRANCH  28  29
ENDBRANCH  27  28
ENDBRANCH   1  27
TORSDOF 21
ENDMDL
MODEL 3
REMARK VINA RESULT: -6.389888832      2.629      6.918
REMARK  21 active torsions:
REMARK  status: ('A' for Active; 'I' for Inactive)
REMARK    1  A    between atoms: C2_2  and  O2_4 
REMARK    2  A    between atoms: O2_4  and  C3_5 
REMARK    3  A    between atoms: C4_7  and  C5_8 
REMARK    4  A    between atoms: C5_8  and  O4_9 
REMARK    5  A    between atoms: O4_9  and  C6_10 
REMARK    6  A    between atoms: C6_10  and  O6_15 
REMARK    7  A    between atoms: N1_11  and  O5_13 
REMARK    8  A    between atoms: O6_15  and  C7_16 
REMARK    9  A    between atoms: C7_16  and  C8_17 
REMARK   10  A    between atoms: C8_17  and  O7_18 
REMARK   11  A    between atoms: O7_18  and  C9_19 
REMARK   12  A    between atoms: C9_19  and  C10_20 
REMARK   13  A    between atoms: C11_22  and  O9_23 
REMARK   14  A    between atoms: O9_23  and  C12_24 
REMARK   15  A    between atoms: C15_28  and  O11_29 
REMARK   16  A    between atoms: C16_31  and  O12_32 
REMARK   17  A    between atoms: C17_34  and  O13_35 
REMARK   18  A    between atoms: C18_38  and  O15_40 
REMARK   19  A    between atoms: C21_44  and  O16_45 
REMARK   20  A    between atoms: C22_47  and  O17_48 
REMARK   21  A    between atoms: C23_50  and  O18_51 
ROOT
HETATM    1  C8  UNL     1      40.867  -0.638  19.054  1.00  0.00     0.194 C 
ENDROOT
BRANCH   1   2
HETATM    2  C7  UNL     1      40.256  -0.192  17.764  1.00  0.00     0.205 C 
BRANCH   2   3
HETATM    3  O6  UNL     1      39.647  -1.132  16.968  1.00  0.00    -0.313 OA
BRANCH   3   4
HETATM    4  C6  UNL     1      38.715  -0.895  15.949  1.00  0.00     0.284 C 
HETATM    5  N1  UNL     1      38.455   0.334  15.746  1.00  0.00    -0.226 N 
ATOM      6  H1  UNL     1      38.924   1.036  16.318  1.00  0.00     0.198 HD
BRANCH   4   7
HETATM    7  O4  UNL     1      38.143  -1.939  15.242  1.00  0.00    -0.312 OA
BRANCH   7   8
HETATM    8  C5  UNL     1      37.600  -3.085  15.821  1.00  0.00     0.214 C 
BRANCH   8   9
HETATM    9  C4  UNL     1      37.490  -4.226  14.819  1.00  0.00     0.180 C 
HETATM   10  O3  UNL     1      38.244  -5.309  15.150  1.00  0.00    -0.348 OA
HETATM   11  C3  UNL     1      37.660  -6.254  15.937  1.00  0.00     0.301 C 
HETATM   12  C23 UNL     1      36.317  -6.728  15.429  1.00  0.00     0.205 C 
HETATM   13  C22 UNL     1      35.406  -5.493  15.457  1.00  0.00     0.183 C 
HETATM   14  C21 UNL     1      36.044  -4.477  14.557  1.00  0.00     0.180 C 
BRANCH  11  15
HETATM   15  O2  UNL     1      37.488  -5.882  17.288  1.00  0.00    -0.287 OA
BRANCH  15  16
HETATM   16  C2  UNL     1      38.163  -6.517  18.323  1.00  0.00     0.257 C 
HETATM   17  C1  UNL     1      39.622  -6.343  18.561  1.00  0.00     0.126 C 
HETATM   18  O1  UNL     1      37.445  -7.265  19.065  1.00  0.00    -0.266 OA
ENDBRANCH  15  16
ENDBRANCH  11  15
BRANCH  12  19
HETATM   19  O18 UNL     1      35.837  -7.711  16.273  1.00  0.00    -0.388 OA
ATOM     20  H18 UNL     1      35.073  -7.380  16.731  1.00  0.00     0.210 HD
ENDBRANCH  12  19
BRANCH  13  21
HETATM   21  O17 UNL     1      34.153  -5.797  14.931  1.00  0.00    -0.390 OA
ATOM     22  H17 UNL     1      33.572  -5.982  15.659  1.00  0.00     0.210 HD
ENDBRANCH  13  21
BRANCH  14  23
HETATM   23  O16 UNL     1      35.871  -4.904  13.241  1.00  0.00    -0.390 OA
ATOM     24  H16 UNL     1      34.971  -4.759  12.972  1.00  0.00     0.210 HD
ENDBRANCH  14  23
ENDBRANCH   8   9
ENDBRANCH   7   8
ENDBRANCH   4   7
BRANCH   5  25
HETATM   25  O5  UNL     1      37.582   0.744  14.804  1.00  0.00    -0.286 OA
ATOM     26  H5  UNL     1      36.677   0.456  14.786  1.00  0.00     0.244 HD
ENDBRANCH   5  25
ENDBRANCH   3   4
ENDBRANCH   2   3
ENDBRANCH   1   2
BRANCH   1  27
HETATM   27  O7  UNL     1      40.592   0.409  19.974  1.00  0.00    -0.386 OA
BRANCH  27  28
HETATM   28  C9  UNL     1      40.304  -0.015  21.235  1.00  0.00     0.201 C 
BRANCH  28  29
HETATM   29  C10 UNL     1      38.887   0.289  21.653  1.00  0.00     0.170 C 
HETATM   30  O8  UNL     1      38.179  -0.872  21.960  1.00  0.00    -0.330 OA
HETATM   31  C11 UNL     1      38.612  -1.461  23.137  1.00  0.00     0.418 C 
HETATM   32  O14 UNL     1      39.256  -0.583  23.986  1.00  0.00    -0.301 OA
HETATM   33  C18 UNL     1      38.696   0.669  24.044  1.00  0.00     0.179 C 
HETATM   34  C19 UNL     1      37.271   0.659  24.549  1.00  0.00     0.080 C 
HETATM   35  C20 UNL     1      38.801   1.351  22.697  1.00  0.00     0.151 C 
HETATM   36  S1  UNL     1      37.263   2.336  22.509  1.00  0.00    -0.084 SA
BRANCH  31  37
HETATM   37  O9  UNL     1      37.482  -1.938  23.802  1.00  0.00    -0.305 OA
BRANCH  37  38
HETATM   38  C12 UNL     1      37.386  -3.315  23.769  1.00  0.00     0.297 C 
HETATM   39  O10 UNL     1      38.662  -3.806  23.455  1.00  0.00    -0.351 OA
HETATM   40  C13 UNL     1      38.749  -5.174  23.637  1.00  0.00     0.152 C 
HETATM   41  C14 UNL     1      40.187  -5.571  23.347  1.00  0.00     0.042 C 
HETATM   42  C15 UNL     1      37.845  -5.894  22.690  1.00  0.00     0.178 C 
HETATM   43  C16 UNL     1      37.092  -4.889  21.846  1.00  0.00     0.183 C 
HETATM   44  C17 UNL     1      36.440  -3.820  22.720  1.00  0.00     0.204 C 
BRANCH  42  45
HETATM   45  O11 UNL     1      38.512  -6.745  21.830  1.00  0.00    -0.390 OA
ATOM     46  H11 UNL     1      39.160  -7.290  22.262  1.00  0.00     0.210 HD
ENDBRANCH  42  45
BRANCH  43  47
HETATM   47  O12 UNL     1      36.050  -5.578  21.229  1.00  0.00    -0.390 OA
ATOM     48  H12 UNL     1      36.101  -5.383  20.301  1.00  0.00     0.210 HD
ENDBRANCH  43  47
BRANCH  44  49
HETATM   49  O13 UNL     1      35.337  -4.454  23.328  1.00  0.00    -0.388 OA
ATOM     50  H13 UNL     1      35.425  -5.397  23.262  1.00  0.00     0.210 HD
ENDBRANCH  44  49
ENDBRANCH  37  38
ENDBRANCH  31  37
BRANCH  33  51
HETATM   51  O15 UNL     1      39.439   1.430  24.947  1.00  0.00    -0.364 OA
ATOM     52  H15 UNL     1      38.866   1.675  25.663  1.00  0.00     0.213 HD
ENDBRANCH  33  51
ENDBRANCH  28  29
ENDBRANCH  27  28
ENDBRANCH   1  27
TORSDOF 21
ENDMDL
MODEL 4
REMARK VINA RESULT: -6.379262562      3.376      8.350
REMARK  21 active torsions:
REMARK  status: ('A' for Active; 'I' for Inactive)
REMARK    1  A    between atoms: C2_2  and  O2_4 
REMARK    2  A    between atoms: O2_4  and  C3_5 
REMARK    3  A    between atoms: C4_7  and  C5_8 
REMARK    4  A    between atoms: C5_8  and  O4_9 
REMARK    5  A    between atoms: O4_9  and  C6_10 
REMARK    6  A    between atoms: C6_10  and  O6_15 
REMARK    7  A    between atoms: N1_11  and  O5_13 
REMARK    8  A    between atoms: O6_15  and  C7_16 
REMARK    9  A    between atoms: C7_16  and  C8_17 
REMARK   10  A    between atoms: C8_17  and  O7_18 
REMARK   11  A    between atoms: O7_18  and  C9_19 
REMARK   12  A    between atoms: C9_19  and  C10_20 
REMARK   13  A    between atoms: C11_22  and  O9_23 
REMARK   14  A    between atoms: O9_23  and  C12_24 
REMARK   15  A    between atoms: C15_28  and  O11_29 
REMARK   16  A    between atoms: C16_31  and  O12_32 
REMARK   17  A    between atoms: C17_34  and  O13_35 
REMARK   18  A    between atoms: C18_38  and  O15_40 
REMARK   19  A    between atoms: C21_44  and  O16_45 
REMARK   20  A    between atoms: C22_47  and  O17_48 
REMARK   21  A    between atoms: C23_50  and  O18_51 
ROOT
HETATM    1  C8  UNL     1      39.592  -4.873  21.505  1.00  0.00     0.194 C 
ENDROOT
BRANCH   1   2
HETATM    2  C7  UNL     1      38.768  -3.726  21.998  1.00  0.00     0.205 C 
BRANCH   2   3
HETATM    3  O6  UNL     1      37.482  -3.594  21.531  1.00  0.00    -0.313 OA
BRANCH   3   4
HETATM    4  C6  UNL     1      36.302  -3.684  22.281  1.00  0.00     0.284 C 
HETATM    5  N1  UNL     1      35.941  -4.871  22.559  1.00  0.00    -0.226 N 
ATOM      6  H1  UNL     1      36.514  -5.648  22.230  1.00  0.00     0.198 HD
BRANCH   4   7
HETATM    7  O4  UNL     1      35.610  -2.548  22.669  1.00  0.00    -0.312 OA
BRANCH   7   8
HETATM    8  C5  UNL     1      36.139  -1.259  22.669  1.00  0.00     0.214 C 
BRANCH   8   9
HETATM    9  C4  UNL     1      36.868  -0.949  23.970  1.00  0.00     0.180 C 
HETATM   10  O3  UNL     1      38.196  -1.239  23.926  1.00  0.00    -0.348 OA
HETATM   11  C3  UNL     1      39.032  -0.255  23.495  1.00  0.00     0.301 C 
HETATM   12  C23 UNL     1      38.841   1.065  24.208  1.00  0.00     0.205 C 
HETATM   13  C22 UNL     1      37.412   1.511  23.875  1.00  0.00     0.183 C 
HETATM   14  C21 UNL     1      36.503   0.435  24.388  1.00  0.00     0.180 C 
BRANCH  11  15
HETATM   15  O2  UNL     1      38.981   0.008  22.110  1.00  0.00    -0.287 OA
BRANCH  15  16
HETATM   16  C2  UNL     1      40.015  -0.339  21.250  1.00  0.00     0.257 C 
HETATM   17  C1  UNL     1      41.273  -0.983  21.718  1.00  0.00     0.126 C 
HETATM   18  O1  UNL     1      39.816  -0.069  20.019  1.00  0.00    -0.266 OA
ENDBRANCH  15  16
ENDBRANCH  11  15
BRANCH  12  19
HETATM   19  O18 UNL     1      39.763   1.975  23.727  1.00  0.00    -0.388 OA
ATOM     20  H18 UNL     1      40.635   1.702  23.991  1.00  0.00     0.210 HD
ENDBRANCH  12  19
BRANCH  13  21
HETATM   21  O17 UNL     1      37.096   2.688  24.549  1.00  0.00    -0.390 OA
ATOM     22  H17 UNL     1      37.331   3.416  23.984  1.00  0.00     0.210 HD
ENDBRANCH  13  21
BRANCH  14  23
HETATM   23  O16 UNL     1      36.488   0.517  25.781  1.00  0.00    -0.390 OA
ATOM     24  H16 UNL     1      37.079  -0.130  26.147  1.00  0.00     0.210 HD
ENDBRANCH  14  23
ENDBRANCH   8   9
ENDBRANCH   7   8
ENDBRANCH   4   7
BRANCH   5  25
HETATM   25  O5  UNL     1      34.830  -5.142  23.273  1.00  0.00    -0.286 OA
ATOM     26  H5  UNL     1      34.368  -5.970  23.205  1.00  0.00     0.244 HD
ENDBRANCH   5  25
ENDBRANCH   3   4
ENDBRANCH   2   3
ENDBRANCH   1   2
BRANCH   1  27
HETATM   27  O7  UNL     1      39.113  -6.005  22.215  1.00  0.00    -0.386 OA
BRANCH  27  28
HETATM   28  C9  UNL     1      38.989  -7.130  21.460  1.00  0.00     0.201 C 
BRANCH  28  29
HETATM   29  C10 UNL     1      37.559  -7.452  21.104  1.00  0.00     0.170 C 
HETATM   30  O8  UNL     1      37.035  -6.536  20.194  1.00  0.00    -0.330 OA
HETATM   31  C11 UNL     1      37.588  -6.667  18.930  1.00  0.00     0.418 C 
HETATM   32  O14 UNL     1      38.131  -7.914  18.696  1.00  0.00    -0.301 OA
HETATM   33  C18 UNL     1      37.401  -8.960  19.206  1.00  0.00     0.179 C 
HETATM   34  C19 UNL     1      36.011  -9.055  18.620  1.00  0.00     0.080 C 
HETATM   35  C20 UNL     1      37.361  -8.880  20.717  1.00  0.00     0.151 C 
HETATM   36  S1  UNL     1      35.693  -9.469  21.209  1.00  0.00    -0.084 SA
BRANCH  31  37
HETATM   37  O9  UNL     1      36.562  -6.473  18.006  1.00  0.00    -0.305 OA
BRANCH  37  38
HETATM   38  C12 UNL     1      37.027  -6.083  16.767  1.00  0.00     0.297 C 
HETATM   39  O10 UNL     1      37.143  -4.685  16.796  1.00  0.00    -0.351 OA
HETATM   40  C13 UNL     1      37.834  -4.200  15.700  1.00  0.00     0.152 C 
HETATM   41  C14 UNL     1      37.964  -2.698  15.885  1.00  0.00     0.042 C 
HETATM   42  C15 UNL     1      37.082  -4.471  14.437  1.00  0.00     0.178 C 
HETATM   43  C16 UNL     1      35.808  -5.223  14.757  1.00  0.00     0.183 C 
HETATM   44  C17 UNL     1      36.096  -6.432  15.644  1.00  0.00     0.204 C 
BRANCH  42  45
HETATM   45  O11 UNL     1      36.729  -3.327  13.749  1.00  0.00    -0.390 OA
ATOM     46  H11 UNL     1      36.186  -2.733  14.254  1.00  0.00     0.210 HD
ENDBRANCH  42  45
BRANCH  43  47
HETATM   47  O12 UNL     1      35.323  -5.728  13.553  1.00  0.00    -0.390 OA
ATOM     48  H12 UNL     1      35.790  -6.538  13.385  1.00  0.00     0.210 HD
ENDBRANCH  43  47
BRANCH  44  49
HETATM   49  O13 UNL     1      36.696  -7.386  14.796  1.00  0.00    -0.388 OA
ATOM     50  H13 UNL     1      36.489  -8.263  15.095  1.00  0.00     0.210 HD
ENDBRANCH  44  49
ENDBRANCH  37  38
ENDBRANCH  31  37
BRANCH  33  51
HETATM   51  O15 UNL     1      38.061 -10.144  18.877  1.00  0.00    -0.364 OA
ATOM     52  H15 UNL     1      37.973 -10.277  17.941  1.00  0.00     0.213 HD
ENDBRANCH  33  51
ENDBRANCH  28  29
ENDBRANCH  27  28
ENDBRANCH   1  27
TORSDOF 21
ENDMDL
MODEL 5
REMARK VINA RESULT: -6.331823573      3.854      9.198
REMARK  21 active torsions:
REMARK  status: ('A' for Active; 'I' for Inactive)
REMARK    1  A    between atoms: C2_2  and  O2_4 
REMARK    2  A    between atoms: O2_4  and  C3_5 
REMARK    3  A    between atoms: C4_7  and  C5_8 
REMARK    4  A    between atoms: C5_8  and  O4_9 
REMARK    5  A    between atoms: O4_9  and  C6_10 
REMARK    6  A    between atoms: C6_10  and  O6_15 
REMARK    7  A    between atoms: N1_11  and  O5_13 
REMARK    8  A    between atoms: O6_15  and  C7_16 
REMARK    9  A    between atoms: C7_16  and  C8_17 
REMARK   10  A    between atoms: C8_17  and  O7_18 
REMARK   11  A    between atoms: O7_18  and  C9_19 
REMARK   12  A    between atoms: C9_19  and  C10_20 
REMARK   13  A    between atoms: C11_22  and  O9_23 
REMARK   14  A    between atoms: O9_23  and  C12_24 
REMARK   15  A    between atoms: C15_28  and  O11_29 
REMARK   16  A    between atoms: C16_31  and  O12_32 
REMARK   17  A    between atoms: C17_34  and  O13_35 
REMARK   18  A    between atoms: C18_38  and  O15_40 
REMARK   19  A    between atoms: C21_44  and  O16_45 
REMARK   20  A    between atoms: C22_47  and  O17_48 
REMARK   21  A    between atoms: C23_50  and  O18_51 
ROOT
HETATM    1  C8  UNL     1      38.475   3.158  21.663  1.00  0.00     0.194 C 
ENDROOT
BRANCH   1   2
HETATM    2  C7  UNL     1      37.188   2.520  22.078  1.00  0.00     0.205 C 
BRANCH   2   3
HETATM    3  O6  UNL     1      36.176   3.327  22.541  1.00  0.00    -0.313 OA
BRANCH   3   4
HETATM    4  C6  UNL     1      35.507   3.218  23.767  1.00  0.00     0.284 C 
HETATM    5  N1  UNL     1      35.392   2.028  24.202  1.00  0.00    -0.226 N 
ATOM      6  H1  UNL     1      35.780   1.263  23.649  1.00  0.00     0.198 HD
BRANCH   4   7
HETATM    7  O4  UNL     1      35.023   4.337  24.423  1.00  0.00    -0.312 OA
BRANCH   7   8
HETATM    8  C5  UNL     1      35.447   5.643  24.181  1.00  0.00     0.214 C 
BRANCH   8   9
HETATM    9  C4  UNL     1      34.616   6.658  24.954  1.00  0.00     0.180 C 
HETATM   10  O3  UNL     1      35.366   7.512  25.701  1.00  0.00    -0.348 OA
HETATM   11  C3  UNL     1      35.784   8.660  25.099  1.00  0.00     0.301 C 
HETATM   12  C23 UNL     1      34.673   9.439  24.431  1.00  0.00     0.205 C 
HETATM   13  C22 UNL     1      34.133   8.522  23.326  1.00  0.00     0.183 C 
HETATM   14  C21 UNL     1      33.645   7.280  24.009  1.00  0.00     0.180 C 
BRANCH  11  15
HETATM   15  O2  UNL     1      36.810   8.494  24.145  1.00  0.00    -0.287 OA
BRANCH  15  16
HETATM   16  C2  UNL     1      38.098   8.113  24.499  1.00  0.00     0.257 C 
HETATM   17  C1  UNL     1      38.904   7.151  23.698  1.00  0.00     0.126 C 
HETATM   18  O1  UNL     1      38.551   8.645  25.566  1.00  0.00    -0.266 OA
ENDBRANCH  15  16
ENDBRANCH  11  15
BRANCH  12  19
HETATM   19  O18 UNL     1      35.196  10.599  23.894  1.00  0.00    -0.388 OA
ATOM     20  H18 UNL     1      34.515  11.261  23.864  1.00  0.00     0.210 HD
ENDBRANCH  12  19
BRANCH  13  21
HETATM   21  O17 UNL     1      33.044   9.110  22.689  1.00  0.00    -0.390 OA
ATOM     22  H17 UNL     1      32.694   8.477  22.073  1.00  0.00     0.210 HD
ENDBRANCH  13  21
BRANCH  14  23
HETATM   23  O16 UNL     1      32.468   7.599  24.685  1.00  0.00    -0.390 OA
ATOM     24  H16 UNL     1      32.515   8.492  25.007  1.00  0.00     0.210 HD
ENDBRANCH  14  23
ENDBRANCH   8   9
ENDBRANCH   7   8
ENDBRANCH   4   7
BRANCH   5  25
HETATM   25  O5  UNL     1      34.777   1.738  25.367  1.00  0.00    -0.286 OA
ATOM     26  H5  UNL     1      34.921   2.242  26.159  1.00  0.00     0.244 HD
ENDBRANCH   5  25
ENDBRANCH   3   4
ENDBRANCH   2   3
ENDBRANCH   1   2
BRANCH   1  27
HETATM   27  O7  UNL     1      39.436   2.696  22.601  1.00  0.00    -0.386 OA
BRANCH  27  28
HETATM   28  C9  UNL     1      38.980   1.728  23.440  1.00  0.00     0.201 C 
BRANCH  28  29
HETATM   29  C10 UNL     1      40.086   0.922  24.074  1.00  0.00     0.170 C 
HETATM   30  O8  UNL     1      39.618  -0.290  24.577  1.00  0.00    -0.330 OA
HETATM   31  C11 UNL     1      39.272  -1.182  23.576  1.00  0.00     0.418 C 
HETATM   32  O14 UNL     1      39.890  -0.920  22.370  1.00  0.00    -0.301 OA
HETATM   33  C18 UNL     1      41.201  -0.526  22.474  1.00  0.00     0.179 C 
HETATM   34  C19 UNL     1      42.086  -1.570  23.115  1.00  0.00     0.080 C 
HETATM   35  C20 UNL     1      41.292   0.798  23.203  1.00  0.00     0.151 C 
HETATM   36  S1  UNL     1      42.825   0.717  24.209  1.00  0.00    -0.084 SA
BRANCH  31  37
HETATM   37  O9  UNL     1      39.677  -2.450  23.991  1.00  0.00    -0.305 OA
BRANCH  37  38
HETATM   38  C12 UNL     1      38.678  -3.395  23.871  1.00  0.00     0.297 C 
HETATM   39  O10 UNL     1      38.936  -4.115  22.695  1.00  0.00    -0.351 OA
HETATM   40  C13 UNL     1      38.148  -5.248  22.598  1.00  0.00     0.152 C 
HETATM   41  C14 UNL     1      38.574  -5.979  21.337  1.00  0.00     0.042 C 
HETATM   42  C15 UNL     1      36.704  -4.881  22.483  1.00  0.00     0.178 C 
HETATM   43  C16 UNL     1      36.558  -3.376  22.540  1.00  0.00     0.183 C 
HETATM   44  C17 UNL     1      37.308  -2.800  23.740  1.00  0.00     0.204 C 
BRANCH  42  45
HETATM   45  O11 UNL     1      36.117  -5.312  21.310  1.00  0.00    -0.390 OA
ATOM     46  H11 UNL     1      36.733  -5.420  20.595  1.00  0.00     0.210 HD
ENDBRANCH  42  45
BRANCH  43  47
HETATM   47  O12 UNL     1      35.208  -3.108  22.758  1.00  0.00    -0.390 OA
ATOM     48  H12 UNL     1      34.804  -3.013  21.904  1.00  0.00     0.210 HD
ENDBRANCH  43  47
BRANCH  44  49
HETATM   49  O13 UNL     1      36.526  -3.130  24.866  1.00  0.00    -0.388 OA
ATOM     50  H13 UNL     1      35.605  -3.010  24.669  1.00  0.00     0.210 HD
ENDBRANCH  44  49
ENDBRANCH  37  38
ENDBRANCH  31  37
BRANCH  33  51
HETATM   51  O15 UNL     1      41.690  -0.316  21.185  1.00  0.00    -0.364 OA
ATOM     52  H15 UNL     1      42.354  -0.974  21.014  1.00  0.00     0.213 HD
ENDBRANCH  33  51
ENDBRANCH  28  29
ENDBRANCH  27  28
ENDBRANCH   1  27
TORSDOF 21
ENDMDL
