MODEL 1
REMARK VINA RESULT: -7.447614933      0.000      0.000
REMARK  22 active torsions:
REMARK  status: ('A' for Active; 'I' for Inactive)
REMARK    1  A    between atoms: C2_2  and  O2_4 
REMARK    2  A    between atoms: O2_4  and  C3_5 
REMARK    3  A    between atoms: C3_5  and  C4_6 
REMARK    4  A    between atoms: C4_6  and  O3_7 
REMARK    5  A    between atoms: O3_7  and  C5_8 
REMARK    6  A    between atoms: C7_11  and  C8_12 
REMARK    7  A    between atoms: C9_16  and  O8_17 
REMARK    8  A    between atoms: O8_17  and  C10_18 
REMARK    9  A    between atoms: C10_18  and  C11_19 
REMARK   10  A    between atoms: C12_20  and  O9_21 
REMARK   11  A    between atoms: C13_23  and  O10_24 
REMARK   12  A    between atoms: C14_26  and  O11_27 
REMARK   13  A    between atoms: C15_29  and  O12_30 
REMARK   14  A    between atoms: O12_30  and  C16_31 
REMARK   15  A    between atoms: C16_31  and  C17_33 
REMARK   16  A    between atoms: C19_35  and  O14_36 
REMARK   17  A    between atoms: C20_38  and  O15_39 
REMARK   18  A    between atoms: C21_41  and  O16_42 
REMARK   19  A    between atoms: C23_45  and  O17_46 
REMARK   20  A    between atoms: O17_46  and  C24_47 
REMARK   21  A    between atoms: N1_48  and  O18_50 
REMARK   22  A    between atoms: C25_52  and  O19_53 
ROOT
HETATM    1  C11 UNL     1      38.882  -3.941  22.705  1.00  0.00     0.073 C 
HETATM    2  C12 UNL     1      40.027  -4.880  22.975  1.00  0.00     0.158 C 
HETATM    3  C13 UNL     1      40.726  -5.326  21.740  1.00  0.00     0.178 C 
HETATM    4  C14 UNL     1      39.741  -5.832  20.674  1.00  0.00     0.181 C 
HETATM    5  C15 UNL     1      38.826  -4.678  20.404  1.00  0.00     0.193 C 
HETATM    6  C23 UNL     1      37.962  -4.509  21.664  1.00  0.00     0.170 C 
ENDROOT
BRANCH   1   7
HETATM    7  C10 UNL     1      38.261  -3.408  23.930  1.00  0.00     0.181 C 
BRANCH   7   8
HETATM    8  O8  UNL     1      38.309  -2.023  23.962  1.00  0.00    -0.358 OA
BRANCH   8   9
HETATM    9  C9  UNL     1      37.366  -1.387  23.197  1.00  0.00     0.292 C 
HETATM   10  O7  UNL     1      37.969  -0.791  22.098  1.00  0.00    -0.339 OA
HETATM   11  C7  UNL     1      37.723   0.585  22.155  1.00  0.00     0.265 C 
HETATM   12  C4  UNL     1      37.940   0.788  23.662  1.00  0.00     0.159 C 
HETATM   13  C25 UNL     1      36.832  -0.199  24.069  1.00  0.00     0.213 C 
BRANCH  11  14
HETATM   14  C8  UNL     1      38.517   1.363  21.253  1.00  0.00     0.206 C 
HETATM   15  O5  UNL     1      38.077   2.424  20.736  1.00  0.00    -0.646 OA
HETATM   16  O6  UNL     1      39.826   0.988  20.890  1.00  0.00    -0.646 OA
ENDBRANCH  11  14
BRANCH  12  17
HETATM   17  C3  UNL     1      37.822   2.160  24.147  1.00  0.00     0.223 C 
BRANCH  17  18
HETATM   18  O2  UNL     1      36.843   3.025  23.779  1.00  0.00    -0.319 OA
BRANCH  18  19
HETATM   19  C2  UNL     1      35.716   3.435  24.445  1.00  0.00     0.254 C 
HETATM   20  C1  UNL     1      35.049   4.744  24.177  1.00  0.00     0.126 C 
HETATM   21  O1  UNL     1      35.211   2.691  25.322  1.00  0.00    -0.266 OA
ENDBRANCH  18  19
ENDBRANCH  17  18
ENDBRANCH  12  17
BRANCH  12  22
HETATM   22  O3  UNL     1      39.123   0.143  24.073  1.00  0.00    -0.302 OA
BRANCH  22  23
HETATM   23  C5  UNL     1      40.229   0.623  24.675  1.00  0.00     0.255 C 
HETATM   24  C6  UNL     1      41.204   1.495  23.922  1.00  0.00     0.126 C 
HETATM   25  O4  UNL     1      40.444   0.335  25.875  1.00  0.00    -0.266 OA
ENDBRANCH  22  23
ENDBRANCH  12  22
BRANCH  13  26
HETATM   26  O19 UNL     1      35.616   0.073  23.464  1.00  0.00    -0.387 OA
ATOM     27  H19 UNL     1      35.538  -0.310  22.598  1.00  0.00     0.210 HD
ENDBRANCH  13  26
ENDBRANCH   8   9
ENDBRANCH   7   8
ENDBRANCH   1   7
BRANCH   2  28
HETATM   28  O9  UNL     1      39.649  -5.928  23.803  1.00  0.00    -0.392 OA
ATOM     29  H9  UNL     1      39.054  -5.641  24.485  1.00  0.00     0.210 HD
ENDBRANCH   2  28
BRANCH   6  30
HETATM   30  O17 UNL     1      37.468  -5.781  21.976  1.00  0.00    -0.336 OA
BRANCH  30  31
HETATM   31  C24 UNL     1      36.183  -5.971  22.458  1.00  0.00     0.248 C 
HETATM   32  N1  UNL     1      35.435  -4.907  22.377  1.00  0.00    -0.259 N 
ATOM     33  H1  UNL     1      35.799  -4.036  21.989  1.00  0.00     0.195 HD
BRANCH  32  34
HETATM   34  O18 UNL     1      34.146  -4.992  22.827  1.00  0.00    -0.289 OA
ATOM     35  H18 UNL     1      33.453  -4.690  22.253  1.00  0.00     0.244 HD
ENDBRANCH  32  34
ENDBRANCH  30  31
ENDBRANCH   6  30
BRANCH   3  36
HETATM   36  O10 UNL     1      41.619  -4.422  21.215  1.00  0.00    -0.390 OA
ATOM     37  H10 UNL     1      42.502  -4.751  21.092  1.00  0.00     0.210 HD
ENDBRANCH   3  36
BRANCH   5  38
HETATM   38  O12 UNL     1      38.100  -4.714  19.229  1.00  0.00    -0.307 OA
BRANCH  38  39
HETATM   39  C16 UNL     1      38.542  -4.273  17.996  1.00  0.00     0.294 C 
HETATM   40  O13 UNL     1      39.651  -3.722  17.952  1.00  0.00    -0.259 OA
BRANCH  39  41
HETATM   41  C17 UNL     1      37.742  -4.445  16.790  1.00  0.00     0.045 A 
HETATM   42  C18 UNL     1      37.135  -5.664  16.504  1.00  0.00     0.057 A 
HETATM   43  C19 UNL     1      36.377  -5.822  15.357  1.00  0.00     0.102 A 
HETATM   44  C20 UNL     1      36.222  -4.770  14.495  1.00  0.00     0.132 A 
HETATM   45  C21 UNL     1      36.815  -3.531  14.744  1.00  0.00     0.102 A 
HETATM   46  C22 UNL     1      37.557  -3.417  15.890  1.00  0.00     0.057 A 
BRANCH  43  47
HETATM   47  O14 UNL     1      35.772  -7.031  15.069  1.00  0.00    -0.358 OA
ATOM     48  H14 UNL     1      35.464  -7.225  14.191  1.00  0.00     0.217 HD
ENDBRANCH  43  47
BRANCH  44  49
HETATM   49  O15 UNL     1      35.474  -4.882  13.337  1.00  0.00    -0.356 OA
ATOM     50  H15 UNL     1      34.651  -5.357  13.318  1.00  0.00     0.218 HD
ENDBRANCH  44  49
BRANCH  45  51
HETATM   51  O16 UNL     1      36.637  -2.479  13.843  1.00  0.00    -0.358 OA
ATOM     52  H16 UNL     1      35.803  -2.026  13.799  1.00  0.00     0.217 HD
ENDBRANCH  45  51
ENDBRANCH  39  41
ENDBRANCH  38  39
ENDBRANCH   5  38
BRANCH   4  53
HETATM   53  O11 UNL     1      40.521  -6.177  19.574  1.00  0.00    -0.390 OA
ATOM     54  H11 UNL     1      40.152  -6.987  19.241  1.00  0.00     0.210 HD
ENDBRANCH   4  53
TORSDOF 22
ENDMDL
MODEL 2
REMARK VINA RESULT: -7.418137595      2.959      7.189
REMARK  22 active torsions:
REMARK  status: ('A' for Active; 'I' for Inactive)
REMARK    1  A    between atoms: C2_2  and  O2_4 
REMARK    2  A    between atoms: O2_4  and  C3_5 
REMARK    3  A    between atoms: C3_5  and  C4_6 
REMARK    4  A    between atoms: C4_6  and  O3_7 
REMARK    5  A    between atoms: O3_7  and  C5_8 
REMARK    6  A    between atoms: C7_11  and  C8_12 
REMARK    7  A    between atoms: C9_16  and  O8_17 
REMARK    8  A    between atoms: O8_17  and  C10_18 
REMARK    9  A    between atoms: C10_18  and  C11_19 
REMARK   10  A    between atoms: C12_20  and  O9_21 
REMARK   11  A    between atoms: C13_23  and  O10_24 
REMARK   12  A    between atoms: C14_26  and  O11_27 
REMARK   13  A    between atoms: C15_29  and  O12_30 
REMARK   14  A    between atoms: O12_30  and  C16_31 
REMARK   15  A    between atoms: C16_31  and  C17_33 
REMARK   16  A    between atoms: C19_35  and  O14_36 
REMARK   17  A    between atoms: C20_38  and  O15_39 
REMARK   18  A    between atoms: C21_41  and  O16_42 
REMARK   19  A    between atoms: C23_45  and  O17_46 
REMARK   20  A    between atoms: O17_46  and  C24_47 
REMARK   21  A    between atoms: N1_48  and  O18_50 
REMARK   22  A    between atoms: C25_52  and  O19_53 
ROOT
HETATM    1  C11 UNL     1      37.579   1.051  22.697  1.00  0.00     0.073 C 
HETATM    2  C12 UNL     1      37.136   2.414  23.156  1.00  0.00     0.158 C 
HETATM    3  C13 UNL     1      37.710   3.523  22.347  1.00  0.00     0.178 C 
HETATM    4  C14 UNL     1      39.232   3.383  22.179  1.00  0.00     0.181 C 
HETATM    5  C15 UNL     1      39.435   2.054  21.519  1.00  0.00     0.193 C 
HETATM    6  C23 UNL     1      39.073   0.991  22.568  1.00  0.00     0.170 C 
ENDROOT
BRANCH   1   7
HETATM    7  C10 UNL     1      36.924  -0.052  23.422  1.00  0.00     0.181 C 
BRANCH   7   8
HETATM    8  O8  UNL     1      37.495  -1.276  23.107  1.00  0.00    -0.358 OA
BRANCH   8   9
HETATM    9  C9  UNL     1      37.040  -2.340  23.842  1.00  0.00     0.292 C 
HETATM   10  O7  UNL     1      38.096  -2.935  24.520  1.00  0.00    -0.339 OA
HETATM   11  C7  UNL     1      38.192  -4.266  24.099  1.00  0.00     0.265 C 
HETATM   12  C4  UNL     1      37.950  -4.044  22.598  1.00  0.00     0.159 C 
HETATM   13  C25 UNL     1      36.562  -3.411  22.801  1.00  0.00     0.213 C 
BRANCH  11  14
HETATM   14  C8  UNL     1      39.403  -4.921  24.492  1.00  0.00     0.206 C 
HETATM   15  O5  UNL     1      39.388  -5.959  25.207  1.00  0.00    -0.646 OA
HETATM   16  O6  UNL     1      40.673  -4.445  24.110  1.00  0.00    -0.646 OA
ENDBRANCH  11  14
BRANCH  12  17
HETATM   17  C3  UNL     1      38.023  -5.233  21.755  1.00  0.00     0.223 C 
BRANCH  17  18
HETATM   18  O2  UNL     1      36.947  -5.945  21.333  1.00  0.00    -0.319 OA
BRANCH  18  19
HETATM   19  C2  UNL     1      36.353  -7.064  21.859  1.00  0.00     0.254 C 
HETATM   20  C1  UNL     1      36.495  -8.418  21.247  1.00  0.00     0.126 C 
HETATM   21  O1  UNL     1      35.657  -6.963  22.900  1.00  0.00    -0.266 OA
ENDBRANCH  18  19
ENDBRANCH  17  18
ENDBRANCH  12  17
BRANCH  12  22
HETATM   22  O3  UNL     1      38.737  -2.972  22.133  1.00  0.00    -0.302 OA
BRANCH  22  23
HETATM   23  C5  UNL     1      39.578  -2.882  21.085  1.00  0.00     0.255 C 
HETATM   24  C6  UNL     1      41.050  -2.618  21.294  1.00  0.00     0.126 C 
HETATM   25  O4  UNL     1      39.125  -3.020  19.926  1.00  0.00    -0.266 OA
ENDBRANCH  22  23
ENDBRANCH  12  22
BRANCH  13  26
HETATM   26  O19 UNL     1      35.716  -4.195  23.569  1.00  0.00    -0.387 OA
ATOM     27  H19 UNL     1      34.797  -4.046  23.378  1.00  0.00     0.210 HD
ENDBRANCH  13  26
ENDBRANCH   8   9
ENDBRANCH   7   8
ENDBRANCH   1   7
BRANCH   2  28
HETATM   28  O9  UNL     1      37.315   2.580  24.522  1.00  0.00    -0.392 OA
ATOM     29  H9  UNL     1      38.207   2.392  24.787  1.00  0.00     0.210 HD
ENDBRANCH   2  28
BRANCH   6  30
HETATM   30  O17 UNL     1      39.758   1.342  23.737  1.00  0.00    -0.336 OA
BRANCH  30  31
HETATM   31  C24 UNL     1      40.442   0.407  24.497  1.00  0.00     0.248 C 
HETATM   32  N1  UNL     1      40.280  -0.818  24.080  1.00  0.00    -0.259 N 
ATOM     33  H1  UNL     1      39.698  -1.025  23.269  1.00  0.00     0.195 HD
BRANCH  32  34
HETATM   34  O18 UNL     1      40.917  -1.817  24.765  1.00  0.00    -0.289 OA
ATOM     35  H18 UNL     1      40.845  -2.702  24.429  1.00  0.00     0.244 HD
ENDBRANCH  32  34
ENDBRANCH  30  31
ENDBRANCH   6  30
BRANCH   3  36
HETATM   36  O10 UNL     1      37.088   3.749  21.141  1.00  0.00    -0.390 OA
ATOM     37  H10 UNL     1      37.603   4.232  20.506  1.00  0.00     0.210 HD
ENDBRANCH   3  36
BRANCH   5  38
HETATM   38  O12 UNL     1      40.653   1.840  20.903  1.00  0.00    -0.307 OA
BRANCH  38  39
HETATM   39  C16 UNL     1      40.922   2.036  19.561  1.00  0.00     0.294 C 
HETATM   40  O13 UNL     1      41.559   3.053  19.252  1.00  0.00    -0.259 OA
BRANCH  39  41
HETATM   41  C17 UNL     1      40.479   1.090  18.545  1.00  0.00     0.045 A 
HETATM   42  C18 UNL     1      39.624   1.488  17.523  1.00  0.00     0.057 A 
HETATM   43  C19 UNL     1      39.206   0.587  16.561  1.00  0.00     0.102 A 
HETATM   44  C20 UNL     1      39.638  -0.711  16.614  1.00  0.00     0.132 A 
HETATM   45  C21 UNL     1      40.496  -1.153  17.622  1.00  0.00     0.102 A 
HETATM   46  C22 UNL     1      40.885  -0.228  18.555  1.00  0.00     0.057 A 
BRANCH  43  47
HETATM   47  O14 UNL     1      38.356   0.978  15.544  1.00  0.00    -0.358 OA
ATOM     48  H14 UNL     1      37.486   0.606  15.465  1.00  0.00     0.217 HD
ENDBRANCH  43  47
BRANCH  44  49
HETATM   49  O15 UNL     1      39.247  -1.648  15.674  1.00  0.00    -0.356 OA
ATOM     50  H15 UNL     1      38.352  -1.964  15.627  1.00  0.00     0.218 HD
ENDBRANCH  44  49
BRANCH  45  51
HETATM   51  O16 UNL     1      40.918  -2.484  17.647  1.00  0.00    -0.358 OA
ATOM     52  H16 UNL     1      41.373  -2.824  18.409  1.00  0.00     0.217 HD
ENDBRANCH  45  51
ENDBRANCH  39  41
ENDBRANCH  38  39
ENDBRANCH   5  38
BRANCH   4  53
HETATM   53  O11 UNL     1      39.623   4.454  21.381  1.00  0.00    -0.390 OA
ATOM     54  H11 UNL     1      38.989   5.142  21.546  1.00  0.00     0.210 HD
ENDBRANCH   4  53
TORSDOF 22
ENDMDL
MODEL 3
REMARK VINA RESULT: -7.383162989      2.843      7.022
REMARK  22 active torsions:
REMARK  status: ('A' for Active; 'I' for Inactive)
REMARK    1  A    between atoms: C2_2  and  O2_4 
REMARK    2  A    between atoms: O2_4  and  C3_5 
REMARK    3  A    between atoms: C3_5  and  C4_6 
REMARK    4  A    between atoms: C4_6  and  O3_7 
REMARK    5  A    between atoms: O3_7  and  C5_8 
REMARK    6  A    between atoms: C7_11  and  C8_12 
REMARK    7  A    between atoms: C9_16  and  O8_17 
REMARK    8  A    between atoms: O8_17  and  C10_18 
REMARK    9  A    between atoms: C10_18  and  C11_19 
REMARK   10  A    between atoms: C12_20  and  O9_21 
REMARK   11  A    between atoms: C13_23  and  O10_24 
REMARK   12  A    between atoms: C14_26  and  O11_27 
REMARK   13  A    between atoms: C15_29  and  O12_30 
REMARK   14  A    between atoms: O12_30  and  C16_31 
REMARK   15  A    between atoms: C16_31  and  C17_33 
REMARK   16  A    between atoms: C19_35  and  O14_36 
REMARK   17  A    between atoms: C20_38  and  O15_39 
REMARK   18  A    between atoms: C21_41  and  O16_42 
REMARK   19  A    between atoms: C23_45  and  O17_46 
REMARK   20  A    between atoms: O17_46  and  C24_47 
REMARK   21  A    between atoms: N1_48  and  O18_50 
REMARK   22  A    between atoms: C25_52  and  O19_53 
ROOT
HETATM    1  C11 UNL     1      37.579   0.963  22.514  1.00  0.00     0.073 C 
HETATM    2  C12 UNL     1      37.228   2.330  23.035  1.00  0.00     0.158 C 
HETATM    3  C13 UNL     1      37.821   3.435  22.235  1.00  0.00     0.178 C 
HETATM    4  C14 UNL     1      39.324   3.225  21.991  1.00  0.00     0.181 C 
HETATM    5  C15 UNL     1      39.428   1.910  21.281  1.00  0.00     0.193 C 
HETATM    6  C23 UNL     1      39.060   0.832  22.313  1.00  0.00     0.170 C 
ENDROOT
BRANCH   1   7
HETATM    7  C10 UNL     1      36.901  -0.129  23.235  1.00  0.00     0.181 C 
BRANCH   7   8
HETATM    8  O8  UNL     1      37.529  -1.346  23.017  1.00  0.00    -0.358 OA
BRANCH   8   9
HETATM    9  C9  UNL     1      37.069  -2.386  23.782  1.00  0.00     0.292 C 
HETATM   10  O7  UNL     1      38.121  -2.967  24.477  1.00  0.00    -0.339 OA
HETATM   11  C7  UNL     1      38.212  -4.310  24.095  1.00  0.00     0.265 C 
HETATM   12  C4  UNL     1      37.971  -4.130  22.588  1.00  0.00     0.159 C 
HETATM   13  C25 UNL     1      36.586  -3.485  22.773  1.00  0.00     0.213 C 
BRANCH  11  14
HETATM   14  C8  UNL     1      39.419  -4.959  24.507  1.00  0.00     0.206 C 
HETATM   15  O5  UNL     1      39.405  -5.923  25.319  1.00  0.00    -0.646 OA
HETATM   16  O6  UNL     1      40.686  -4.559  24.037  1.00  0.00    -0.646 OA
ENDBRANCH  11  14
BRANCH  12  17
HETATM   17  C3  UNL     1      38.038  -5.343  21.780  1.00  0.00     0.223 C 
BRANCH  17  18
HETATM   18  O2  UNL     1      36.957  -6.031  21.333  1.00  0.00    -0.319 OA
BRANCH  18  19
HETATM   19  C2  UNL     1      36.328  -7.138  21.843  1.00  0.00     0.254 C 
HETATM   20  C1  UNL     1      36.456  -8.495  21.233  1.00  0.00     0.126 C 
HETATM   21  O1  UNL     1      35.611  -7.024  22.868  1.00  0.00    -0.266 OA
ENDBRANCH  18  19
ENDBRANCH  17  18
ENDBRANCH  12  17
BRANCH  12  22
HETATM   22  O3  UNL     1      38.763  -3.076  22.093  1.00  0.00    -0.302 OA
BRANCH  22  23
HETATM   23  C5  UNL     1      39.563  -3.004  21.013  1.00  0.00     0.255 C 
HETATM   24  C6  UNL     1      41.056  -2.830  21.164  1.00  0.00     0.126 C 
HETATM   25  O4  UNL     1      39.055  -3.081  19.870  1.00  0.00    -0.266 OA
ENDBRANCH  22  23
ENDBRANCH  12  22
BRANCH  13  26
HETATM   26  O19 UNL     1      35.736  -4.242  23.562  1.00  0.00    -0.387 OA
ATOM     27  H19 UNL     1      34.819  -4.116  23.348  1.00  0.00     0.210 HD
ENDBRANCH  13  26
ENDBRANCH   8   9
ENDBRANCH   7   8
ENDBRANCH   1   7
BRANCH   2  28
HETATM   28  O9  UNL     1      37.478   2.442  24.397  1.00  0.00    -0.392 OA
ATOM     29  H9  UNL     1      37.247   1.648  24.863  1.00  0.00     0.210 HD
ENDBRANCH   2  28
BRANCH   6  30
HETATM   30  O17 UNL     1      39.815   1.110  23.459  1.00  0.00    -0.336 OA
BRANCH  30  31
HETATM   31  C24 UNL     1      40.748   0.216  23.958  1.00  0.00     0.248 C 
HETATM   32  N1  UNL     1      40.281  -0.992  24.107  1.00  0.00    -0.259 N 
ATOM     33  H1  UNL     1      39.315  -1.216  23.868  1.00  0.00     0.195 HD
BRANCH  32  34
HETATM   34  O18 UNL     1      41.126  -1.951  24.595  1.00  0.00    -0.289 OA
ATOM     35  H18 UNL     1      41.927  -2.125  24.114  1.00  0.00     0.244 HD
ENDBRANCH  32  34
ENDBRANCH  30  31
ENDBRANCH   6  30
BRANCH   3  36
HETATM   36  O10 UNL     1      37.157   3.733  21.068  1.00  0.00    -0.390 OA
ATOM     37  H10 UNL     1      37.298   3.120  20.356  1.00  0.00     0.210 HD
ENDBRANCH   3  36
BRANCH   5  38
HETATM   38  O12 UNL     1      40.604   1.656  20.602  1.00  0.00    -0.307 OA
BRANCH  38  39
HETATM   39  C16 UNL     1      40.804   1.829  19.245  1.00  0.00     0.294 C 
HETATM   40  O13 UNL     1      41.399   2.854  18.883  1.00  0.00    -0.259 OA
BRANCH  39  41
HETATM   41  C17 UNL     1      40.336   0.850  18.271  1.00  0.00     0.045 A 
HETATM   42  C18 UNL     1      40.769  -0.471  18.323  1.00  0.00     0.057 A 
HETATM   43  C19 UNL     1      40.323  -1.397  17.396  1.00  0.00     0.102 A 
HETATM   44  C20 UNL     1      39.447  -1.009  16.418  1.00  0.00     0.132 A 
HETATM   45  C21 UNL     1      38.989   0.306  16.329  1.00  0.00     0.102 A 
HETATM   46  C22 UNL     1      39.456   1.190  17.267  1.00  0.00     0.057 A 
BRANCH  43  47
HETATM   47  O14 UNL     1      40.750  -2.710  17.444  1.00  0.00    -0.358 OA
ATOM     48  H14 UNL     1      41.036  -3.100  18.262  1.00  0.00     0.217 HD
ENDBRANCH  43  47
BRANCH  44  49
HETATM   49  O15 UNL     1      38.974  -1.899  15.471  1.00  0.00    -0.356 OA
ATOM     50  H15 UNL     1      38.080  -1.860  15.151  1.00  0.00     0.218 HD
ENDBRANCH  44  49
BRANCH  45  51
HETATM   51  O16 UNL     1      38.096   0.668  15.319  1.00  0.00    -0.358 OA
ATOM     52  H16 UNL     1      37.232   0.994  15.542  1.00  0.00     0.217 HD
ENDBRANCH  45  51
ENDBRANCH  39  41
ENDBRANCH  38  39
ENDBRANCH   5  38
BRANCH   4  53
HETATM   53  O11 UNL     1      39.733   4.301  21.209  1.00  0.00    -0.390 OA
ATOM     54  H11 UNL     1      40.585   4.059  20.865  1.00  0.00     0.210 HD
ENDBRANCH   4  53
TORSDOF 22
ENDMDL
MODEL 4
REMARK VINA RESULT: -7.376966181      0.524      1.424
REMARK  22 active torsions:
REMARK  status: ('A' for Active; 'I' for Inactive)
REMARK    1  A    between atoms: C2_2  and  O2_4 
REMARK    2  A    between atoms: O2_4  and  C3_5 
REMARK    3  A    between atoms: C3_5  and  C4_6 
REMARK    4  A    between atoms: C4_6  and  O3_7 
REMARK    5  A    between atoms: O3_7  and  C5_8 
REMARK    6  A    between atoms: C7_11  and  C8_12 
REMARK    7  A    between atoms: C9_16  and  O8_17 
REMARK    8  A    between atoms: O8_17  and  C10_18 
REMARK    9  A    between atoms: C10_18  and  C11_19 
REMARK   10  A    between atoms: C12_20  and  O9_21 
REMARK   11  A    between atoms: C13_23  and  O10_24 
REMARK   12  A    between atoms: C14_26  and  O11_27 
REMARK   13  A    between atoms: C15_29  and  O12_30 
REMARK   14  A    between atoms: O12_30  and  C16_31 
REMARK   15  A    between atoms: C16_31  and  C17_33 
REMARK   16  A    between atoms: C19_35  and  O14_36 
REMARK   17  A    between atoms: C20_38  and  O15_39 
REMARK   18  A    between atoms: C21_41  and  O16_42 
REMARK   19  A    between atoms: C23_45  and  O17_46 
REMARK   20  A    between atoms: O17_46  and  C24_47 
REMARK   21  A    between atoms: N1_48  and  O18_50 
REMARK   22  A    between atoms: C25_52  and  O19_53 
ROOT
HETATM    1  C11 UNL     1      38.648  -3.813  22.673  1.00  0.00     0.073 C 
HETATM    2  C12 UNL     1      39.737  -4.772  23.072  1.00  0.00     0.158 C 
HETATM    3  C13 UNL     1      40.482  -5.331  21.911  1.00  0.00     0.178 C 
HETATM    4  C14 UNL     1      39.536  -5.873  20.829  1.00  0.00     0.181 C 
HETATM    5  C15 UNL     1      38.684  -4.708  20.429  1.00  0.00     0.193 C 
HETATM    6  C23 UNL     1      37.762  -4.418  21.624  1.00  0.00     0.170 C 
ENDROOT
BRANCH   1   7
HETATM    7  C10 UNL     1      37.984  -3.172  23.822  1.00  0.00     0.181 C 
BRANCH   7   8
HETATM    8  O8  UNL     1      38.151  -1.796  23.801  1.00  0.00    -0.358 OA
BRANCH   8   9
HETATM    9  C9  UNL     1      37.203  -1.102  23.096  1.00  0.00     0.292 C 
HETATM   10  O7  UNL     1      37.784  -0.488  21.995  1.00  0.00    -0.339 OA
HETATM   11  C7  UNL     1      37.588   0.893  22.109  1.00  0.00     0.265 C 
HETATM   12  C4  UNL     1      37.869   1.036  23.612  1.00  0.00     0.159 C 
HETATM   13  C25 UNL     1      36.743   0.072  24.028  1.00  0.00     0.213 C 
BRANCH  11  14
HETATM   14  C8  UNL     1      38.374   1.676  21.204  1.00  0.00     0.206 C 
HETATM   15  O5  UNL     1      39.498   1.280  20.796  1.00  0.00    -0.646 OA
HETATM   16  O6  UNL     1      37.942   2.928  20.723  1.00  0.00    -0.646 OA
ENDBRANCH  11  14
BRANCH  12  17
HETATM   17  C3  UNL     1      37.816   2.392  24.148  1.00  0.00     0.223 C 
BRANCH  17  18
HETATM   18  O2  UNL     1      36.869   3.310  23.828  1.00  0.00    -0.319 OA
BRANCH  18  19
HETATM   19  C2  UNL     1      35.722   3.676  24.484  1.00  0.00     0.254 C 
HETATM   20  C1  UNL     1      35.001   4.953  24.203  1.00  0.00     0.126 C 
HETATM   21  O1  UNL     1      35.242   2.915  25.361  1.00  0.00    -0.266 OA
ENDBRANCH  18  19
ENDBRANCH  17  18
ENDBRANCH  12  17
BRANCH  12  22
HETATM   22  O3  UNL     1      39.043   0.337  23.955  1.00  0.00    -0.302 OA
BRANCH  22  23
HETATM   23  C5  UNL     1      40.183   0.756  24.537  1.00  0.00     0.255 C 
HETATM   24  C6  UNL     1      41.195   1.568  23.763  1.00  0.00     0.126 C 
HETATM   25  O4  UNL     1      40.400   0.464  25.735  1.00  0.00    -0.266 OA
ENDBRANCH  22  23
ENDBRANCH  12  22
BRANCH  13  26
HETATM   26  O19 UNL     1      35.515   0.406  23.480  1.00  0.00    -0.387 OA
ATOM     27  H19 UNL     1      35.398   1.343  23.374  1.00  0.00     0.210 HD
ENDBRANCH  13  26
ENDBRANCH   8   9
ENDBRANCH   7   8
ENDBRANCH   1   7
BRANCH   2  28
HETATM   28  O9  UNL     1      39.272  -5.744  23.947  1.00  0.00    -0.392 OA
ATOM     29  H9  UNL     1      39.775  -6.547  23.881  1.00  0.00     0.210 HD
ENDBRANCH   2  28
BRANCH   6  30
HETATM   30  O17 UNL     1      37.200  -5.645  21.994  1.00  0.00    -0.336 OA
BRANCH  30  31
HETATM   31  C24 UNL     1      35.888  -5.751  22.427  1.00  0.00     0.248 C 
HETATM   32  N1  UNL     1      35.506  -6.982  22.626  1.00  0.00    -0.259 N 
ATOM     33  H1  UNL     1      36.142  -7.763  22.467  1.00  0.00     0.195 HD
BRANCH  32  34
HETATM   34  O18 UNL     1      34.224  -7.193  23.056  1.00  0.00    -0.289 OA
ATOM     35  H18 UNL     1      33.948  -8.089  23.209  1.00  0.00     0.244 HD
ENDBRANCH  32  34
ENDBRANCH  30  31
ENDBRANCH   6  30
BRANCH   3  36
HETATM   36  O10 UNL     1      41.439  -4.499  21.376  1.00  0.00    -0.390 OA
ATOM     37  H10 UNL     1      41.140  -3.946  20.665  1.00  0.00     0.210 HD
ENDBRANCH   3  36
BRANCH   5  38
HETATM   38  O12 UNL     1      38.022  -4.800  19.220  1.00  0.00    -0.307 OA
BRANCH  38  39
HETATM   39  C16 UNL     1      38.514  -4.381  17.998  1.00  0.00     0.294 C 
HETATM   40  O13 UNL     1      39.647  -3.881  17.982  1.00  0.00    -0.259 OA
BRANCH  39  41
HETATM   41  C17 UNL     1      37.736  -4.517  16.773  1.00  0.00     0.045 A 
HETATM   42  C18 UNL     1      37.560  -3.436  15.916  1.00  0.00     0.057 A 
HETATM   43  C19 UNL     1      36.822  -3.570  14.753  1.00  0.00     0.102 A 
HETATM   44  C20 UNL     1      36.257  -4.779  14.444  1.00  0.00     0.132 A 
HETATM   45  C21 UNL     1      36.409  -5.888  15.276  1.00  0.00     0.102 A 
HETATM   46  C22 UNL     1      37.148  -5.712  16.417  1.00  0.00     0.057 A 
BRANCH  43  47
HETATM   47  O14 UNL     1      36.644  -2.499  13.899  1.00  0.00    -0.358 OA
ATOM     48  H14 UNL     1      37.173  -2.408  13.115  1.00  0.00     0.217 HD
ENDBRANCH  43  47
BRANCH  44  49
HETATM   49  O15 UNL     1      35.511  -4.960  13.294  1.00  0.00    -0.356 OA
ATOM     50  H15 UNL     1      35.274  -5.826  12.983  1.00  0.00     0.218 HD
ENDBRANCH  44  49
BRANCH  45  51
HETATM   51  O16 UNL     1      35.820  -7.106  14.931  1.00  0.00    -0.358 OA
ATOM     52  H16 UNL     1      36.187  -7.629  14.227  1.00  0.00     0.217 HD
ENDBRANCH  45  51
ENDBRANCH  39  41
ENDBRANCH  38  39
ENDBRANCH   5  38
BRANCH   4  53
HETATM   53  O11 UNL     1      40.359  -6.324  19.801  1.00  0.00    -0.390 OA
ATOM     54  H11 UNL     1      40.742  -7.135  20.116  1.00  0.00     0.210 HD
ENDBRANCH   4  53
TORSDOF 22
ENDMDL
MODEL 5
REMARK VINA RESULT: -7.229972733      2.751      7.168
REMARK  22 active torsions:
REMARK  status: ('A' for Active; 'I' for Inactive)
REMARK    1  A    between atoms: C2_2  and  O2_4 
REMARK    2  A    between atoms: O2_4  and  C3_5 
REMARK    3  A    between atoms: C3_5  and  C4_6 
REMARK    4  A    between atoms: C4_6  and  O3_7 
REMARK    5  A    between atoms: O3_7  and  C5_8 
REMARK    6  A    between atoms: C7_11  and  C8_12 
REMARK    7  A    between atoms: C9_16  and  O8_17 
REMARK    8  A    between atoms: O8_17  and  C10_18 
REMARK    9  A    between atoms: C10_18  and  C11_19 
REMARK   10  A    between atoms: C12_20  and  O9_21 
REMARK   11  A    between atoms: C13_23  and  O10_24 
REMARK   12  A    between atoms: C14_26  and  O11_27 
REMARK   13  A    between atoms: C15_29  and  O12_30 
REMARK   14  A    between atoms: O12_30  and  C16_31 
REMARK   15  A    between atoms: C16_31  and  C17_33 
REMARK   16  A    between atoms: C19_35  and  O14_36 
REMARK   17  A    between atoms: C20_38  and  O15_39 
REMARK   18  A    between atoms: C21_41  and  O16_42 
REMARK   19  A    between atoms: C23_45  and  O17_46 
REMARK   20  A    between atoms: O17_46  and  C24_47 
REMARK   21  A    between atoms: N1_48  and  O18_50 
REMARK   22  A    between atoms: C25_52  and  O19_53 
ROOT
HETATM    1  C11 UNL     1      36.949   0.849  23.504  1.00  0.00     0.073 C 
HETATM    2  C12 UNL     1      36.288   2.126  23.947  1.00  0.00     0.158 C 
HETATM    3  C13 UNL     1      36.567   3.276  23.045  1.00  0.00     0.178 C 
HETATM    4  C14 UNL     1      38.068   3.420  22.746  1.00  0.00     0.181 C 
HETATM    5  C15 UNL     1      38.472   2.119  22.123  1.00  0.00     0.193 C 
HETATM    6  C23 UNL     1      38.411   1.068  23.243  1.00  0.00     0.170 C 
ENDROOT
BRANCH   1   7
HETATM    7  C10 UNL     1      36.583  -0.316  24.330  1.00  0.00     0.181 C 
BRANCH   7   8
HETATM    8  O8  UNL     1      37.492  -1.352  24.176  1.00  0.00    -0.358 OA
BRANCH   8   9
HETATM    9  C9  UNL     1      36.951  -2.551  23.793  1.00  0.00     0.292 C 
HETATM   10  O7  UNL     1      37.601  -3.594  24.439  1.00  0.00    -0.339 OA
HETATM   11  C7  UNL     1      38.170  -4.426  23.468  1.00  0.00     0.265 C 
HETATM   12  C4  UNL     1      38.697  -3.337  22.521  1.00  0.00     0.159 C 
HETATM   13  C25 UNL     1      37.307  -2.721  22.275  1.00  0.00     0.213 C 
BRANCH  11  14
HETATM   14  C8  UNL     1      39.108  -5.376  23.984  1.00  0.00     0.206 C 
HETATM   15  O5  UNL     1      39.760  -6.138  23.222  1.00  0.00    -0.646 OA
HETATM   16  O6  UNL     1      39.352  -5.517  25.365  1.00  0.00    -0.646 OA
ENDBRANCH  11  14
BRANCH  12  17
HETATM   17  C3  UNL     1      39.434  -3.806  21.353  1.00  0.00     0.223 C 
BRANCH  17  18
HETATM   18  O2  UNL     1      38.952  -3.799  20.084  1.00  0.00    -0.319 OA
BRANCH  18  19
HETATM   19  C2  UNL     1      38.394  -4.803  19.334  1.00  0.00     0.254 C 
HETATM   20  C1  UNL     1      39.039  -5.348  18.103  1.00  0.00     0.126 C 
HETATM   21  O1  UNL     1      37.293  -5.296  19.684  1.00  0.00    -0.266 OA
ENDBRANCH  18  19
ENDBRANCH  17  18
ENDBRANCH  12  17
BRANCH  12  22
HETATM   22  O3  UNL     1      39.372  -2.342  23.255  1.00  0.00    -0.302 OA
BRANCH  22  23
HETATM   23  C5  UNL     1      40.687  -2.084  23.392  1.00  0.00     0.255 C 
HETATM   24  C6  UNL     1      41.491  -2.723  24.499  1.00  0.00     0.126 C 
HETATM   25  O4  UNL     1      41.243  -1.303  22.586  1.00  0.00    -0.266 OA
ENDBRANCH  22  23
ENDBRANCH  12  22
BRANCH  13  26
HETATM   26  O19 UNL     1      36.368  -3.653  21.865  1.00  0.00    -0.387 OA
ATOM     27  H19 UNL     1      35.853  -3.358  21.123  1.00  0.00     0.210 HD
ENDBRANCH  13  26
ENDBRANCH   8   9
ENDBRANCH   7   8
ENDBRANCH   1   7
BRANCH   2  28
HETATM   28  O9  UNL     1      36.541   2.401  25.284  1.00  0.00    -0.392 OA
ATOM     29  H9  UNL     1      37.420   2.143  25.536  1.00  0.00     0.210 HD
ENDBRANCH   2  28
BRANCH   6  30
HETATM   30  O17 UNL     1      39.107   1.610  24.330  1.00  0.00    -0.336 OA
BRANCH  30  31
HETATM   31  C24 UNL     1      40.307   1.078  24.771  1.00  0.00     0.248 C 
HETATM   32  N1  UNL     1      41.320   1.378  24.008  1.00  0.00    -0.259 N 
ATOM     33  H1  UNL     1      41.198   1.952  23.173  1.00  0.00     0.195 HD
BRANCH  32  34
HETATM   34  O18 UNL     1      42.553   0.900  24.359  1.00  0.00    -0.289 OA
ATOM     35  H18 UNL     1      42.680   0.613  25.256  1.00  0.00     0.244 HD
ENDBRANCH  32  34
ENDBRANCH  30  31
ENDBRANCH   6  30
BRANCH   3  36
HETATM   36  O10 UNL     1      35.816   3.311  21.893  1.00  0.00    -0.390 OA
ATOM     37  H10 UNL     1      36.200   2.864  21.148  1.00  0.00     0.210 HD
ENDBRANCH   3  36
BRANCH   5  38
HETATM   38  O12 UNL     1      39.654   2.106  21.408  1.00  0.00    -0.307 OA
BRANCH  38  39
HETATM   39  C16 UNL     1      39.789   2.428  20.071  1.00  0.00     0.294 C 
HETATM   40  O13 UNL     1      39.938   3.625  19.786  1.00  0.00    -0.259 OA
BRANCH  39  41
HETATM   41  C17 UNL     1      39.760   1.408  19.030  1.00  0.00     0.045 A 
HETATM   42  C18 UNL     1      40.299   0.146  19.253  1.00  0.00     0.057 A 
HETATM   43  C19 UNL     1      40.268  -0.819  18.262  1.00  0.00     0.102 A 
HETATM   44  C20 UNL     1      39.702  -0.529  17.050  1.00  0.00     0.132 A 
HETATM   45  C21 UNL     1      39.151   0.725  16.784  1.00  0.00     0.102 A 
HETATM   46  C22 UNL     1      39.202   1.651  17.793  1.00  0.00     0.057 A 
BRANCH  43  47
HETATM   47  O14 UNL     1      40.802  -2.075  18.479  1.00  0.00    -0.358 OA
ATOM     48  H14 UNL     1      40.331  -2.724  18.988  1.00  0.00     0.217 HD
ENDBRANCH  43  47
BRANCH  44  49
HETATM   49  O15 UNL     1      39.649  -1.462  16.030  1.00  0.00    -0.356 OA
ATOM     50  H15 UNL     1      39.277  -1.253  15.181  1.00  0.00     0.218 HD
ENDBRANCH  44  49
BRANCH  45  51
HETATM   51  O16 UNL     1      38.582   0.988  15.537  1.00  0.00    -0.358 OA
ATOM     52  H16 UNL     1      38.829   1.770  15.056  1.00  0.00     0.217 HD
ENDBRANCH  45  51
ENDBRANCH  39  41
ENDBRANCH  38  39
ENDBRANCH   5  38
BRANCH   4  53
HETATM   53  O11 UNL     1      38.176   4.498  21.873  1.00  0.00    -0.390 OA
ATOM     54  H11 UNL     1      37.468   5.088  22.103  1.00  0.00     0.210 HD
ENDBRANCH   4  53
TORSDOF 22
ENDMDL
