MODEL 1
REMARK VINA RESULT: -7.683396290      0.000      0.000
REMARK  18 active torsions:
REMARK  status: ('A' for Active; 'I' for Inactive)
REMARK    1  A    between atoms: C2_2  and  C3_3 
REMARK    2  A    between atoms: C3_3  and  O2_5 
REMARK    3  A    between atoms: O2_5  and  C4_6 
REMARK    4  A    between atoms: C4_6  and  C18_40 
REMARK    5  A    between atoms: C5_7  and  C6_8 
REMARK    6  A    between atoms: C6_8  and  O3_9 
REMARK    7  A    between atoms: C6_8  and  O4_11 
REMARK    8  A    between atoms: O4_11  and  C7_12 
REMARK    9  A    between atoms: C8_15  and  O7_16 
REMARK   10  A    between atoms: O7_16  and  C9_17 
REMARK   11  A    between atoms: C10_19  and  N1_20 
REMARK       I    between atoms: N1_20  and  C11_22 
REMARK   12  A    between atoms: C13_25  and  O9_26 
REMARK   13  A    between atoms: C14_28  and  O10_29 
REMARK   14  A    between atoms: C15_31  and  O11_32 
REMARK   15  A    between atoms: C16_34  and  O12_35 
REMARK   16  A    between atoms: C17_37  and  O13_38 
REMARK   17  A    between atoms: N2_42  and  C20_43 
REMARK   18  A    between atoms: C21_49  and  N5_50 
ROOT
HETATM    1  C7  UNL     1      42.078  -0.722  22.016  1.00  0.00     0.331 C 
HETATM    2  O5  UNL     1      40.836  -0.322  22.545  1.00  0.00    -0.203 OA
HETATM    3  O6  UNL     1      40.065  -1.334  22.804  1.00  0.00    -0.203 OA
HETATM    4  C8  UNL     1      40.542  -2.119  23.852  1.00  0.00     0.329 C 
HETATM    5  C16 UNL     1      41.844  -2.733  23.376  1.00  0.00     0.209 C 
HETATM    6  C17 UNL     1      42.768  -1.546  23.065  1.00  0.00     0.210 C 
ENDROOT
BRANCH   1   7
HETATM    7  O4  UNL     1      41.853  -1.391  20.843  1.00  0.00    -0.323 OA
BRANCH   7   8
HETATM    8  C6  UNL     1      41.764  -0.603  19.730  1.00  0.00     0.287 C 
BRANCH   8   9
HETATM    9  C5  UNL     1      40.681  -1.025  18.797  1.00  0.00     0.072 C 
HETATM   10  C4  UNL     1      40.506  -0.533  17.611  1.00  0.00     0.109 C 
BRANCH  10  11
HETATM   11  O2  UNL     1      41.358   0.448  17.142  1.00  0.00    -0.277 OA
BRANCH  11  12
HETATM   12  C3  UNL     1      40.784   1.659  16.768  1.00  0.00     0.263 C 
HETATM   13  O1  UNL     1      40.546   1.941  15.566  1.00  0.00    -0.265 OA
BRANCH  12  14
HETATM   14  C2  UNL     1      40.425   2.682  17.789  1.00  0.00     0.107 C 
HETATM   15  C1  UNL     1      38.943   2.565  18.087  1.00  0.00     0.015 C 
ENDBRANCH  12  14
ENDBRANCH  11  12
ENDBRANCH  10  11
BRANCH  10  16
HETATM   16  C18 UNL     1      39.418  -1.014  16.780  1.00  0.00     0.097 A 
HETATM   17  C19 UNL     1      38.990  -2.335  16.616  1.00  0.00     0.149 A 
HETATM   18  N2  UNL     1      37.959  -2.378  15.768  1.00  0.00    -0.229 N 
HETATM   19  N6  UNL     1      37.736  -1.129  15.402  1.00  0.00    -0.013 NA
HETATM   20  N7  UNL     1      38.586  -0.306  15.989  1.00  0.00    -0.280 N 
ATOM     21  H7  UNL     1      38.610   0.706  15.863  1.00  0.00     0.184 HD
BRANCH  18  22
HETATM   22  C20 UNL     1      37.240  -3.573  15.344  1.00  0.00     0.177 A 
HETATM   23  N3  UNL     1      37.407  -4.721  15.989  1.00  0.00    -0.294 N 
HETATM   24  S2  UNL     1      36.407  -5.791  15.172  1.00  0.00     0.070 SA
ATOM     25  H3  UNL     1      38.004  -4.909  16.794  1.00  0.00     0.177 HD
HETATM   26  N4  UNL     1      35.791  -4.740  14.012  1.00  0.00    -0.296 N 
HETATM   27  C21 UNL     1      36.384  -3.575  14.295  1.00  0.00     0.153 A 
ATOM     28  H4  UNL     1      35.123  -4.942  13.268  1.00  0.00     0.177 HD
BRANCH  27  29
HETATM   29  N5  UNL     1      36.110  -2.508  13.549  1.00  0.00    -0.382 N 
ATOM     30  H52 UNL     1      36.567  -1.621  13.761  1.00  0.00     0.157 HD
ATOM     31  H51 UNL     1      35.461  -2.508  12.762  1.00  0.00     0.157 HD
ENDBRANCH  27  29
ENDBRANCH  18  22
ENDBRANCH  10  16
ENDBRANCH   8   9
BRANCH   8  32
HETATM   32  O3  UNL     1      41.500   0.742  20.038  1.00  0.00    -0.368 OA
ATOM     33  H3  UNL     1      42.133   1.249  19.544  1.00  0.00     0.213 HD
ENDBRANCH   8  32
ENDBRANCH   7   8
ENDBRANCH   1   7
BRANCH   6  34
HETATM   34  O13 UNL     1      42.893  -0.848  24.265  1.00  0.00    -0.388 OA
ATOM     35  H13 UNL     1      43.245  -1.399  24.955  1.00  0.00     0.210 HD
ENDBRANCH   6  34
BRANCH   5  36
HETATM   36  O12 UNL     1      41.657  -3.537  22.272  1.00  0.00    -0.388 OA
ATOM     37  H12 UNL     1      41.067  -3.139  21.643  1.00  0.00     0.210 HD
ENDBRANCH   5  36
BRANCH   4  38
HETATM   38  O7  UNL     1      39.625  -3.035  24.301  1.00  0.00    -0.337 OA
BRANCH  38  39
HETATM   39  C9  UNL     1      38.650  -3.240  23.333  1.00  0.00     0.219 C 
HETATM   40  S1  UNL     1      38.352  -5.034  23.088  1.00  0.00    -0.106 SA
HETATM   41  C10 UNL     1      36.887  -5.184  22.028  1.00  0.00     0.180 C 
HETATM   42  C13 UNL     1      35.854  -4.142  22.336  1.00  0.00     0.182 C 
HETATM   43  C14 UNL     1      36.420  -2.769  22.470  1.00  0.00     0.181 C 
HETATM   44  C15 UNL     1      37.325  -2.625  23.675  1.00  0.00     0.188 C 
BRANCH  41  45
HETATM   45  N1  UNL     1      36.336  -6.500  22.049  1.00  0.00    -0.345 N 
HETATM   46  C11 UNL     1      36.778  -7.563  21.214  1.00  0.00     0.214 C 
HETATM   47  C12 UNL     1      36.185  -8.919  21.262  1.00  0.00     0.117 C 
HETATM   48  O8  UNL     1      37.722  -7.397  20.375  1.00  0.00    -0.274 OA
ATOM     49  H1  UNL     1      35.577  -6.690  22.704  1.00  0.00     0.163 HD
ENDBRANCH  41  45
BRANCH  42  50
HETATM   50  O9  UNL     1      35.097  -4.442  23.459  1.00  0.00    -0.390 OA
ATOM     51  H9  UNL     1      34.560  -3.715  23.750  1.00  0.00     0.210 HD
ENDBRANCH  42  50
BRANCH  43  52
HETATM   52  O10 UNL     1      35.354  -1.864  22.514  1.00  0.00    -0.390 OA
ATOM     53  H10 UNL     1      34.738  -2.102  21.830  1.00  0.00     0.210 HD
ENDBRANCH  43  52
BRANCH  44  54
HETATM   54  O11 UNL     1      36.782  -3.337  24.762  1.00  0.00    -0.389 OA
ATOM     55  H11 UNL     1      36.251  -4.043  24.414  1.00  0.00     0.210 HD
ENDBRANCH  44  54
ENDBRANCH  38  39
ENDBRANCH   4  38
TORSDOF 18
ENDMDL
MODEL 2
REMARK VINA RESULT: -7.553049907      6.483     10.471
REMARK  18 active torsions:
REMARK  status: ('A' for Active; 'I' for Inactive)
REMARK    1  A    between atoms: C2_2  and  C3_3 
REMARK    2  A    between atoms: C3_3  and  O2_5 
REMARK    3  A    between atoms: O2_5  and  C4_6 
REMARK    4  A    between atoms: C4_6  and  C18_40 
REMARK    5  A    between atoms: C5_7  and  C6_8 
REMARK    6  A    between atoms: C6_8  and  O3_9 
REMARK    7  A    between atoms: C6_8  and  O4_11 
REMARK    8  A    between atoms: O4_11  and  C7_12 
REMARK    9  A    between atoms: C8_15  and  O7_16 
REMARK   10  A    between atoms: O7_16  and  C9_17 
REMARK   11  A    between atoms: C10_19  and  N1_20 
REMARK       I    between atoms: N1_20  and  C11_22 
REMARK   12  A    between atoms: C13_25  and  O9_26 
REMARK   13  A    between atoms: C14_28  and  O10_29 
REMARK   14  A    between atoms: C15_31  and  O11_32 
REMARK   15  A    between atoms: C16_34  and  O12_35 
REMARK   16  A    between atoms: C17_37  and  O13_38 
REMARK   17  A    between atoms: N2_42  and  C20_43 
REMARK   18  A    between atoms: C21_49  and  N5_50 
ROOT
HETATM    1  C7  UNL     1      37.014  -3.471  23.310  1.00  0.00     0.331 C 
HETATM    2  O5  UNL     1      36.418  -3.076  24.522  1.00  0.00    -0.203 OA
HETATM    3  O6  UNL     1      36.895  -1.951  24.961  1.00  0.00    -0.203 OA
HETATM    4  C8  UNL     1      36.555  -0.870  24.150  1.00  0.00     0.329 C 
HETATM    5  C16 UNL     1      37.243  -1.093  22.817  1.00  0.00     0.209 C 
HETATM    6  C17 UNL     1      36.686  -2.423  22.286  1.00  0.00     0.210 C 
ENDROOT
BRANCH   1   7
HETATM    7  O4  UNL     1      38.356  -3.639  23.524  1.00  0.00    -0.323 OA
BRANCH   7   8
HETATM    8  C6  UNL     1      38.793  -4.933  23.500  1.00  0.00     0.287 C 
BRANCH   8   9
HETATM    9  C5  UNL     1      39.682  -5.274  24.648  1.00  0.00     0.072 C 
HETATM   10  C4  UNL     1      40.907  -4.869  24.766  1.00  0.00     0.109 C 
BRANCH  10  11
HETATM   11  O2  UNL     1      41.464  -4.069  23.788  1.00  0.00    -0.277 OA
BRANCH  11  12
HETATM   12  C3  UNL     1      41.690  -2.735  24.114  1.00  0.00     0.263 C 
HETATM   13  O1  UNL     1      40.840  -2.048  24.735  1.00  0.00    -0.265 OA
BRANCH  12  14
HETATM   14  C2  UNL     1      42.962  -2.061  23.734  1.00  0.00     0.107 C 
HETATM   15  C1  UNL     1      43.965  -3.121  23.325  1.00  0.00     0.015 C 
ENDBRANCH  12  14
ENDBRANCH  11  12
ENDBRANCH  10  11
BRANCH  10  16
HETATM   16  C18 UNL     1      41.689  -5.258  25.925  1.00  0.00     0.097 A 
HETATM   17  C19 UNL     1      41.221  -5.794  27.129  1.00  0.00     0.149 A 
HETATM   18  N2  UNL     1      42.245  -6.022  27.955  1.00  0.00    -0.229 N 
HETATM   19  N6  UNL     1      43.330  -5.645  27.304  1.00  0.00    -0.013 NA
HETATM   20  N7  UNL     1      43.025  -5.191  26.101  1.00  0.00    -0.280 N 
ATOM     21  H7  UNL     1      43.694  -4.844  25.414  1.00  0.00     0.184 HD
BRANCH  18  22
HETATM   22  C20 UNL     1      42.161  -6.574  29.301  1.00  0.00     0.177 A 
HETATM   23  N3  UNL     1      41.983  -7.877  29.482  1.00  0.00    -0.294 N 
HETATM   24  S2  UNL     1      41.949  -8.052  31.150  1.00  0.00     0.070 SA
ATOM     25  H3  UNL     1      41.888  -8.603  28.773  1.00  0.00     0.177 HD
HETATM   26  N4  UNL     1      42.164  -6.441  31.586  1.00  0.00    -0.296 N 
HETATM   27  C21 UNL     1      42.259  -5.806  30.412  1.00  0.00     0.153 A 
ATOM     28  H4  UNL     1      42.212  -6.041  32.523  1.00  0.00     0.177 HD
BRANCH  27  29
HETATM   29  N5  UNL     1      42.439  -4.488  30.399  1.00  0.00    -0.382 N 
ATOM     30  H52 UNL     1      42.284  -3.973  29.532  1.00  0.00     0.157 HD
ATOM     31  H51 UNL     1      42.728  -3.939  31.209  1.00  0.00     0.157 HD
ENDBRANCH  27  29
ENDBRANCH  18  22
ENDBRANCH  10  16
ENDBRANCH   8   9
BRANCH   8  32
HETATM   32  O3  UNL     1      37.739  -5.861  23.545  1.00  0.00    -0.368 OA
ATOM     33  H3  UNL     1      37.230  -5.711  22.758  1.00  0.00     0.213 HD
ENDBRANCH   8  32
ENDBRANCH   7   8
ENDBRANCH   1   7
BRANCH   6  34
HETATM   34  O13 UNL     1      35.310  -2.230  22.171  1.00  0.00    -0.388 OA
ATOM     35  H13 UNL     1      35.009  -1.523  22.729  1.00  0.00     0.210 HD
ENDBRANCH   6  34
BRANCH   5  36
HETATM   36  O12 UNL     1      38.614  -1.131  22.949  1.00  0.00    -0.388 OA
ATOM     37  H12 UNL     1      38.940  -2.023  22.989  1.00  0.00     0.210 HD
ENDBRANCH   5  36
BRANCH   4  38
HETATM   38  O7  UNL     1      36.833   0.345  24.724  1.00  0.00    -0.337 OA
BRANCH  38  39
HETATM   39  C9  UNL     1      36.327   1.367  23.932  1.00  0.00     0.219 C 
HETATM   40  S1  UNL     1      35.590   2.685  24.973  1.00  0.00    -0.106 SA
HETATM   41  C10 UNL     1      35.220   4.080  23.874  1.00  0.00     0.180 C 
HETATM   42  C13 UNL     1      36.265   4.261  22.814  1.00  0.00     0.182 C 
HETATM   43  C14 UNL     1      36.651   2.988  22.140  1.00  0.00     0.181 C 
HETATM   44  C15 UNL     1      37.362   2.027  23.068  1.00  0.00     0.188 C 
BRANCH  41  45
HETATM   45  N1  UNL     1      34.981   5.289  24.594  1.00  0.00    -0.345 N 
HETATM   46  C11 UNL     1      34.274   6.405  24.066  1.00  0.00     0.214 C 
HETATM   47  C12 UNL     1      34.041   7.645  24.840  1.00  0.00     0.117 C 
HETATM   48  O8  UNL     1      33.799   6.388  22.884  1.00  0.00    -0.274 OA
ATOM     49  H1  UNL     1      35.338   5.357  25.547  1.00  0.00     0.163 HD
ENDBRANCH  41  45
BRANCH  42  50
HETATM   50  O9  UNL     1      37.404   4.903  23.278  1.00  0.00    -0.390 OA
ATOM     51  H9  UNL     1      38.050   5.052  22.597  1.00  0.00     0.210 HD
ENDBRANCH  42  50
BRANCH  43  52
HETATM   52  O10 UNL     1      37.436   3.308  21.027  1.00  0.00    -0.390 OA
ATOM     53  H10 UNL     1      37.048   2.895  20.265  1.00  0.00     0.210 HD
ENDBRANCH  43  52
BRANCH  44  54
HETATM   54  O11 UNL     1      38.237   2.742  23.908  1.00  0.00    -0.389 OA
ATOM     55  H11 UNL     1      38.757   3.322  23.365  1.00  0.00     0.210 HD
ENDBRANCH  44  54
ENDBRANCH  38  39
ENDBRANCH   4  38
TORSDOF 18
ENDMDL
MODEL 3
REMARK VINA RESULT: -7.503154975      4.043      7.831
REMARK  18 active torsions:
REMARK  status: ('A' for Active; 'I' for Inactive)
REMARK    1  A    between atoms: C2_2  and  C3_3 
REMARK    2  A    between atoms: C3_3  and  O2_5 
REMARK    3  A    between atoms: O2_5  and  C4_6 
REMARK    4  A    between atoms: C4_6  and  C18_40 
REMARK    5  A    between atoms: C5_7  and  C6_8 
REMARK    6  A    between atoms: C6_8  and  O3_9 
REMARK    7  A    between atoms: C6_8  and  O4_11 
REMARK    8  A    between atoms: O4_11  and  C7_12 
REMARK    9  A    between atoms: C8_15  and  O7_16 
REMARK   10  A    between atoms: O7_16  and  C9_17 
REMARK   11  A    between atoms: C10_19  and  N1_20 
REMARK       I    between atoms: N1_20  and  C11_22 
REMARK   12  A    between atoms: C13_25  and  O9_26 
REMARK   13  A    between atoms: C14_28  and  O10_29 
REMARK   14  A    between atoms: C15_31  and  O11_32 
REMARK   15  A    between atoms: C16_34  and  O12_35 
REMARK   16  A    between atoms: C17_37  and  O13_38 
REMARK   17  A    between atoms: N2_42  and  C20_43 
REMARK   18  A    between atoms: C21_49  and  N5_50 
ROOT
HETATM    1  C7  UNL     1      36.638  -3.999  23.361  1.00  0.00     0.331 C 
HETATM    2  O5  UNL     1      36.241  -3.430  24.586  1.00  0.00    -0.203 OA
HETATM    3  O6  UNL     1      36.931  -2.370  24.881  1.00  0.00    -0.203 OA
HETATM    4  C8  UNL     1      36.679  -1.306  24.018  1.00  0.00     0.329 C 
HETATM    5  C16 UNL     1      37.180  -1.730  22.650  1.00  0.00     0.209 C 
HETATM    6  C17 UNL     1      36.371  -2.984  22.287  1.00  0.00     0.210 C 
ENDROOT
BRANCH   1   7
HETATM    7  O4  UNL     1      37.952  -4.368  23.463  1.00  0.00    -0.323 OA
BRANCH   7   8
HETATM    8  C6  UNL     1      38.262  -5.578  22.908  1.00  0.00     0.287 C 
BRANCH   8   9
HETATM    9  C5  UNL     1      38.289  -5.551  21.417  1.00  0.00     0.072 C 
HETATM   10  C4  UNL     1      38.193  -6.603  20.667  1.00  0.00     0.109 C 
BRANCH  10  11
HETATM   11  O2  UNL     1      38.056  -7.850  21.245  1.00  0.00    -0.277 OA
BRANCH  11  12
HETATM   12  C3  UNL     1      36.800  -8.445  21.177  1.00  0.00     0.263 C 
HETATM   13  O1  UNL     1      35.841  -8.063  21.895  1.00  0.00    -0.265 OA
BRANCH  12  14
HETATM   14  C2  UNL     1      36.540  -9.572  20.239  1.00  0.00     0.107 C 
HETATM   15  C1  UNL     1      35.715  -9.052  19.079  1.00  0.00     0.015 C 
ENDBRANCH  12  14
ENDBRANCH  11  12
ENDBRANCH  10  11
BRANCH  10  16
HETATM   16  C18 UNL     1      38.229  -6.468  19.222  1.00  0.00     0.097 A 
HETATM   17  C19 UNL     1      37.457  -5.617  18.426  1.00  0.00     0.149 A 
HETATM   18  N2  UNL     1      37.778  -5.780  17.140  1.00  0.00    -0.229 N 
HETATM   19  N6  UNL     1      38.722  -6.704  17.115  1.00  0.00    -0.013 NA
HETATM   20  N7  UNL     1      39.004  -7.124  18.335  1.00  0.00    -0.280 N 
ATOM     21  H7  UNL     1      39.700  -7.832  18.569  1.00  0.00     0.184 HD
BRANCH  18  22
HETATM   22  C20 UNL     1      37.192  -5.074  16.008  1.00  0.00     0.177 A 
HETATM   23  N3  UNL     1      37.238  -3.749  15.946  1.00  0.00    -0.294 N 
HETATM   24  S2  UNL     1      36.461  -3.384  14.506  1.00  0.00     0.070 SA
ATOM     25  H3  UNL     1      37.651  -3.103  16.619  1.00  0.00     0.177 HD
HETATM   26  N4  UNL     1      36.089  -4.948  14.007  1.00  0.00    -0.296 N 
HETATM   27  C21 UNL     1      36.585  -5.717  14.982  1.00  0.00     0.153 A 
ATOM     28  H4  UNL     1      35.601  -5.241  13.161  1.00  0.00     0.177 HD
BRANCH  27  29
HETATM   29  N5  UNL     1      36.457  -7.038  14.896  1.00  0.00    -0.382 N 
ATOM     30  H52 UNL     1      35.599  -7.478  15.225  1.00  0.00     0.157 HD
ATOM     31  H51 UNL     1      37.172  -7.661  14.518  1.00  0.00     0.157 HD
ENDBRANCH  27  29
ENDBRANCH  18  22
ENDBRANCH  10  16
ENDBRANCH   8   9
BRANCH   8  32
HETATM   32  O3  UNL     1      39.527  -6.046  23.303  1.00  0.00    -0.368 OA
ATOM     33  H3  UNL     1      39.536  -5.993  24.251  1.00  0.00     0.213 HD
ENDBRANCH   8  32
ENDBRANCH   7   8
ENDBRANCH   1   7
BRANCH   6  34
HETATM   34  O13 UNL     1      35.037  -2.578  22.285  1.00  0.00    -0.388 OA
ATOM     35  H13 UNL     1      34.910  -1.797  21.759  1.00  0.00     0.210 HD
ENDBRANCH   6  34
BRANCH   5  36
HETATM   36  O12 UNL     1      38.535  -1.982  22.657  1.00  0.00    -0.388 OA
ATOM     37  H12 UNL     1      39.042  -1.181  22.721  1.00  0.00     0.210 HD
ENDBRANCH   5  36
BRANCH   4  38
HETATM   38  O7  UNL     1      37.202  -0.117  24.459  1.00  0.00    -0.337 OA
BRANCH  38  39
HETATM   39  C9  UNL     1      36.677   0.933  23.715  1.00  0.00     0.219 C 
HETATM   40  S1  UNL     1      35.907   2.181  24.817  1.00  0.00    -0.106 SA
HETATM   41  C10 UNL     1      35.512   3.621  23.787  1.00  0.00     0.180 C 
HETATM   42  C13 UNL     1      36.558   3.877  22.743  1.00  0.00     0.182 C 
HETATM   43  C14 UNL     1      36.974   2.647  22.009  1.00  0.00     0.181 C 
HETATM   44  C15 UNL     1      37.701   1.657  22.892  1.00  0.00     0.188 C 
BRANCH  41  45
HETATM   45  N1  UNL     1      35.243   4.786  24.564  1.00  0.00    -0.345 N 
HETATM   46  C11 UNL     1      34.581   5.942  24.065  1.00  0.00     0.214 C 
HETATM   47  C12 UNL     1      34.315   7.136  24.900  1.00  0.00     0.117 C 
HETATM   48  O8  UNL     1      34.178   6.005  22.859  1.00  0.00    -0.274 OA
ATOM     49  H1  UNL     1      35.543   4.791  25.539  1.00  0.00     0.163 HD
ENDBRANCH  41  45
BRANCH  42  50
HETATM   50  O9  UNL     1      37.680   4.518  23.245  1.00  0.00    -0.390 OA
ATOM     51  H9  UNL     1      37.918   5.293  22.749  1.00  0.00     0.210 HD
ENDBRANCH  42  50
BRANCH  43  52
HETATM   52  O10 UNL     1      37.757   3.039  20.917  1.00  0.00    -0.390 OA
ATOM     53  H10 UNL     1      38.385   2.348  20.743  1.00  0.00     0.210 HD
ENDBRANCH  43  52
BRANCH  44  54
HETATM   54  O11 UNL     1      38.557   2.348  23.771  1.00  0.00    -0.389 OA
ATOM     55  H11 UNL     1      39.338   1.822  23.895  1.00  0.00     0.210 HD
ENDBRANCH  44  54
ENDBRANCH  38  39
ENDBRANCH   4  38
TORSDOF 18
ENDMDL
MODEL 4
REMARK VINA RESULT: -7.487463873      6.141      8.565
REMARK  18 active torsions:
REMARK  status: ('A' for Active; 'I' for Inactive)
REMARK    1  A    between atoms: C2_2  and  C3_3 
REMARK    2  A    between atoms: C3_3  and  O2_5 
REMARK    3  A    between atoms: O2_5  and  C4_6 
REMARK    4  A    between atoms: C4_6  and  C18_40 
REMARK    5  A    between atoms: C5_7  and  C6_8 
REMARK    6  A    between atoms: C6_8  and  O3_9 
REMARK    7  A    between atoms: C6_8  and  O4_11 
REMARK    8  A    between atoms: O4_11  and  C7_12 
REMARK    9  A    between atoms: C8_15  and  O7_16 
REMARK   10  A    between atoms: O7_16  and  C9_17 
REMARK   11  A    between atoms: C10_19  and  N1_20 
REMARK       I    between atoms: N1_20  and  C11_22 
REMARK   12  A    between atoms: C13_25  and  O9_26 
REMARK   13  A    between atoms: C14_28  and  O10_29 
REMARK   14  A    between atoms: C15_31  and  O11_32 
REMARK   15  A    between atoms: C16_34  and  O12_35 
REMARK   16  A    between atoms: C17_37  and  O13_38 
REMARK   17  A    between atoms: N2_42  and  C20_43 
REMARK   18  A    between atoms: C21_49  and  N5_50 
ROOT
HETATM    1  C7  UNL     1      37.098  -1.450  22.913  1.00  0.00     0.331 C 
HETATM    2  O5  UNL     1      38.219  -2.111  22.376  1.00  0.00    -0.203 OA
HETATM    3  O6  UNL     1      38.665  -3.040  23.166  1.00  0.00    -0.203 OA
HETATM    4  C8  UNL     1      37.781  -4.109  23.292  1.00  0.00     0.329 C 
HETATM    5  C16 UNL     1      36.544  -3.570  23.985  1.00  0.00     0.209 C 
HETATM    6  C17 UNL     1      36.004  -2.468  23.060  1.00  0.00     0.210 C 
ENDROOT
BRANCH   1   7
HETATM    7  O4  UNL     1      37.469  -0.858  24.090  1.00  0.00    -0.323 OA
BRANCH   7   8
HETATM    8  C6  UNL     1      38.051   0.372  23.967  1.00  0.00     0.287 C 
BRANCH   8   9
HETATM    9  C5  UNL     1      37.080   1.496  24.093  1.00  0.00     0.072 C 
HETATM   10  C4  UNL     1      37.302   2.702  23.672  1.00  0.00     0.109 C 
BRANCH  10  11
HETATM   11  O2  UNL     1      38.502   3.007  23.062  1.00  0.00    -0.277 OA
BRANCH  11  12
HETATM   12  C3  UNL     1      38.488   3.169  21.680  1.00  0.00     0.263 C 
HETATM   13  O1  UNL     1      39.110   4.102  21.112  1.00  0.00    -0.265 OA
BRANCH  12  14
HETATM   14  C2  UNL     1      37.724   2.233  20.810  1.00  0.00     0.107 C 
HETATM   15  C1  UNL     1      38.338   2.257  19.424  1.00  0.00     0.015 C 
ENDBRANCH  12  14
ENDBRANCH  11  12
ENDBRANCH  10  11
BRANCH  10  16
HETATM   16  C18 UNL     1      36.288   3.726  23.843  1.00  0.00     0.097 A 
HETATM   17  C19 UNL     1      36.159   4.926  23.137  1.00  0.00     0.149 A 
HETATM   18  N2  UNL     1      35.100   5.606  23.583  1.00  0.00    -0.229 N 
HETATM   19  N6  UNL     1      34.571   4.868  24.541  1.00  0.00    -0.013 NA
HETATM   20  N7  UNL     1      35.256   3.752  24.712  1.00  0.00    -0.280 N 
ATOM     21  H7  UNL     1      35.040   3.025  25.393  1.00  0.00     0.184 HD
BRANCH  18  22
HETATM   22  C20 UNL     1      34.639   6.901  23.097  1.00  0.00     0.177 A 
HETATM   23  N3  UNL     1      35.312   7.540  22.148  1.00  0.00    -0.294 N 
HETATM   24  S2  UNL     1      34.436   8.951  21.914  1.00  0.00     0.070 SA
ATOM     25  H3  UNL     1      36.163   7.242  21.672  1.00  0.00     0.177 HD
HETATM   26  N4  UNL     1      33.217   8.692  23.044  1.00  0.00    -0.296 N 
HETATM   27  C21 UNL     1      33.527   7.506  23.577  1.00  0.00     0.153 A 
ATOM     28  H4  UNL     1      32.428   9.298  23.271  1.00  0.00     0.177 HD
BRANCH  27  29
HETATM   29  N5  UNL     1      32.746   6.996  24.526  1.00  0.00    -0.382 N 
ATOM     30  H52 UNL     1      32.883   7.288  25.494  1.00  0.00     0.157 HD
ATOM     31  H51 UNL     1      32.004   6.317  24.357  1.00  0.00     0.157 HD
ENDBRANCH  27  29
ENDBRANCH  18  22
ENDBRANCH  10  16
ENDBRANCH   8   9
BRANCH   8  32
HETATM   32  O3  UNL     1      39.034   0.605  24.944  1.00  0.00    -0.368 OA
ATOM     33  H3  UNL     1      39.178  -0.231  25.369  1.00  0.00     0.213 HD
ENDBRANCH   8  32
ENDBRANCH   7   8
ENDBRANCH   1   7
BRANCH   6  34
HETATM   34  O13 UNL     1      35.727  -3.102  21.849  1.00  0.00    -0.388 OA
ATOM     35  H13 UNL     1      35.216  -2.545  21.273  1.00  0.00     0.210 HD
ENDBRANCH   6  34
BRANCH   5  36
HETATM   36  O12 UNL     1      36.833  -3.084  25.242  1.00  0.00    -0.388 OA
ATOM     37  H12 UNL     1      36.353  -3.549  25.918  1.00  0.00     0.210 HD
ENDBRANCH   5  36
BRANCH   4  38
HETATM   38  O7  UNL     1      38.337  -5.199  23.913  1.00  0.00    -0.337 OA
BRANCH  38  39
HETATM   39  C9  UNL     1      39.654  -4.923  24.258  1.00  0.00     0.219 C 
HETATM   40  S1  UNL     1      40.087  -5.733  25.847  1.00  0.00    -0.106 SA
HETATM   41  C10 UNL     1      41.879  -5.550  26.059  1.00  0.00     0.180 C 
HETATM   42  C13 UNL     1      42.622  -5.676  24.763  1.00  0.00     0.182 C 
HETATM   43  C14 UNL     1      42.015  -4.884  23.655  1.00  0.00     0.181 C 
HETATM   44  C15 UNL     1      40.653  -5.400  23.244  1.00  0.00     0.188 C 
BRANCH  41  45
HETATM   45  N1  UNL     1      42.400  -6.429  27.056  1.00  0.00    -0.345 N 
HETATM   46  C11 UNL     1      42.508  -6.097  28.434  1.00  0.00     0.214 C 
HETATM   47  C12 UNL     1      43.052  -7.033  29.444  1.00  0.00     0.117 C 
HETATM   48  O8  UNL     1      42.134  -4.960  28.873  1.00  0.00    -0.274 OA
ATOM     49  H1  UNL     1      42.713  -7.354  26.761  1.00  0.00     0.163 HD
ENDBRANCH  41  45
BRANCH  42  50
HETATM   50  O9  UNL     1      42.784  -6.992  24.356  1.00  0.00    -0.390 OA
ATOM     51  H9  UNL     1      42.335  -7.188  23.542  1.00  0.00     0.210 HD
ENDBRANCH  42  50
BRANCH  43  52
HETATM   52  O10 UNL     1      42.913  -4.885  22.581  1.00  0.00    -0.390 OA
ATOM     53  H10 UNL     1      42.720  -5.639  22.037  1.00  0.00     0.210 HD
ENDBRANCH  43  52
BRANCH  44  54
HETATM   54  O11 UNL     1      40.655  -6.808  23.264  1.00  0.00    -0.389 OA
ATOM     55  H11 UNL     1      40.251  -7.114  22.461  1.00  0.00     0.210 HD
ENDBRANCH  44  54
ENDBRANCH  38  39
ENDBRANCH   4  38
TORSDOF 18
ENDMDL
MODEL 5
REMARK VINA RESULT: -7.432401960      4.023      8.075
REMARK  18 active torsions:
REMARK  status: ('A' for Active; 'I' for Inactive)
REMARK    1  A    between atoms: C2_2  and  C3_3 
REMARK    2  A    between atoms: C3_3  and  O2_5 
REMARK    3  A    between atoms: O2_5  and  C4_6 
REMARK    4  A    between atoms: C4_6  and  C18_40 
REMARK    5  A    between atoms: C5_7  and  C6_8 
REMARK    6  A    between atoms: C6_8  and  O3_9 
REMARK    7  A    between atoms: C6_8  and  O4_11 
REMARK    8  A    between atoms: O4_11  and  C7_12 
REMARK    9  A    between atoms: C8_15  and  O7_16 
REMARK   10  A    between atoms: O7_16  and  C9_17 
REMARK   11  A    between atoms: C10_19  and  N1_20 
REMARK       I    between atoms: N1_20  and  C11_22 
REMARK   12  A    between atoms: C13_25  and  O9_26 
REMARK   13  A    between atoms: C14_28  and  O10_29 
REMARK   14  A    between atoms: C15_31  and  O11_32 
REMARK   15  A    between atoms: C16_34  and  O12_35 
REMARK   16  A    between atoms: C17_37  and  O13_38 
REMARK   17  A    between atoms: N2_42  and  C20_43 
REMARK   18  A    between atoms: C21_49  and  N5_50 
ROOT
HETATM    1  C7  UNL     1      36.622  -4.109  23.237  1.00  0.00     0.331 C 
HETATM    2  O5  UNL     1      36.591  -3.504  24.507  1.00  0.00    -0.203 OA
HETATM    3  O6  UNL     1      37.383  -2.479  24.581  1.00  0.00    -0.203 OA
HETATM    4  C8  UNL     1      36.962  -1.414  23.787  1.00  0.00     0.329 C 
HETATM    5  C16 UNL     1      37.061  -1.881  22.347  1.00  0.00     0.209 C 
HETATM    6  C17 UNL     1      36.127  -3.096  22.245  1.00  0.00     0.210 C 
ENDROOT
BRANCH   1   7
HETATM    7  O4  UNL     1      37.897  -4.545  22.997  1.00  0.00    -0.323 OA
BRANCH   7   8
HETATM    8  C6  UNL     1      38.003  -5.846  22.592  1.00  0.00     0.287 C 
BRANCH   8   9
HETATM    9  C5  UNL     1      37.480  -6.077  21.215  1.00  0.00     0.072 C 
HETATM   10  C4  UNL     1      37.243  -7.247  20.711  1.00  0.00     0.109 C 
BRANCH  10  11
HETATM   11  O2  UNL     1      37.476  -8.380  21.466  1.00  0.00    -0.277 OA
BRANCH  11  12
HETATM   12  C3  UNL     1      38.488  -9.231  21.035  1.00  0.00     0.263 C 
HETATM   13  O1  UNL     1      39.696  -8.884  21.034  1.00  0.00    -0.265 OA
BRANCH  12  14
HETATM   14  C2  UNL     1      38.177 -10.604  20.550  1.00  0.00     0.107 C 
HETATM   15  C1  UNL     1      36.856 -11.039  21.153  1.00  0.00     0.015 C 
ENDBRANCH  12  14
ENDBRANCH  11  12
ENDBRANCH  10  11
BRANCH  10  16
HETATM   16  C18 UNL     1      36.735  -7.362  19.357  1.00  0.00     0.097 A 
HETATM   17  C19 UNL     1      36.941  -6.482  18.290  1.00  0.00     0.149 A 
HETATM   18  N2  UNL     1      36.310  -6.928  17.202  1.00  0.00    -0.229 N 
HETATM   19  N6  UNL     1      35.718  -8.054  17.560  1.00  0.00    -0.013 NA
HETATM   20  N7  UNL     1      35.957  -8.329  18.829  1.00  0.00    -0.280 N 
ATOM     21  H7  UNL     1      35.608  -9.146  19.331  1.00  0.00     0.184 HD
BRANCH  18  22
HETATM   22  C20 UNL     1      36.288  -6.287  15.893  1.00  0.00     0.177 A 
HETATM   23  N3  UNL     1      35.776  -5.070  15.751  1.00  0.00    -0.294 N 
HETATM   24  S2  UNL     1      35.960  -4.745  14.116  1.00  0.00     0.070 SA
ATOM     25  H3  UNL     1      35.367  -4.472  16.468  1.00  0.00     0.177 HD
HETATM   26  N4  UNL     1      36.693  -6.184  13.644  1.00  0.00    -0.296 N 
HETATM   27  C21 UNL     1      36.777  -6.884  14.780  1.00  0.00     0.153 A 
ATOM     28  H4  UNL     1      37.001  -6.459  12.711  1.00  0.00     0.177 HD
BRANCH  27  29
HETATM   29  N5  UNL     1      37.320  -8.098  14.758  1.00  0.00    -0.382 N 
ATOM     30  H52 UNL     1      38.315  -8.195  14.560  1.00  0.00     0.157 HD
ATOM     31  H51 UNL     1      36.803  -8.962  14.926  1.00  0.00     0.157 HD
ENDBRANCH  27  29
ENDBRANCH  18  22
ENDBRANCH  10  16
ENDBRANCH   8   9
BRANCH   8  32
HETATM   32  O3  UNL     1      39.331  -6.302  22.578  1.00  0.00    -0.368 OA
ATOM     33  H3  UNL     1      39.849  -5.598  22.949  1.00  0.00     0.213 HD
ENDBRANCH   8  32
ENDBRANCH   7   8
ENDBRANCH   1   7
BRANCH   6  34
HETATM   34  O13 UNL     1      34.861  -2.622  22.585  1.00  0.00    -0.388 OA
ATOM     35  H13 UNL     1      34.413  -2.252  21.832  1.00  0.00     0.210 HD
ENDBRANCH   6  34
BRANCH   5  36
HETATM   36  O12 UNL     1      38.356  -2.203  22.003  1.00  0.00    -0.388 OA
ATOM     37  H12 UNL     1      38.388  -2.767  21.238  1.00  0.00     0.210 HD
ENDBRANCH   5  36
BRANCH   4  38
HETATM   38  O7  UNL     1      37.637  -0.248  24.043  1.00  0.00    -0.337 OA
BRANCH  38  39
HETATM   39  C9  UNL     1      37.039   0.803  23.358  1.00  0.00     0.219 C 
HETATM   40  S1  UNL     1      36.275   1.986  24.533  1.00  0.00    -0.106 SA
HETATM   41  C10 UNL     1      35.779   3.440  23.569  1.00  0.00     0.180 C 
HETATM   42  C13 UNL     1      36.765   3.768  22.488  1.00  0.00     0.182 C 
HETATM   43  C14 UNL     1      37.192   2.578  21.696  1.00  0.00     0.181 C 
HETATM   44  C15 UNL     1      37.997   1.591  22.513  1.00  0.00     0.188 C 
BRANCH  41  45
HETATM   45  N1  UNL     1      35.503   4.570  24.395  1.00  0.00    -0.345 N 
HETATM   46  C11 UNL     1      34.794   5.723  23.958  1.00  0.00     0.214 C 
HETATM   47  C12 UNL     1      34.523   6.879  24.842  1.00  0.00     0.117 C 
HETATM   48  O8  UNL     1      34.351   5.816  22.767  1.00  0.00    -0.274 OA
ATOM     49  H1  UNL     1      35.834   4.550  25.359  1.00  0.00     0.163 HD
ENDBRANCH  41  45
BRANCH  42  50
HETATM   50  O9  UNL     1      37.885   4.437  22.958  1.00  0.00    -0.390 OA
ATOM     51  H9  UNL     1      38.701   4.049  22.665  1.00  0.00     0.210 HD
ENDBRANCH  42  50
BRANCH  43  52
HETATM   52  O10 UNL     1      37.908   3.034  20.583  1.00  0.00    -0.390 OA
ATOM     53  H10 UNL     1      38.657   2.461  20.461  1.00  0.00     0.210 HD
ENDBRANCH  43  52
BRANCH  44  54
HETATM   54  O11 UNL     1      38.866   2.287  23.374  1.00  0.00    -0.389 OA
ATOM     55  H11 UNL     1      39.597   2.607  22.859  1.00  0.00     0.210 HD
ENDBRANCH  44  54
ENDBRANCH  38  39
ENDBRANCH   4  38
TORSDOF 18
ENDMDL
