MODEL 1
REMARK VINA RESULT: -6.120619600      0.000      0.000
REMARK  5 active torsions:
REMARK  status: ('A' for Active; 'I' for Inactive)
REMARK    1  A    between atoms: N1_1  and  C1_4 
REMARK    2  A    between atoms: C3_6  and  C4_7 
REMARK    3  A    between atoms: C4_7  and  C5_8 
REMARK    4  A    between atoms: C6_9  and  C7_10 
REMARK       I    between atoms: C7_10  and  N2_12 
REMARK       I    between atoms: N2_12  and  C8_14 
REMARK       I    between atoms: C8_14  and  N3_15 
REMARK       I    between atoms: C8_14  and  N4_19 
REMARK    5  A    between atoms: N6_27  and  N7_28 
REMARK       I    between atoms: N7_28  and  C10_30 
ROOT
HETATM    1  C5  UNL     1      31.785  16.112  12.854  1.00  0.00     0.076 A 
HETATM    2  C6  UNL     1      32.592  17.208  12.925  1.00  0.00     0.130 A 
HETATM    3  N5  UNL     1      33.259  17.296  11.747  1.00  0.00    -0.301 N 
ATOM      4  H5  UNL     1      33.937  18.014  11.491  1.00  0.00     0.171 HD
HETATM    5  C9  UNL     1      32.859  16.252  10.966  1.00  0.00     0.346 A 
HETATM    6  O2  UNL     1      33.296  16.048   9.800  1.00  0.00    -0.245 OA
HETATM    7  N6  UNL     1      31.959  15.505  11.607  1.00  0.00    -0.203 N 
ENDROOT
BRANCH   2   8
HETATM    8  C7  UNL     1      32.864  18.154  14.014  1.00  0.00     0.273 C 
HETATM    9  O1  UNL     1      33.375  17.857  15.111  1.00  0.00    -0.266 OA
HETATM   10  N2  UNL     1      32.533  19.540  13.846  1.00  0.00    -0.306 N 
HETATM   11  C8  UNL     1      32.777  20.516  14.879  1.00  0.00     0.483 C 
ATOM     12  H2  UNL     1      32.112  19.845  12.968  1.00  0.00     0.166 HD
HETATM   13  N3  UNL     1      31.552  21.102  15.382  1.00  0.00    -0.033 N 
HETATM   14  N4  UNL     1      33.645  21.579  14.480  1.00  0.00    -0.033 N 
ATOM     15  H33 UNL     1      30.995  21.498  14.625  1.00  0.00     0.278 HD
ATOM     16  H32 UNL     1      30.903  20.383  15.702  1.00  0.00     0.278 HD
ATOM     17  H31 UNL     1      31.724  21.792  16.113  1.00  0.00     0.278 HD
ATOM     18  H43 UNL     1      34.526  21.207  14.123  1.00  0.00     0.278 HD
ATOM     19  H42 UNL     1      33.294  22.030  13.636  1.00  0.00     0.278 HD
ATOM     20  H41 UNL     1      33.817  22.269  15.211  1.00  0.00     0.278 HD
ENDBRANCH   2   8
BRANCH   1  21
HETATM   21  C4  UNL     1      30.837  15.636  13.869  1.00  0.00     0.100 C 
BRANCH  21  22
HETATM   22  C3  UNL     1      31.346  14.674  14.850  1.00  0.00    -0.048 A 
HETATM   23  C2  UNL     1      31.755  15.022  16.125  1.00  0.00     0.055 A 
HETATM   24  C1  UNL     1      32.182  14.027  16.986  1.00  0.00     0.098 A 
HETATM   25  N9  UNL     1      32.215  12.726  16.631  1.00  0.00    -0.353 N 
HETATM   26  C12 UNL     1      31.824  12.347  15.394  1.00  0.00     0.090 A 
ATOM     27  H9  UNL     1      32.537  12.026  17.300  1.00  0.00     0.166 HD
HETATM   28  C11 UNL     1      31.404  13.336  14.552  1.00  0.00     0.024 A 
BRANCH  24  29
HETATM   29  N1  UNL     1      32.568  14.343  18.186  1.00  0.00    -0.385 N 
ATOM     30  H12 UNL     1      33.519  14.690  18.308  1.00  0.00     0.157 HD
ATOM     31  H11 UNL     1      31.919  14.237  18.966  1.00  0.00     0.157 HD
ENDBRANCH  24  29
ENDBRANCH  21  22
ENDBRANCH   1  21
BRANCH   7  32
HETATM   32  N7  UNL     1      31.303  14.354  11.204  1.00  0.00    -0.243 N 
HETATM   33  C10 UNL     1      31.825  13.099  10.895  1.00  0.00     0.347 C 
HETATM   34  N8  UNL     1      30.912  12.043  10.492  1.00  0.00    -0.038 NA
HETATM   35  O3  UNL     1      33.010  12.735  10.915  1.00  0.00    -0.249 OA
ATOM     36  H7  UNL     1      30.289  14.437  11.122  1.00  0.00     0.192 HD
ENDBRANCH   7  32
TORSDOF 5
ENDMDL
MODEL 2
REMARK VINA RESULT: -6.119418012      1.254      1.757
REMARK  5 active torsions:
REMARK  status: ('A' for Active; 'I' for Inactive)
REMARK    1  A    between atoms: N1_1  and  C1_4 
REMARK    2  A    between atoms: C3_6  and  C4_7 
REMARK    3  A    between atoms: C4_7  and  C5_8 
REMARK    4  A    between atoms: C6_9  and  C7_10 
REMARK       I    between atoms: C7_10  and  N2_12 
REMARK       I    between atoms: N2_12  and  C8_14 
REMARK       I    between atoms: C8_14  and  N3_15 
REMARK       I    between atoms: C8_14  and  N4_19 
REMARK    5  A    between atoms: N6_27  and  N7_28 
REMARK       I    between atoms: N7_28  and  C10_30 
ROOT
HETATM    1  C5  UNL     1      31.657  15.909  12.419  1.00  0.00     0.076 A 
HETATM    2  C6  UNL     1      32.030  17.221  12.421  1.00  0.00     0.130 A 
HETATM    3  N5  UNL     1      32.825  17.417  11.340  1.00  0.00    -0.301 N 
ATOM      4  H5  UNL     1      33.260  18.297  11.065  1.00  0.00     0.171 HD
HETATM    5  C9  UNL     1      32.937  16.224  10.687  1.00  0.00     0.346 A 
HETATM    6  O2  UNL     1      33.614  16.069   9.633  1.00  0.00    -0.245 OA
HETATM    7  N6  UNL     1      32.238  15.279  11.316  1.00  0.00    -0.203 N 
ENDROOT
BRANCH   2   8
HETATM    8  C7  UNL     1      31.778  18.308  13.375  1.00  0.00     0.273 C 
HETATM    9  O1  UNL     1      30.655  18.645  13.798  1.00  0.00    -0.266 OA
HETATM   10  N2  UNL     1      32.882  19.068  13.888  1.00  0.00    -0.306 N 
HETATM   11  C8  UNL     1      32.698  20.146  14.827  1.00  0.00     0.483 C 
ATOM     12  H2  UNL     1      33.826  18.838  13.579  1.00  0.00     0.166 HD
HETATM   13  N3  UNL     1      33.098  21.426  14.280  1.00  0.00    -0.033 N 
HETATM   14  N4  UNL     1      33.385  19.960  16.066  1.00  0.00    -0.033 N 
ATOM     15  H33 UNL     1      34.058  21.396  13.936  1.00  0.00     0.278 HD
ATOM     16  H32 UNL     1      32.617  21.617  13.401  1.00  0.00     0.278 HD
ATOM     17  H31 UNL     1      32.968  22.189  14.943  1.00  0.00     0.278 HD
ATOM     18  H43 UNL     1      33.126  19.069  16.489  1.00  0.00     0.278 HD
ATOM     19  H42 UNL     1      34.378  19.791  15.904  1.00  0.00     0.278 HD
ATOM     20  H41 UNL     1      33.255  20.723  16.730  1.00  0.00     0.278 HD
ENDBRANCH   2   8
BRANCH   1  21
HETATM   21  C4  UNL     1      30.758  15.236  13.366  1.00  0.00     0.100 C 
BRANCH  21  22
HETATM   22  C3  UNL     1      31.386  14.504  14.468  1.00  0.00    -0.048 A 
HETATM   23  C2  UNL     1      31.353  13.127  14.591  1.00  0.00     0.055 A 
HETATM   24  C1  UNL     1      32.015  12.532  15.652  1.00  0.00     0.098 A 
HETATM   25  N9  UNL     1      32.693  13.246  16.573  1.00  0.00    -0.353 N 
HETATM   26  C12 UNL     1      32.748  14.594  16.487  1.00  0.00     0.090 A 
ATOM     27  H9  UNL     1      33.167  12.765  17.339  1.00  0.00     0.166 HD
HETATM   28  C11 UNL     1      32.093  15.170  15.438  1.00  0.00     0.024 A 
BRANCH  24  29
HETATM   29  N1  UNL     1      31.990  11.239  15.776  1.00  0.00    -0.385 N 
ATOM     30  H12 UNL     1      31.333  10.714  15.199  1.00  0.00     0.157 HD
ATOM     31  H11 UNL     1      32.619  10.788  16.439  1.00  0.00     0.157 HD
ENDBRANCH  24  29
ENDBRANCH  21  22
ENDBRANCH   1  21
BRANCH   7  32
HETATM   32  N7  UNL     1      32.081  13.936  11.016  1.00  0.00    -0.243 N 
HETATM   33  C10 UNL     1      31.129  13.312  10.212  1.00  0.00     0.347 C 
HETATM   34  N8  UNL     1      31.181  11.869  10.058  1.00  0.00    -0.038 NA
HETATM   35  O3  UNL     1      30.200  13.834   9.578  1.00  0.00    -0.249 OA
ATOM     36  H7  UNL     1      32.764  13.311  11.448  1.00  0.00     0.192 HD
ENDBRANCH   7  32
TORSDOF 5
ENDMDL
MODEL 3
REMARK VINA RESULT: -6.113500226      0.477      1.285
REMARK  5 active torsions:
REMARK  status: ('A' for Active; 'I' for Inactive)
REMARK    1  A    between atoms: N1_1  and  C1_4 
REMARK    2  A    between atoms: C3_6  and  C4_7 
REMARK    3  A    between atoms: C4_7  and  C5_8 
REMARK    4  A    between atoms: C6_9  and  C7_10 
REMARK       I    between atoms: C7_10  and  N2_12 
REMARK       I    between atoms: N2_12  and  C8_14 
REMARK       I    between atoms: C8_14  and  N3_15 
REMARK       I    between atoms: C8_14  and  N4_19 
REMARK    5  A    between atoms: N6_27  and  N7_28 
REMARK       I    between atoms: N7_28  and  C10_30 
ROOT
HETATM    1  C5  UNL     1      31.889  16.210  12.985  1.00  0.00     0.076 A 
HETATM    2  C6  UNL     1      32.737  17.277  12.985  1.00  0.00     0.130 A 
HETATM    3  N5  UNL     1      33.342  17.312  11.771  1.00  0.00    -0.301 N 
ATOM      4  H5  UNL     1      34.030  17.998  11.461  1.00  0.00     0.171 HD
HETATM    5  C9  UNL     1      32.863  16.265  11.040  1.00  0.00     0.346 A 
HETATM    6  O2  UNL     1      33.228  16.016   9.858  1.00  0.00    -0.245 OA
HETATM    7  N6  UNL     1      31.973  15.567  11.748  1.00  0.00    -0.203 N 
ENDROOT
BRANCH   2   8
HETATM    8  C7  UNL     1      33.102  18.238  14.033  1.00  0.00     0.273 C 
HETATM    9  O1  UNL     1      33.771  17.971  15.049  1.00  0.00    -0.266 OA
HETATM   10  N2  UNL     1      32.677  19.604  13.919  1.00  0.00    -0.306 N 
HETATM   11  C8  UNL     1      33.004  20.593  14.914  1.00  0.00     0.483 C 
ATOM     12  H2  UNL     1      32.125  19.884  13.107  1.00  0.00     0.166 HD
HETATM   13  N3  UNL     1      31.828  21.113  15.581  1.00  0.00    -0.033 N 
HETATM   14  N4  UNL     1      33.751  21.701  14.409  1.00  0.00    -0.033 N 
ATOM     15  H33 UNL     1      31.153  21.477  14.908  1.00  0.00     0.278 HD
ATOM     16  H32 UNL     1      31.268  20.359  15.981  1.00  0.00     0.278 HD
ATOM     17  H31 UNL     1      32.059  21.813  16.286  1.00  0.00     0.278 HD
ATOM     18  H43 UNL     1      34.595  21.377  13.935  1.00  0.00     0.278 HD
ATOM     19  H42 UNL     1      33.266  22.132  13.622  1.00  0.00     0.278 HD
ATOM     20  H41 UNL     1      33.982  22.401  15.113  1.00  0.00     0.278 HD
ENDBRANCH   2   8
BRANCH   1  21
HETATM   21  C4  UNL     1      30.981  15.794  14.062  1.00  0.00     0.100 C 
BRANCH  21  22
HETATM   22  C3  UNL     1      31.507  14.838  15.039  1.00  0.00    -0.048 A 
HETATM   23  C2  UNL     1      31.496  13.467  14.852  1.00  0.00     0.055 A 
HETATM   24  C1  UNL     1      32.057  12.654  15.822  1.00  0.00     0.098 A 
HETATM   25  N9  UNL     1      32.616  13.147  16.946  1.00  0.00    -0.353 N 
HETATM   26  C12 UNL     1      32.647  14.481  17.164  1.00  0.00     0.090 A 
ATOM     27  H9  UNL     1      33.018  12.510  17.634  1.00  0.00     0.166 HD
HETATM   28  C11 UNL     1      32.091  15.274  16.201  1.00  0.00     0.024 A 
BRANCH  24  29
HETATM   29  N1  UNL     1      32.051  11.365  15.657  1.00  0.00    -0.385 N 
ATOM     30  H12 UNL     1      31.813  10.779  16.457  1.00  0.00     0.157 HD
ATOM     31  H11 UNL     1      32.282  10.976  14.742  1.00  0.00     0.157 HD
ENDBRANCH  24  29
ENDBRANCH  21  22
ENDBRANCH   1  21
BRANCH   7  32
HETATM   32  N7  UNL     1      31.256  14.432  11.411  1.00  0.00    -0.243 N 
HETATM   33  C10 UNL     1      31.717  13.166  11.053  1.00  0.00     0.347 C 
HETATM   34  N8  UNL     1      30.746  12.131  10.741  1.00  0.00    -0.038 NA
HETATM   35  O3  UNL     1      32.889  12.775  10.959  1.00  0.00    -0.249 OA
ATOM     36  H7  UNL     1      30.241  14.538  11.426  1.00  0.00     0.192 HD
ENDBRANCH   7  32
TORSDOF 5
ENDMDL
MODEL 4
REMARK VINA RESULT: -6.044519517      2.899      5.241
REMARK  5 active torsions:
REMARK  status: ('A' for Active; 'I' for Inactive)
REMARK    1  A    between atoms: N1_1  and  C1_4 
REMARK    2  A    between atoms: C3_6  and  C4_7 
REMARK    3  A    between atoms: C4_7  and  C5_8 
REMARK    4  A    between atoms: C6_9  and  C7_10 
REMARK       I    between atoms: C7_10  and  N2_12 
REMARK       I    between atoms: N2_12  and  C8_14 
REMARK       I    between atoms: C8_14  and  N3_15 
REMARK       I    between atoms: C8_14  and  N4_19 
REMARK    5  A    between atoms: N6_27  and  N7_28 
REMARK       I    between atoms: N7_28  and  C10_30 
ROOT
HETATM    1  C5  UNL     1      30.799  15.090  11.578  1.00  0.00     0.076 A 
HETATM    2  C6  UNL     1      31.994  15.014  12.230  1.00  0.00     0.130 A 
HETATM    3  N5  UNL     1      32.643  13.920  11.760  1.00  0.00    -0.301 N 
ATOM      4  H5  UNL     1      33.565  13.596  12.050  1.00  0.00     0.171 HD
HETATM    5  C9  UNL     1      31.839  13.331  10.828  1.00  0.00     0.346 A 
HETATM    6  O2  UNL     1      32.154  12.283  10.199  1.00  0.00    -0.245 OA
HETATM    7  N6  UNL     1      30.703  14.016  10.690  1.00  0.00    -0.203 N 
ENDROOT
BRANCH   2   8
HETATM    8  C7  UNL     1      32.574  15.825  13.309  1.00  0.00     0.273 C 
HETATM    9  O1  UNL     1      32.507  15.554  14.523  1.00  0.00    -0.266 OA
HETATM   10  N2  UNL     1      33.282  17.030  12.985  1.00  0.00    -0.306 N 
HETATM   11  C8  UNL     1      33.873  17.866  14.000  1.00  0.00     0.483 C 
ATOM     12  H2  UNL     1      33.370  17.304  12.007  1.00  0.00     0.166 HD
HETATM   13  N3  UNL     1      33.263  19.179  14.054  1.00  0.00    -0.033 N 
HETATM   14  N4  UNL     1      35.284  18.039  13.861  1.00  0.00    -0.033 N 
ATOM     15  H33 UNL     1      33.287  19.634  13.142  1.00  0.00     0.278 HD
ATOM     16  H32 UNL     1      32.253  19.111  14.176  1.00  0.00     0.278 HD
ATOM     17  H31 UNL     1      33.681  19.771  14.772  1.00  0.00     0.278 HD
ATOM     18  H43 UNL     1      35.754  17.133  13.824  1.00  0.00     0.278 HD
ATOM     19  H42 UNL     1      35.512  18.389  12.930  1.00  0.00     0.278 HD
ATOM     20  H41 UNL     1      35.701  18.630  14.578  1.00  0.00     0.278 HD
ENDBRANCH   2   8
BRANCH   1  21
HETATM   21  C4  UNL     1      29.773  16.132  11.716  1.00  0.00     0.100 C 
BRANCH  21  22
HETATM   22  C3  UNL     1      29.781  17.203  10.717  1.00  0.00    -0.048 A 
HETATM   23  C2  UNL     1      30.766  18.171  10.638  1.00  0.00     0.055 A 
HETATM   24  C1  UNL     1      30.697  19.116   9.629  1.00  0.00     0.098 A 
HETATM   25  N9  UNL     1      29.706  19.130   8.716  1.00  0.00    -0.353 N 
HETATM   26  C12 UNL     1      28.725  18.200   8.759  1.00  0.00     0.090 A 
ATOM     27  H9  UNL     1      29.696  19.845   7.988  1.00  0.00     0.166 HD
HETATM   28  C11 UNL     1      28.801  17.273   9.758  1.00  0.00     0.024 A 
BRANCH  24  29
HETATM   29  N1  UNL     1      31.618  20.030   9.547  1.00  0.00    -0.385 N 
ATOM     30  H12 UNL     1      31.982  20.262   8.623  1.00  0.00     0.157 HD
ATOM     31  H11 UNL     1      31.948  20.486  10.397  1.00  0.00     0.157 HD
ENDBRANCH  24  29
ENDBRANCH  21  22
ENDBRANCH   1  21
BRANCH   7  32
HETATM   32  N7  UNL     1      29.608  13.775   9.876  1.00  0.00    -0.243 N 
HETATM   33  C10 UNL     1      28.714  12.706   9.889  1.00  0.00     0.347 C 
HETATM   34  N8  UNL     1      27.634  12.688   8.916  1.00  0.00    -0.038 NA
HETATM   35  O3  UNL     1      28.703  11.723  10.644  1.00  0.00    -0.249 OA
ATOM     36  H7  UNL     1      29.431  14.484   9.164  1.00  0.00     0.192 HD
ENDBRANCH   7  32
TORSDOF 5
ENDMDL
MODEL 5
REMARK VINA RESULT: -6.037143420      2.527      5.138
REMARK  5 active torsions:
REMARK  status: ('A' for Active; 'I' for Inactive)
REMARK    1  A    between atoms: N1_1  and  C1_4 
REMARK    2  A    between atoms: C3_6  and  C4_7 
REMARK    3  A    between atoms: C4_7  and  C5_8 
REMARK    4  A    between atoms: C6_9  and  C7_10 
REMARK       I    between atoms: C7_10  and  N2_12 
REMARK       I    between atoms: N2_12  and  C8_14 
REMARK       I    between atoms: C8_14  and  N3_15 
REMARK       I    between atoms: C8_14  and  N4_19 
REMARK    5  A    between atoms: N6_27  and  N7_28 
REMARK       I    between atoms: N7_28  and  C10_30 
ROOT
HETATM    1  C5  UNL     1      31.588  13.332  15.293  1.00  0.00     0.076 A 
HETATM    2  C6  UNL     1      32.328  14.442  15.573  1.00  0.00     0.130 A 
HETATM    3  N5  UNL     1      33.201  14.109  16.556  1.00  0.00    -0.301 N 
ATOM      4  H5  UNL     1      33.893  14.725  16.981  1.00  0.00     0.171 HD
HETATM    5  C9  UNL     1      32.986  12.799  16.874  1.00  0.00     0.346 A 
HETATM    6  O2  UNL     1      33.639  12.181  17.759  1.00  0.00    -0.245 OA
HETATM    7  N6  UNL     1      32.008  12.290  16.124  1.00  0.00    -0.203 N 
ENDROOT
BRANCH   2   8
HETATM    8  C7  UNL     1      32.260  15.818  15.064  1.00  0.00     0.273 C 
HETATM    9  O1  UNL     1      31.432  16.675  15.426  1.00  0.00    -0.266 OA
HETATM   10  N2  UNL     1      33.202  16.253  14.073  1.00  0.00    -0.306 N 
HETATM   11  C8  UNL     1      33.186  17.590  13.537  1.00  0.00     0.483 C 
ATOM     12  H2  UNL     1      33.905  15.594  13.738  1.00  0.00     0.166 HD
HETATM   13  N3  UNL     1      32.888  17.611  12.119  1.00  0.00    -0.033 N 
HETATM   14  N4  UNL     1      34.400  18.314  13.744  1.00  0.00    -0.033 N 
ATOM     15  H33 UNL     1      33.530  17.013  11.599  1.00  0.00     0.278 HD
ATOM     16  H32 UNL     1      32.014  17.124  11.919  1.00  0.00     0.278 HD
ATOM     17  H31 UNL     1      32.876  18.557  11.739  1.00  0.00     0.278 HD
ATOM     18  H43 UNL     1      34.643  18.328  14.735  1.00  0.00     0.278 HD
ATOM     19  H42 UNL     1      35.196  17.791  13.379  1.00  0.00     0.278 HD
ATOM     20  H41 UNL     1      34.388  19.260  13.364  1.00  0.00     0.278 HD
ENDBRANCH   2   8
BRANCH   1  21
HETATM   21  C4  UNL     1      30.548  13.190  14.265  1.00  0.00     0.100 C 
BRANCH  21  22
HETATM   22  C3  UNL     1      30.856  13.720  12.935  1.00  0.00    -0.048 A 
HETATM   23  C2  UNL     1      30.120  14.715  12.316  1.00  0.00     0.055 A 
HETATM   24  C1  UNL     1      30.522  15.171  11.073  1.00  0.00     0.098 A 
HETATM   25  N9  UNL     1      31.607  14.683  10.438  1.00  0.00    -0.353 N 
HETATM   26  C12 UNL     1      32.351  13.710  11.010  1.00  0.00     0.090 A 
ATOM     27  H9  UNL     1      31.867  15.049   9.522  1.00  0.00     0.166 HD
HETATM   28  C11 UNL     1      31.947  13.266  12.236  1.00  0.00     0.024 A 
BRANCH  24  29
HETATM   29  N1  UNL     1      29.838  16.105  10.484  1.00  0.00    -0.385 N 
ATOM     30  H12 UNL     1      29.683  16.026   9.479  1.00  0.00     0.157 HD
ATOM     31  H11 UNL     1      29.478  16.885  11.034  1.00  0.00     0.157 HD
ENDBRANCH  24  29
ENDBRANCH  21  22
ENDBRANCH   1  21
BRANCH   7  32
HETATM   32  N7  UNL     1      31.456  11.020  16.117  1.00  0.00    -0.243 N 
HETATM   33  C10 UNL     1      32.025   9.809  15.725  1.00  0.00     0.347 C 
HETATM   34  N8  UNL     1      31.225   8.600  15.815  1.00  0.00    -0.038 NA
HETATM   35  O3  UNL     1      33.167   9.603  15.290  1.00  0.00    -0.249 OA
ATOM     36  H7  UNL     1      30.493  10.962  16.448  1.00  0.00     0.192 HD
ENDBRANCH   7  32
TORSDOF 5
ENDMDL
