MODEL 1
REMARK VINA RESULT: -5.455612478      0.000      0.000
REMARK  8 active torsions:
REMARK  status: ('A' for Active; 'I' for Inactive)
REMARK       I    between atoms: N1_2  and  C2_4 
REMARK    1  A    between atoms: C2_4  and  C3_6 
REMARK    2  A    between atoms: C3_6  and  C4_7 
REMARK    3  A    between atoms: C3_6  and  N10_36 
REMARK    4  A    between atoms: C5_8  and  C6_9 
REMARK    5  A    between atoms: C7_10  and  N2_11 
REMARK    6  A    between atoms: C10_16  and  N4_17 
REMARK    7  A    between atoms: C11_22  and  N6_23 
REMARK    8  A    between atoms: N6_23  and  N7_25 
REMARK       I    between atoms: N7_25  and  C12_27 
REMARK       I    between atoms: C12_27  and  N8_28 
REMARK       I    between atoms: C12_27  and  N9_32 
ROOT
HETATM    1  C6  UNL     1      32.005  15.656  12.221  1.00  0.00     0.108 A 
HETATM    2  C7  UNL     1      31.995  15.458  13.594  1.00  0.00     0.141 A 
HETATM    3  N3  UNL     1      32.777  16.185  14.407  1.00  0.00    -0.175 N 
ATOM      4  H3  UNL     1      32.751  16.020  15.413  1.00  0.00     0.186 HD
HETATM    5  C10 UNL     1      33.589  17.125  13.913  1.00  0.00     0.679 A 
HETATM    6  N5  UNL     1      33.604  17.325  12.580  1.00  0.00    -0.174 N 
ATOM      7  H5  UNL     1      34.225  18.042  12.203  1.00  0.00     0.186 HD
HETATM    8  C11 UNL     1      32.841  16.625  11.723  1.00  0.00     0.158 A 
ENDROOT
BRANCH   8   9
HETATM    9  N6  UNL     1      32.903  16.873  10.433  1.00  0.00    -0.285 N 
ATOM     10  H6  UNL     1      33.292  16.187   9.787  1.00  0.00     0.188 HD
BRANCH   9  11
HETATM   11  N7  UNL     1      32.420  18.106   9.967  1.00  0.00    -0.282 N 
HETATM   12  C12 UNL     1      31.127  18.641  10.226  1.00  0.00     0.494 C 
HETATM   13  N8  UNL     1      31.047  19.988   9.642  1.00  0.00    -0.032 N 
HETATM   14  N9  UNL     1      30.169  17.845   9.460  1.00  0.00    -0.032 N 
ATOM     15  H83 UNL     1      31.795  20.600   9.968  1.00  0.00     0.279 HD
ATOM     16  H82 UNL     1      31.281  19.998   8.649  1.00  0.00     0.279 HD
ATOM     17  H81 UNL     1      30.121  20.372   9.827  1.00  0.00     0.279 HD
ATOM     18  H93 UNL     1      30.391  17.801   8.465  1.00  0.00     0.279 HD
ATOM     19  H92 UNL     1      30.233  16.846   9.653  1.00  0.00     0.279 HD
ATOM     20  H91 UNL     1      29.242  18.229   9.645  1.00  0.00     0.279 HD
ATOM     21  H7  UNL     1      33.051  18.667   9.393  1.00  0.00     0.184 HD
ENDBRANCH   9  11
ENDBRANCH   8   9
BRANCH   1  22
HETATM   22  C5  UNL     1      31.167  14.861  11.371  1.00  0.00    -0.057 C 
HETATM   23  C4  UNL     1      30.474  14.206  10.635  1.00  0.00    -0.058 C 
BRANCH  23  24
HETATM   24  C3  UNL     1      29.645  13.422   9.712  1.00  0.00     0.355 C 
BRANCH  24  25
HETATM   25  C2  UNL     1      30.026  12.001   9.880  1.00  0.00     0.260 C 
HETATM   26  N1  UNL     1      29.004  11.047  10.040  1.00  0.00    -0.363 N 
HETATM   27  C1  UNL     1      29.357   9.654  10.204  1.00  0.00     0.149 C 
ATOM     28  H1  UNL     1      28.025  11.335  10.041  1.00  0.00     0.162 HD
HETATM   29  O1  UNL     1      31.233  11.697   9.875  1.00  0.00    -0.270 OA
ENDBRANCH  24  25
BRANCH  24  30
HETATM   30  N10 UNL     1      28.241  13.674   9.892  1.00  0.00    -0.056 N 
HETATM   31  C13 UNL     1      27.809  14.898   9.262  1.00  0.00     0.269 C 
ATOM     32 2H10 UNL     1      27.683  12.882   9.573  1.00  0.00     0.278 HD
ATOM     33 1H10 UNL     1      27.992  13.663  10.881  1.00  0.00     0.278 HD
ENDBRANCH  24  30
ENDBRANCH  23  24
ENDBRANCH   1  22
BRANCH   2  34
HETATM   34  N2  UNL     1      31.112  14.467  14.081  1.00  0.00    -0.374 N 
HETATM   35  C8  UNL     1      31.526  13.092  14.226  1.00  0.00     0.150 C 
HETATM   36  C9  UNL     1      29.770  14.859  14.445  1.00  0.00     0.150 C 
ENDBRANCH   2  34
BRANCH   5  37
HETATM   37  N4  UNL     1      34.340  17.820  14.697  1.00  0.00    -0.234 N 
ATOM     38  H42 UNL     1      35.123  17.391  15.192  1.00  0.00     0.174 HD
ATOM     39  H41 UNL     1      34.162  18.815  14.838  1.00  0.00     0.174 HD
ENDBRANCH   5  37
TORSDOF 8
ENDMDL
MODEL 2
REMARK VINA RESULT: -5.426701839      2.403      5.330
REMARK  8 active torsions:
REMARK  status: ('A' for Active; 'I' for Inactive)
REMARK       I    between atoms: N1_2  and  C2_4 
REMARK    1  A    between atoms: C2_4  and  C3_6 
REMARK    2  A    between atoms: C3_6  and  C4_7 
REMARK    3  A    between atoms: C3_6  and  N10_36 
REMARK    4  A    between atoms: C5_8  and  C6_9 
REMARK    5  A    between atoms: C7_10  and  N2_11 
REMARK    6  A    between atoms: C10_16  and  N4_17 
REMARK    7  A    between atoms: C11_22  and  N6_23 
REMARK    8  A    between atoms: N6_23  and  N7_25 
REMARK       I    between atoms: N7_25  and  C12_27 
REMARK       I    between atoms: C12_27  and  N8_28 
REMARK       I    between atoms: C12_27  and  N9_32 
ROOT
HETATM    1  C6  UNL     1      31.493  16.033  12.821  1.00  0.00     0.108 A 
HETATM    2  C7  UNL     1      30.698  15.669  11.744  1.00  0.00     0.141 A 
HETATM    3  N3  UNL     1      30.561  16.473  10.677  1.00  0.00    -0.175 N 
ATOM      4  H3  UNL     1      29.971  16.182   9.898  1.00  0.00     0.186 HD
HETATM    5  C10 UNL     1      31.190  17.651  10.626  1.00  0.00     0.679 A 
HETATM    6  N5  UNL     1      31.965  18.013  11.669  1.00  0.00    -0.174 N 
ATOM      7  H5  UNL     1      32.444  18.913  11.628  1.00  0.00     0.186 HD
HETATM    8  C11 UNL     1      32.136  17.245  12.758  1.00  0.00     0.158 A 
ENDROOT
BRANCH   8   9
HETATM    9  N6  UNL     1      32.909  17.657  13.739  1.00  0.00    -0.285 N 
ATOM     10  H6  UNL     1      32.525  17.830  14.668  1.00  0.00     0.188 HD
BRANCH   9  11
HETATM   11  N7  UNL     1      34.273  17.853  13.477  1.00  0.00    -0.282 N 
HETATM   12  C12 UNL     1      35.214  18.433  14.373  1.00  0.00     0.494 C 
HETATM   13  N8  UNL     1      36.550  18.373  13.760  1.00  0.00    -0.032 N 
HETATM   14  N9  UNL     1      34.907  19.861  14.457  1.00  0.00    -0.032 N 
ATOM     15  H83 UNL     1      36.809  17.427  13.481  1.00  0.00     0.279 HD
ATOM     16  H82 UNL     1      36.574  18.804  12.835  1.00  0.00     0.279 HD
ATOM     17  H81 UNL     1      37.224  18.789  14.401  1.00  0.00     0.279 HD
ATOM     18  H93 UNL     1      34.886  20.320  13.545  1.00  0.00     0.279 HD
ATOM     19  H92 UNL     1      33.939  20.047  14.719  1.00  0.00     0.279 HD
ATOM     20  H91 UNL     1      35.581  20.277  15.098  1.00  0.00     0.279 HD
ATOM     21  H7  UNL     1      34.620  17.553  12.565  1.00  0.00     0.184 HD
ENDBRANCH   9  11
ENDBRANCH   8   9
BRANCH   1  22
HETATM   22  C5  UNL     1      31.616  15.162  13.953  1.00  0.00    -0.057 C 
HETATM   23  C4  UNL     1      31.719  14.452  14.921  1.00  0.00    -0.058 C 
BRANCH  23  24
HETATM   24  C3  UNL     1      31.839  13.614  16.120  1.00  0.00     0.355 C 
BRANCH  24  25
HETATM   25  C2  UNL     1      32.043  12.220  15.662  1.00  0.00     0.260 C 
HETATM   26  N1  UNL     1      32.914  11.393  16.397  1.00  0.00    -0.363 N 
HETATM   27  C1  UNL     1      33.124  10.029  15.966  1.00  0.00     0.149 C 
ATOM     28  H1  UNL     1      33.391  11.752  17.224  1.00  0.00     0.162 HD
HETATM   29  O1  UNL     1      31.442  11.827  14.646  1.00  0.00    -0.270 OA
ENDBRANCH  24  25
BRANCH  24  30
HETATM   30  N10 UNL     1      32.858  14.087  17.017  1.00  0.00    -0.056 N 
HETATM   31  C13 UNL     1      32.457  15.268  17.742  1.00  0.00     0.269 C 
ATOM     32 2H10 UNL     1      33.156  13.349  17.655  1.00  0.00     0.278 HD
ATOM     33 1H10 UNL     1      33.737  14.242  16.522  1.00  0.00     0.278 HD
ENDBRANCH  24  30
ENDBRANCH  23  24
ENDBRANCH   1  22
BRANCH   2  34
HETATM   34  N2  UNL     1      30.062  14.409  11.827  1.00  0.00    -0.374 N 
HETATM   35  C8  UNL     1      28.754  14.261  12.419  1.00  0.00     0.150 C 
HETATM   36  C9  UNL     1      30.749  13.254  11.296  1.00  0.00     0.150 C 
ENDBRANCH   2  34
BRANCH   5  37
HETATM   37  N4  UNL     1      31.055  18.421   9.601  1.00  0.00    -0.234 N 
ATOM     38  H42 UNL     1      30.803  18.042   8.688  1.00  0.00     0.174 HD
ATOM     39  H41 UNL     1      31.200  19.428   9.686  1.00  0.00     0.174 HD
ENDBRANCH   5  37
TORSDOF 8
ENDMDL
MODEL 3
REMARK VINA RESULT: -5.291552070      2.578      5.559
REMARK  8 active torsions:
REMARK  status: ('A' for Active; 'I' for Inactive)
REMARK       I    between atoms: N1_2  and  C2_4 
REMARK    1  A    between atoms: C2_4  and  C3_6 
REMARK    2  A    between atoms: C3_6  and  C4_7 
REMARK    3  A    between atoms: C3_6  and  N10_36 
REMARK    4  A    between atoms: C5_8  and  C6_9 
REMARK    5  A    between atoms: C7_10  and  N2_11 
REMARK    6  A    between atoms: C10_16  and  N4_17 
REMARK    7  A    between atoms: C11_22  and  N6_23 
REMARK    8  A    between atoms: N6_23  and  N7_25 
REMARK       I    between atoms: N7_25  and  C12_27 
REMARK       I    between atoms: C12_27  and  N8_28 
REMARK       I    between atoms: C12_27  and  N9_32 
ROOT
HETATM    1  C6  UNL     1      31.749  15.609  12.618  1.00  0.00     0.108 A 
HETATM    2  C7  UNL     1      30.921  15.529  11.507  1.00  0.00     0.141 A 
HETATM    3  N3  UNL     1      30.906  16.500  10.579  1.00  0.00    -0.175 N 
ATOM      4  H3  UNL     1      30.289  16.417   9.772  1.00  0.00     0.186 HD
HETATM    5  C10 UNL     1      31.692  17.574  10.704  1.00  0.00     0.679 A 
HETATM    6  N5  UNL     1      32.499  17.660  11.780  1.00  0.00    -0.174 N 
ATOM      7  H5  UNL     1      33.098  18.481  11.874  1.00  0.00     0.186 HD
HETATM    8  C11 UNL     1      32.553  16.716  12.735  1.00  0.00     0.158 A 
ENDROOT
BRANCH   8   9
HETATM    9  N6  UNL     1      33.366  16.861  13.758  1.00  0.00    -0.285 N 
ATOM     10  H6  UNL     1      33.087  16.564  14.693  1.00  0.00     0.188 HD
BRANCH   9  11
HETATM   11  N7  UNL     1      34.627  17.433  13.533  1.00  0.00    -0.282 N 
HETATM   12  C12 UNL     1      35.317  18.298  14.429  1.00  0.00     0.494 C 
HETATM   13  N8  UNL     1      36.641  18.603  13.866  1.00  0.00    -0.032 N 
HETATM   14  N9  UNL     1      34.607  19.577  14.426  1.00  0.00    -0.032 N 
ATOM     15  H83 UNL     1      37.175  17.762  13.647  1.00  0.00     0.279 HD
ATOM     16  H82 UNL     1      36.585  18.985  12.922  1.00  0.00     0.279 HD
ATOM     17  H81 UNL     1      37.135  19.223  14.508  1.00  0.00     0.279 HD
ATOM     18  H93 UNL     1      34.500  19.973  13.492  1.00  0.00     0.279 HD
ATOM     19  H92 UNL     1      33.615  19.484  14.645  1.00  0.00     0.279 HD
ATOM     20  H91 UNL     1      35.101  20.197  15.068  1.00  0.00     0.279 HD
ATOM     21  H7  UNL     1      35.089  17.211  12.651  1.00  0.00     0.184 HD
ENDBRANCH   9  11
ENDBRANCH   8   9
BRANCH   1  22
HETATM   22  C5  UNL     1      31.741  14.564  13.599  1.00  0.00    -0.057 C 
HETATM   23  C4  UNL     1      31.759  13.696  14.434  1.00  0.00    -0.058 C 
BRANCH  23  24
HETATM   24  C3  UNL     1      31.807  12.653  15.466  1.00  0.00     0.355 C 
BRANCH  24  25
HETATM   25  C2  UNL     1      32.485  13.236  16.647  1.00  0.00     0.260 C 
HETATM   26  N1  UNL     1      31.839  14.273  17.347  1.00  0.00    -0.363 N 
HETATM   27  C1  UNL     1      32.485  14.852  18.503  1.00  0.00     0.149 C 
ATOM     28  H1  UNL     1      30.927  14.611  17.042  1.00  0.00     0.162 HD
HETATM   29  O1  UNL     1      33.599  12.793  16.981  1.00  0.00    -0.270 OA
ENDBRANCH  24  25
BRANCH  24  30
HETATM   30  N10 UNL     1      30.507  12.108  15.751  1.00  0.00    -0.056 N 
HETATM   31  C13 UNL     1      30.572  10.875  16.498  1.00  0.00     0.269 C 
ATOM     32 2H10 UNL     1      29.919  12.793  16.226  1.00  0.00     0.278 HD
ATOM     33 1H10 UNL     1      29.964  11.990  14.895  1.00  0.00     0.278 HD
ENDBRANCH  24  30
ENDBRANCH  23  24
ENDBRANCH   1  22
BRANCH   2  34
HETATM   34  N2  UNL     1      30.117  14.371  11.402  1.00  0.00    -0.374 N 
HETATM   35  C8  UNL     1      28.800  14.311  11.987  1.00  0.00     0.150 C 
HETATM   36  C9  UNL     1      30.640  13.232  10.682  1.00  0.00     0.150 C 
ENDBRANCH   2  34
BRANCH   5  37
HETATM   37  N4  UNL     1      31.673  18.506   9.812  1.00  0.00    -0.234 N 
ATOM     38  H42 UNL     1      30.890  18.597   9.164  1.00  0.00     0.174 HD
ATOM     39  H41 UNL     1      32.445  19.169   9.739  1.00  0.00     0.174 HD
ENDBRANCH   5  37
TORSDOF 8
ENDMDL
MODEL 4
REMARK VINA RESULT: -5.242389379      2.674      5.065
REMARK  8 active torsions:
REMARK  status: ('A' for Active; 'I' for Inactive)
REMARK       I    between atoms: N1_2  and  C2_4 
REMARK    1  A    between atoms: C2_4  and  C3_6 
REMARK    2  A    between atoms: C3_6  and  C4_7 
REMARK    3  A    between atoms: C3_6  and  N10_36 
REMARK    4  A    between atoms: C5_8  and  C6_9 
REMARK    5  A    between atoms: C7_10  and  N2_11 
REMARK    6  A    between atoms: C10_16  and  N4_17 
REMARK    7  A    between atoms: C11_22  and  N6_23 
REMARK    8  A    between atoms: N6_23  and  N7_25 
REMARK       I    between atoms: N7_25  and  C12_27 
REMARK       I    between atoms: C12_27  and  N8_28 
REMARK       I    between atoms: C12_27  and  N9_32 
ROOT
HETATM    1  C6  UNL     1      31.566  16.390  12.866  1.00  0.00     0.108 A 
HETATM    2  C7  UNL     1      31.006  15.122  12.931  1.00  0.00     0.141 A 
HETATM    3  N3  UNL     1      31.247  14.308  13.971  1.00  0.00    -0.175 N 
ATOM      4  H3  UNL     1      30.823  13.381  13.995  1.00  0.00     0.186 HD
HETATM    5  C10 UNL     1      32.038  14.699  14.975  1.00  0.00     0.679 A 
HETATM    6  N5  UNL     1      32.587  15.929  14.920  1.00  0.00    -0.174 N 
ATOM      7  H5  UNL     1      33.191  16.227  15.687  1.00  0.00     0.186 HD
HETATM    8  C11 UNL     1      32.377  16.783  13.903  1.00  0.00     0.158 A 
ENDROOT
BRANCH   8   9
HETATM    9  N6  UNL     1      32.941  17.971  13.913  1.00  0.00    -0.285 N 
ATOM     10  H6  UNL     1      32.403  18.802  14.159  1.00  0.00     0.188 HD
BRANCH   9  11
HETATM   11  N7  UNL     1      34.299  18.067  13.577  1.00  0.00    -0.282 N 
HETATM   12  C12 UNL     1      35.343  18.473  14.455  1.00  0.00     0.494 C 
HETATM   13  N8  UNL     1      36.628  18.352  13.750  1.00  0.00    -0.032 N 
HETATM   14  N9  UNL     1      35.180  19.908  14.687  1.00  0.00    -0.032 N 
ATOM     15  H83 UNL     1      36.779  17.417  13.372  1.00  0.00     0.279 HD
ATOM     16  H82 UNL     1      36.640  18.864  12.869  1.00  0.00     0.279 HD
ATOM     17  H81 UNL     1      37.376  18.643  14.380  1.00  0.00     0.279 HD
ATOM     18  H93 UNL     1      35.150  20.451  13.824  1.00  0.00     0.279 HD
ATOM     19  H92 UNL     1      34.251  20.155  15.030  1.00  0.00     0.279 HD
ATOM     20  H91 UNL     1      35.928  20.199  15.316  1.00  0.00     0.279 HD
ATOM     21  H7  UNL     1      34.562  17.826  12.621  1.00  0.00     0.184 HD
ENDBRANCH   9  11
ENDBRANCH   8   9
BRANCH   1  22
HETATM   22  C5  UNL     1      31.302  17.239  11.741  1.00  0.00    -0.057 C 
HETATM   23  C4  UNL     1      31.052  17.950  10.802  1.00  0.00    -0.058 C 
BRANCH  23  24
HETATM   24  C3  UNL     1      30.716  18.817   9.666  1.00  0.00     0.355 C 
BRANCH  24  25
HETATM   25  C2  UNL     1      29.305  18.541   9.307  1.00  0.00     0.260 C 
HETATM   26  N1  UNL     1      28.989  17.292   8.742  1.00  0.00    -0.363 N 
HETATM   27  C1  UNL     1      27.617  17.004   8.387  1.00  0.00     0.149 C 
ATOM     28  H1  UNL     1      29.719  16.597   8.584  1.00  0.00     0.162 HD
HETATM   29  O1  UNL     1      28.449  19.420   9.515  1.00  0.00    -0.270 OA
ENDBRANCH  24  25
BRANCH  24  30
HETATM   30  N10 UNL     1      30.986  20.203   9.939  1.00  0.00    -0.056 N 
HETATM   31  C13 UNL     1      31.443  20.921   8.774  1.00  0.00     0.269 C 
ATOM     32 2H10 UNL     1      30.175  20.659  10.356  1.00  0.00     0.278 HD
ATOM     33 1H10 UNL     1      31.646  20.301  10.712  1.00  0.00     0.278 HD
ENDBRANCH  24  30
ENDBRANCH  23  24
ENDBRANCH   1  22
BRANCH   2  34
HETATM   34  N2  UNL     1      30.163  14.750  11.859  1.00  0.00    -0.374 N 
HETATM   35  C8  UNL     1      30.682  14.102  10.680  1.00  0.00     0.150 C 
HETATM   36  C9  UNL     1      28.749  15.027  11.967  1.00  0.00     0.150 C 
ENDBRANCH   2  34
BRANCH   5  37
HETATM   37  N4  UNL     1      32.269  13.914  15.971  1.00  0.00    -0.234 N 
ATOM     38  H42 UNL     1      31.533  13.680  16.638  1.00  0.00     0.174 HD
ATOM     39  H41 UNL     1      33.197  13.512  16.109  1.00  0.00     0.174 HD
ENDBRANCH   5  37
TORSDOF 8
ENDMDL
MODEL 5
REMARK VINA RESULT: -5.145729210      1.228      2.089
REMARK  8 active torsions:
REMARK  status: ('A' for Active; 'I' for Inactive)
REMARK       I    between atoms: N1_2  and  C2_4 
REMARK    1  A    between atoms: C2_4  and  C3_6 
REMARK    2  A    between atoms: C3_6  and  C4_7 
REMARK    3  A    between atoms: C3_6  and  N10_36 
REMARK    4  A    between atoms: C5_8  and  C6_9 
REMARK    5  A    between atoms: C7_10  and  N2_11 
REMARK    6  A    between atoms: C10_16  and  N4_17 
REMARK    7  A    between atoms: C11_22  and  N6_23 
REMARK    8  A    between atoms: N6_23  and  N7_25 
REMARK       I    between atoms: N7_25  and  C12_27 
REMARK       I    between atoms: C12_27  and  N8_28 
REMARK       I    between atoms: C12_27  and  N9_32 
ROOT
HETATM    1  C6  UNL     1      32.164  15.779  12.906  1.00  0.00     0.108 A 
HETATM    2  C7  UNL     1      32.257  15.834  14.289  1.00  0.00     0.141 A 
HETATM    3  N3  UNL     1      33.098  16.686  14.897  1.00  0.00    -0.175 N 
ATOM      4  H3  UNL     1      33.147  16.707  15.915  1.00  0.00     0.186 HD
HETATM    5  C10 UNL     1      33.871  17.508  14.181  1.00  0.00     0.679 A 
HETATM    6  N5  UNL     1      33.787  17.462  12.836  1.00  0.00    -0.174 N 
ATOM      7  H5  UNL     1      34.378  18.090  12.291  1.00  0.00     0.186 HD
HETATM    8  C11 UNL     1      32.962  16.629  12.179  1.00  0.00     0.158 A 
ENDROOT
BRANCH   8   9
HETATM    9  N6  UNL     1      32.927  16.637  10.865  1.00  0.00    -0.285 N 
ATOM     10  H6  UNL     1      33.254  15.834  10.329  1.00  0.00     0.188 HD
BRANCH   9  11
HETATM   11  N7  UNL     1      32.429  17.778  10.218  1.00  0.00    -0.282 N 
HETATM   12  C12 UNL     1      31.147  18.358  10.430  1.00  0.00     0.494 C 
HETATM   13  N8  UNL     1      31.047  19.590   9.633  1.00  0.00    -0.032 N 
HETATM   14  N9  UNL     1      30.161  17.453   9.841  1.00  0.00    -0.032 N 
ATOM     15  H83 UNL     1      31.806  20.243   9.826  1.00  0.00     0.279 HD
ATOM     16  H82 UNL     1      31.244  19.433   8.645  1.00  0.00     0.279 HD
ATOM     17  H81 UNL     1      30.128  20.005   9.785  1.00  0.00     0.279 HD
ATOM     18  H93 UNL     1      30.347  17.242   8.860  1.00  0.00     0.279 HD
ATOM     19  H92 UNL     1      30.231  16.499  10.196  1.00  0.00     0.279 HD
ATOM     20  H91 UNL     1      29.242  17.868   9.993  1.00  0.00     0.279 HD
ATOM     21  H7  UNL     1      33.039  18.232   9.537  1.00  0.00     0.184 HD
ENDBRANCH   9  11
ENDBRANCH   8   9
BRANCH   1  22
HETATM   22  C5  UNL     1      31.265  14.854  12.279  1.00  0.00    -0.057 C 
HETATM   23  C4  UNL     1      30.524  14.081  11.729  1.00  0.00    -0.058 C 
BRANCH  23  24
HETATM   24  C3  UNL     1      29.640  13.139  11.031  1.00  0.00     0.355 C 
BRANCH  24  25
HETATM   25  C2  UNL     1      28.631  13.944  10.302  1.00  0.00     0.260 C 
HETATM   26  N1  UNL     1      27.328  14.021  10.828  1.00  0.00    -0.363 N 
HETATM   27  C1  UNL     1      26.331  14.803  10.131  1.00  0.00     0.149 C 
ATOM     28  H1  UNL     1      27.089  13.530  11.690  1.00  0.00     0.162 HD
HETATM   29  O1  UNL     1      28.968  14.522   9.253  1.00  0.00    -0.270 OA
ENDBRANCH  24  25
BRANCH  24  30
HETATM   30  N10 UNL     1      30.369  12.224  10.195  1.00  0.00    -0.056 N 
HETATM   31  C13 UNL     1      29.625  11.023   9.903  1.00  0.00     0.269 C 
ATOM     32 2H10 UNL     1      30.680  12.680   9.337  1.00  0.00     0.278 HD
ATOM     33 1H10 UNL     1      31.278  12.002  10.602  1.00  0.00     0.278 HD
ENDBRANCH  24  30
ENDBRANCH  23  24
ENDBRANCH   1  22
BRANCH   2  34
HETATM   34  N2  UNL     1      31.412  14.961  15.013  1.00  0.00    -0.374 N 
HETATM   35  C8  UNL     1      31.842  13.637  15.393  1.00  0.00     0.150 C 
HETATM   36  C9  UNL     1      30.093  15.424  15.378  1.00  0.00     0.150 C 
ENDBRANCH   2  34
BRANCH   5  37
HETATM   37  N4  UNL     1      34.679  18.324  14.767  1.00  0.00    -0.234 N 
ATOM     38  H42 UNL     1      35.436  17.979  15.359  1.00  0.00     0.174 HD
ATOM     39  H41 UNL     1      34.573  19.332  14.651  1.00  0.00     0.174 HD
ENDBRANCH   5  37
TORSDOF 8
ENDMDL
