MODEL 1
REMARK VINA RESULT: -6.177033642      0.000      0.000
REMARK  6 active torsions:
REMARK  status: ('A' for Active; 'I' for Inactive)
REMARK       I    between atoms: C1_4  and  N3_6 
REMARK    1  A    between atoms: N3_6  and  C2_8 
REMARK    2  A    between atoms: C4_13  and  C5_14 
REMARK    3  A    between atoms: C6_17  and  N7_18 
REMARK    4  A    between atoms: N7_18  and  N8_20 
REMARK    5  A    between atoms: C7_22  and  C8_23 
REMARK    6  A    between atoms: C8_23  and  N9_24 
ROOT
HETATM    1  C2  UNL     1      33.515  17.405  14.195  1.00  0.00     0.687 A 
HETATM    2  N4  UNL     1      32.966  16.235  14.567  1.00  0.00    -0.177 N 
ATOM      3  H4  UNL     1      32.982  15.980  15.556  1.00  0.00     0.185 HD
HETATM    4  C3  UNL     1      32.394  15.379  13.684  1.00  0.00     0.151 A 
HETATM    5  N5  UNL     1      31.831  14.168  14.107  1.00  0.00    -0.081 NA
HETATM    6  C4  UNL     1      32.359  15.697  12.342  1.00  0.00     0.116 A 
HETATM    7  C6  UNL     1      32.919  16.896  11.957  1.00  0.00     0.154 A 
HETATM    8  N11 UNL     1      33.477  17.708  12.886  1.00  0.00    -0.174 N 
ATOM      9  H11 UNL     1      33.886  18.591  12.578  1.00  0.00     0.186 HD
ENDROOT
BRANCH   7  10
HETATM   10  N7  UNL     1      32.885  17.187  10.711  1.00  0.00    -0.285 N 
ATOM     11  H7  UNL     1      33.330  16.534  10.066  1.00  0.00     0.188 HD
BRANCH  10  12
HETATM   12  N8  UNL     1      32.295  18.315  10.166  1.00  0.00    -0.312 N 
HETATM   13  C7  UNL     1      31.055  18.604  10.374  1.00  0.00     0.110 C 
ATOM     14  H8  UNL     1      32.856  18.936   9.583  1.00  0.00     0.185 HD
BRANCH  13  15
HETATM   15  C8  UNL     1      30.413  19.793   9.804  1.00  0.00     0.318 C 
BRANCH  15  16
HETATM   16  N9  UNL     1      31.226  20.386   8.766  1.00  0.00     0.096 N 
HETATM   17  C9  UNL     1      30.363  20.633   7.601  1.00  0.00     0.300 C 
HETATM   18  C10 UNL     1      30.890  21.846   6.842  1.00  0.00     0.262 C 
HETATM   19  N10 UNL     1      30.519  23.027   7.614  1.00  0.00    -0.072 N 
HETATM   20  C11 UNL     1      30.746  22.765   9.025  1.00  0.00     0.262 C 
ATOM     21 2H10 UNL     1      31.002  23.867   7.294  1.00  0.00     0.277 HD
ATOM     22 1H10 UNL     1      29.564  23.328   7.425  1.00  0.00     0.277 HD
HETATM   23  C12 UNL     1      31.762  21.657   9.233  1.00  0.00     0.300 C 
ENDBRANCH  15  16
ENDBRANCH  13  15
ENDBRANCH  10  12
ENDBRANCH   7  10
BRANCH   6  24
HETATM   24  C5  UNL     1      31.756  14.816  11.347  1.00  0.00     0.272 C 
HETATM   25  N6  UNL     1      32.535  13.814  10.733  1.00  0.00    -0.057 NA
HETATM   26  O1  UNL     1      30.554  14.906  11.005  1.00  0.00    -0.271 OA
ENDBRANCH   6  24
BRANCH   1  27
HETATM   27  N3  UNL     1      34.062  18.218  15.055  1.00  0.00    -0.164 N 
HETATM   28  C1  UNL     1      34.826  19.337  14.629  1.00  0.00     0.200 C 
HETATM   29  N1  UNL     1      34.371  20.538  14.528  1.00  0.00    -0.373 N 
HETATM   30  N2  UNL     1      36.188  19.113  14.290  1.00  0.00    -0.063 NA
ATOM     31  H12 UNL     1      34.920  21.342  14.223  1.00  0.00     0.158 HD
ATOM     32  H11 UNL     1      33.393  20.698  14.771  1.00  0.00     0.158 HD
ATOM     33  H3  UNL     1      33.939  18.046  16.053  1.00  0.00     0.187 HD
ENDBRANCH   1  27
TORSDOF 6
ENDMDL
MODEL 2
REMARK VINA RESULT: -5.920198476      1.793      2.742
REMARK  6 active torsions:
REMARK  status: ('A' for Active; 'I' for Inactive)
REMARK       I    between atoms: C1_4  and  N3_6 
REMARK    1  A    between atoms: N3_6  and  C2_8 
REMARK    2  A    between atoms: C4_13  and  C5_14 
REMARK    3  A    between atoms: C6_17  and  N7_18 
REMARK    4  A    between atoms: N7_18  and  N8_20 
REMARK    5  A    between atoms: C7_22  and  C8_23 
REMARK    6  A    between atoms: C8_23  and  N9_24 
ROOT
HETATM    1  C2  UNL     1      33.615  17.521  14.287  1.00  0.00     0.687 A 
HETATM    2  N4  UNL     1      33.033  16.387  14.718  1.00  0.00    -0.177 N 
ATOM      3  H4  UNL     1      33.000  16.206  15.722  1.00  0.00     0.185 HD
HETATM    4  C3  UNL     1      32.490  15.474  13.875  1.00  0.00     0.151 A 
HETATM    5  N5  UNL     1      31.891  14.304  14.359  1.00  0.00    -0.081 NA
HETATM    6  C4  UNL     1      32.521  15.692  12.513  1.00  0.00     0.116 A 
HETATM    7  C6  UNL     1      33.115  16.853  12.068  1.00  0.00     0.154 A 
HETATM    8  N11 UNL     1      33.641  17.726  12.959  1.00  0.00    -0.174 N 
ATOM      9  H11 UNL     1      34.077  18.579  12.607  1.00  0.00     0.186 HD
ENDROOT
BRANCH   7  10
HETATM   10  N7  UNL     1      33.142  17.052  10.803  1.00  0.00    -0.285 N 
ATOM     11  H7  UNL     1      33.756  16.454  10.249  1.00  0.00     0.188 HD
BRANCH  10  12
HETATM   12  N8  UNL     1      32.407  18.010  10.124  1.00  0.00    -0.312 N 
HETATM   13  C7  UNL     1      31.140  18.157  10.314  1.00  0.00     0.110 C 
ATOM     14  H8  UNL     1      32.882  18.617   9.456  1.00  0.00     0.185 HD
BRANCH  13  15
HETATM   15  C8  UNL     1      30.346  19.165   9.604  1.00  0.00     0.318 C 
BRANCH  15  16
HETATM   16  N9  UNL     1      28.935  18.854   9.646  1.00  0.00     0.096 N 
HETATM   17  C9  UNL     1      28.796  17.421   9.942  1.00  0.00     0.300 C 
HETATM   18  C10 UNL     1      27.497  17.196  10.708  1.00  0.00     0.262 C 
HETATM   19  N10 UNL     1      27.721  17.658  12.074  1.00  0.00    -0.072 N 
HETATM   20  C11 UNL     1      28.462  18.907  12.040  1.00  0.00     0.262 C 
ATOM     21 2H10 UNL     1      26.852  17.737  12.604  1.00  0.00     0.277 HD
ATOM     22 1H10 UNL     1      28.178  16.952  12.650  1.00  0.00     0.277 HD
HETATM   23  C12 UNL     1      28.299  19.619  10.709  1.00  0.00     0.300 C 
ENDBRANCH  15  16
ENDBRANCH  13  15
ENDBRANCH  10  12
ENDBRANCH   7  10
BRANCH   6  24
HETATM   24  C5  UNL     1      31.951  14.746  11.559  1.00  0.00     0.272 C 
HETATM   25  N6  UNL     1      32.772  13.761  10.972  1.00  0.00    -0.057 NA
HETATM   26  O1  UNL     1      30.743  14.766  11.228  1.00  0.00    -0.271 OA
ENDBRANCH   6  24
BRANCH   1  27
HETATM   27  N3  UNL     1      34.134  18.389  15.109  1.00  0.00    -0.164 N 
HETATM   28  C1  UNL     1      34.880  19.499  14.635  1.00  0.00     0.200 C 
HETATM   29  N1  UNL     1      34.403  20.684  14.464  1.00  0.00    -0.373 N 
HETATM   30  N2  UNL     1      36.251  19.287  14.325  1.00  0.00    -0.063 NA
ATOM     31  H12 UNL     1      34.939  21.482  14.123  1.00  0.00     0.158 HD
ATOM     32  H11 UNL     1      33.419  20.836  14.686  1.00  0.00     0.158 HD
ATOM     33  H3  UNL     1      34.001  18.268  16.114  1.00  0.00     0.187 HD
ENDBRANCH   1  27
TORSDOF 6
ENDMDL
MODEL 3
REMARK VINA RESULT: -5.864488020      1.855      4.604
REMARK  6 active torsions:
REMARK  status: ('A' for Active; 'I' for Inactive)
REMARK       I    between atoms: C1_4  and  N3_6 
REMARK    1  A    between atoms: N3_6  and  C2_8 
REMARK    2  A    between atoms: C4_13  and  C5_14 
REMARK    3  A    between atoms: C6_17  and  N7_18 
REMARK    4  A    between atoms: N7_18  and  N8_20 
REMARK    5  A    between atoms: C7_22  and  C8_23 
REMARK    6  A    between atoms: C8_23  and  N9_24 
ROOT
HETATM    1  C2  UNL     1      30.949  14.320  10.704  1.00  0.00     0.687 A 
HETATM    2  N4  UNL     1      31.023  13.989  12.006  1.00  0.00    -0.177 N 
ATOM      3  H4  UNL     1      30.568  13.131  12.320  1.00  0.00     0.185 HD
HETATM    4  C3  UNL     1      31.676  14.750  12.920  1.00  0.00     0.151 A 
HETATM    5  N5  UNL     1      31.734  14.376  14.268  1.00  0.00    -0.081 NA
HETATM    6  C4  UNL     1      32.300  15.915  12.525  1.00  0.00     0.116 A 
HETATM    7  C6  UNL     1      32.227  16.256  11.191  1.00  0.00     0.154 A 
HETATM    8  N11 UNL     1      31.559  15.456  10.327  1.00  0.00    -0.174 N 
ATOM      9  H11 UNL     1      31.517  15.728   9.344  1.00  0.00     0.186 HD
ENDROOT
BRANCH   7  10
HETATM   10  N7  UNL     1      32.807  17.338  10.828  1.00  0.00    -0.285 N 
ATOM     11  H7  UNL     1      33.802  17.427  11.038  1.00  0.00     0.188 HD
BRANCH  10  12
HETATM   12  N8  UNL     1      32.198  18.397  10.176  1.00  0.00    -0.312 N 
HETATM   13  C7  UNL     1      31.078  18.893  10.580  1.00  0.00     0.110 C 
ATOM     14  H8  UNL     1      32.647  18.796   9.352  1.00  0.00     0.185 HD
BRANCH  13  15
HETATM   15  C8  UNL     1      30.418  20.012   9.901  1.00  0.00     0.318 C 
BRANCH  15  16
HETATM   16  N9  UNL     1      31.218  20.513   8.807  1.00  0.00     0.096 N 
HETATM   17  C9  UNL     1      30.345  20.650   7.632  1.00  0.00     0.300 C 
HETATM   18  C10 UNL     1      30.859  21.792   6.762  1.00  0.00     0.262 C 
HETATM   19  N10 UNL     1      30.488  23.036   7.428  1.00  0.00    -0.072 N 
HETATM   20  C11 UNL     1      30.728  22.904   8.855  1.00  0.00     0.262 C 
ATOM     21 2H10 UNL     1      30.963  23.846   7.029  1.00  0.00     0.277 HD
ATOM     22 1H10 UNL     1      29.529  23.315   7.221  1.00  0.00     0.277 HD
HETATM   23  C12 UNL     1      31.752  21.823   9.152  1.00  0.00     0.300 C 
ENDBRANCH  15  16
ENDBRANCH  13  15
ENDBRANCH  10  12
ENDBRANCH   7  10
BRANCH   6  24
HETATM   24  C5  UNL     1      33.018  16.772  13.463  1.00  0.00     0.272 C 
HETATM   25  N6  UNL     1      32.355  17.857  14.072  1.00  0.00    -0.057 NA
HETATM   26  O1  UNL     1      34.221  16.587  13.761  1.00  0.00    -0.271 OA
ENDBRANCH   6  24
BRANCH   1  27
HETATM   27  N3  UNL     1      30.317  13.579   9.837  1.00  0.00    -0.164 N 
HETATM   28  C1  UNL     1      30.346  12.162   9.919  1.00  0.00     0.200 C 
HETATM   29  N1  UNL     1      29.429  11.440  10.465  1.00  0.00    -0.373 N 
HETATM   30  N2  UNL     1      31.468  11.493   9.357  1.00  0.00    -0.063 NA
ATOM     31  H12 UNL     1      29.450  10.422  10.523  1.00  0.00     0.158 HD
ATOM     32  H11 UNL     1      28.624  11.920  10.868  1.00  0.00     0.158 HD
ATOM     33  H3  UNL     1      29.790  14.026   9.086  1.00  0.00     0.187 HD
ENDBRANCH   1  27
TORSDOF 6
ENDMDL
MODEL 4
REMARK VINA RESULT: -5.862302605      1.599      2.367
REMARK  6 active torsions:
REMARK  status: ('A' for Active; 'I' for Inactive)
REMARK       I    between atoms: C1_4  and  N3_6 
REMARK    1  A    between atoms: N3_6  and  C2_8 
REMARK    2  A    between atoms: C4_13  and  C5_14 
REMARK    3  A    between atoms: C6_17  and  N7_18 
REMARK    4  A    between atoms: N7_18  and  N8_20 
REMARK    5  A    between atoms: C7_22  and  C8_23 
REMARK    6  A    between atoms: C8_23  and  N9_24 
ROOT
HETATM    1  C2  UNL     1      33.600  17.497  14.271  1.00  0.00     0.687 A 
HETATM    2  N4  UNL     1      33.006  16.366  14.692  1.00  0.00    -0.177 N 
ATOM      3  H4  UNL     1      32.961  16.182  15.694  1.00  0.00     0.185 HD
HETATM    4  C3  UNL     1      32.464  15.461  13.839  1.00  0.00     0.151 A 
HETATM    5  N5  UNL     1      31.852  14.293  14.311  1.00  0.00    -0.081 NA
HETATM    6  C4  UNL     1      32.511  15.685  12.478  1.00  0.00     0.116 A 
HETATM    7  C6  UNL     1      33.119  16.843  12.044  1.00  0.00     0.154 A 
HETATM    8  N11 UNL     1      33.642  17.709  12.944  1.00  0.00    -0.174 N 
ATOM      9  H11 UNL     1      34.087  18.559  12.600  1.00  0.00     0.186 HD
ENDROOT
BRANCH   7  10
HETATM   10  N7  UNL     1      33.160  17.047  10.780  1.00  0.00    -0.285 N 
ATOM     11  H7  UNL     1      33.727  16.408  10.222  1.00  0.00     0.188 HD
BRANCH  10  12
HETATM   12  N8  UNL     1      32.499  18.062  10.108  1.00  0.00    -0.312 N 
HETATM   13  C7  UNL     1      31.226  18.239  10.223  1.00  0.00     0.110 C 
ATOM     14  H8  UNL     1      33.034  18.687   9.505  1.00  0.00     0.185 HD
BRANCH  13  15
HETATM   15  C8  UNL     1      30.510  19.307   9.518  1.00  0.00     0.318 C 
BRANCH  15  16
HETATM   16  N9  UNL     1      29.321  19.709  10.234  1.00  0.00     0.096 N 
HETATM   17  C9  UNL     1      29.030  18.680  11.243  1.00  0.00     0.300 C 
HETATM   18  C10 UNL     1      28.342  19.335  12.436  1.00  0.00     0.262 C 
HETATM   19  N10 UNL     1      29.372  20.053  13.180  1.00  0.00    -0.072 N 
HETATM   20  C11 UNL     1      30.247  20.739  12.244  1.00  0.00     0.262 C 
ATOM     21 2H10 UNL     1      28.976  20.687  13.876  1.00  0.00     0.277 HD
ATOM     22 1H10 UNL     1      29.886  19.444  13.816  1.00  0.00     0.277 HD
HETATM   23  C12 UNL     1      29.563  20.976  10.910  1.00  0.00     0.300 C 
ENDBRANCH  15  16
ENDBRANCH  13  15
ENDBRANCH  10  12
ENDBRANCH   7  10
BRANCH   6  24
HETATM   24  C5  UNL     1      31.945  14.747  11.514  1.00  0.00     0.272 C 
HETATM   25  N6  UNL     1      32.749  13.722  10.975  1.00  0.00    -0.057 NA
HETATM   26  O1  UNL     1      30.753  14.808  11.133  1.00  0.00    -0.271 OA
ENDBRANCH   6  24
BRANCH   1  27
HETATM   27  N3  UNL     1      34.117  18.358  15.103  1.00  0.00    -0.164 N 
HETATM   28  C1  UNL     1      34.881  19.462  14.641  1.00  0.00     0.200 C 
HETATM   29  N1  UNL     1      34.419  20.652  14.467  1.00  0.00    -0.373 N 
HETATM   30  N2  UNL     1      36.254  19.236  14.349  1.00  0.00    -0.063 NA
ATOM     31  H12 UNL     1      34.968  21.445  14.135  1.00  0.00     0.158 HD
ATOM     32  H11 UNL     1      33.433  20.814  14.676  1.00  0.00     0.158 HD
ATOM     33  H3  UNL     1      33.969  18.236  16.105  1.00  0.00     0.187 HD
ENDBRANCH   1  27
TORSDOF 6
ENDMDL
MODEL 5
REMARK VINA RESULT: -5.793139728      3.769      8.149
REMARK  6 active torsions:
REMARK  status: ('A' for Active; 'I' for Inactive)
REMARK       I    between atoms: C1_4  and  N3_6 
REMARK    1  A    between atoms: N3_6  and  C2_8 
REMARK    2  A    between atoms: C4_13  and  C5_14 
REMARK    3  A    between atoms: C6_17  and  N7_18 
REMARK    4  A    between atoms: N7_18  and  N8_20 
REMARK    5  A    between atoms: C7_22  and  C8_23 
REMARK    6  A    between atoms: C8_23  and  N9_24 
ROOT
HETATM    1  C2  UNL     1      33.139  16.725  14.104  1.00  0.00     0.687 A 
HETATM    2  N4  UNL     1      33.324  16.919  12.786  1.00  0.00    -0.177 N 
ATOM      3  H4  UNL     1      33.822  17.755  12.480  1.00  0.00     0.185 HD
HETATM    4  C3  UNL     1      32.875  16.049  11.846  1.00  0.00     0.151 A 
HETATM    5  N5  UNL     1      33.085  16.281  10.482  1.00  0.00    -0.081 NA
HETATM    6  C4  UNL     1      32.199  14.910  12.232  1.00  0.00     0.116 A 
HETATM    7  C6  UNL     1      32.008  14.708  13.581  1.00  0.00     0.154 A 
HETATM    8  N11 UNL     1      32.480  15.613  14.471  1.00  0.00    -0.174 N 
ATOM      9  H11 UNL     1      32.327  15.443  15.466  1.00  0.00     0.186 HD
ENDROOT
BRANCH   7  10
HETATM   10  N7  UNL     1      31.380  13.649  13.935  1.00  0.00    -0.285 N 
ATOM     11  H7  UNL     1      31.005  13.059  13.192  1.00  0.00     0.188 HD
BRANCH  10  12
HETATM   12  N8  UNL     1      31.168  13.239  15.240  1.00  0.00    -0.312 N 
HETATM   13  C7  UNL     1      30.677  12.079  15.519  1.00  0.00     0.110 C 
ATOM     14  H8  UNL     1      31.406  13.872  16.004  1.00  0.00     0.185 HD
BRANCH  13  15
HETATM   15  C8  UNL     1      30.444  11.628  16.895  1.00  0.00     0.318 C 
BRANCH  15  16
HETATM   16  N9  UNL     1      31.056  10.343  17.141  1.00  0.00     0.096 N 
HETATM   17  C9  UNL     1      31.227   9.666  15.847  1.00  0.00     0.300 C 
HETATM   18  C10 UNL     1      32.449   8.756  15.920  1.00  0.00     0.262 C 
HETATM   19  N10 UNL     1      33.625   9.616  15.849  1.00  0.00    -0.072 N 
HETATM   20  C11 UNL     1      33.411  10.790  16.679  1.00  0.00     0.262 C 
ATOM     21 2H10 UNL     1      34.483   9.120  16.094  1.00  0.00     0.277 HD
ATOM     22 1H10 UNL     1      33.869   9.860  14.889  1.00  0.00     0.277 HD
HETATM   23  C12 UNL     1      32.366  10.534  17.749  1.00  0.00     0.300 C 
ENDBRANCH  15  16
ENDBRANCH  13  15
ENDBRANCH  10  12
ENDBRANCH   7  10
BRANCH   6  24
HETATM   24  C5  UNL     1      31.695  13.938  11.266  1.00  0.00     0.272 C 
HETATM   25  N6  UNL     1      32.497  12.842  10.888  1.00  0.00    -0.057 NA
HETATM   26  O1  UNL     1      30.559  14.031  10.745  1.00  0.00    -0.271 OA
ENDBRANCH   6  24
BRANCH   1  27
HETATM   27  N3  UNL     1      33.576  17.570  14.995  1.00  0.00    -0.164 N 
HETATM   28  C1  UNL     1      34.577  18.525  14.677  1.00  0.00     0.200 C 
HETATM   29  N1  UNL     1      34.344  19.749  14.349  1.00  0.00    -0.373 N 
HETATM   30  N2  UNL     1      35.932  18.098  14.724  1.00  0.00    -0.063 NA
ATOM     31  H12 UNL     1      35.064  20.435  14.121  1.00  0.00     0.158 HD
ATOM     32  H11 UNL     1      33.372  20.055  14.315  1.00  0.00     0.158 HD
ATOM     33  H3  UNL     1      33.190  17.545  15.940  1.00  0.00     0.187 HD
ENDBRANCH   1  27
TORSDOF 6
ENDMDL
