MODEL 1
REMARK VINA RESULT: -5.738681357      0.000      0.000
REMARK  9 active torsions:
REMARK  status: ('A' for Active; 'I' for Inactive)
REMARK    1  A    between atoms: C2_2  and  N1_3 
REMARK    2  A    between atoms: C2_2  and  C8_19 
REMARK    3  A    between atoms: N1_3  and  C3_5 
REMARK    4  A    between atoms: C8_19  and  N7_20 
REMARK    5  A    between atoms: C8_19  and  C9_24 
REMARK    6  A    between atoms: C9_24  and  N8_25 
REMARK    7  A    between atoms: N8_25  and  C10_27 
REMARK    8  A    between atoms: C11_30  and  N10_31 
REMARK    9  A    between atoms: C12_36  and  N12_37 
ROOT
HETATM    1  C8  UNL     1      31.997  17.758  10.869  1.00  0.00     0.223 C 
ENDROOT
BRANCH   1   2
HETATM    2  C2  UNL     1      30.888  18.412  10.017  1.00  0.00     0.111 C 
HETATM    3  C1  UNL     1      29.660  18.466  10.905  1.00  0.00     0.034 C 
BRANCH   2   4
HETATM    4  N1  UNL     1      31.358  19.631   9.534  1.00  0.00    -0.368 N 
ATOM      5  H1  UNL     1      32.129  19.439   8.894  1.00  0.00     0.161 HD
BRANCH   4   6
HETATM    6  C3  UNL     1      31.202  20.843   9.582  1.00  0.00     0.135 A 
HETATM    7  N2  UNL     1      31.303  21.570  10.698  1.00  0.00    -0.337 N 
HETATM    8  C4  UNL     1      31.116  22.910  10.685  1.00  0.00     0.183 A 
ATOM      9  H2  UNL     1      31.526  21.105  11.579  1.00  0.00     0.168 HD
HETATM   10  N3  UNL     1      30.821  23.553   9.547  1.00  0.00    -0.335 N 
HETATM   11  C5  UNL     1      30.708  22.877   8.402  1.00  0.00     0.156 A 
ATOM     12  H3  UNL     1      30.682  24.564   9.556  1.00  0.00     0.168 HD
HETATM   13  C6  UNL     1      30.893  21.539   8.405  1.00  0.00     0.139 A 
HETATM   14  N6  UNL     1      30.422  23.278   7.133  1.00  0.00    -0.265 N 
HETATM   15  N4  UNL     1      30.717  21.121   7.119  1.00  0.00    -0.279 N 
HETATM   16  N5  UNL     1      30.439  22.199   6.405  1.00  0.00    -0.239 N 
ATOM     17  H4  UNL     1      30.787  20.163   6.774  1.00  0.00     0.189 HD
ATOM     18  H5  UNL     1      30.259  22.187   5.402  1.00  0.00     0.208 HD
HETATM   19  C7  UNL     1      30.152  24.650   6.721  1.00  0.00     0.181 C 
ENDBRANCH   4   6
ENDBRANCH   2   4
ENDBRANCH   1   2
BRANCH   1  20
HETATM   20  N7  UNL     1      32.199  16.437  10.309  1.00  0.00    -0.071 N 
ATOM     21  H73 UNL     1      31.366  16.049   9.867  1.00  0.00     0.274 HD
ATOM     22  H72 UNL     1      32.791  16.432   9.479  1.00  0.00     0.274 HD
ATOM     23  H71 UNL     1      32.561  15.863  11.071  1.00  0.00     0.274 HD
ENDBRANCH   1  20
BRANCH   1  24
HETATM   24  C9  UNL     1      31.472  17.671  12.294  1.00  0.00     0.173 C 
BRANCH  24  25
HETATM   25  N8  UNL     1      32.548  17.294  13.154  1.00  0.00    -0.223 N 
ATOM     26  H8  UNL     1      32.615  16.302  13.380  1.00  0.00     0.177 HD
BRANCH  25  27
HETATM   27  C10 UNL     1      33.420  18.038  13.663  1.00  0.00     0.707 A 
HETATM   28  N9  UNL     1      34.721  17.771  13.644  1.00  0.00    -0.022 N 
HETATM   29  C11 UNL     1      35.627  18.618  14.212  1.00  0.00     0.705 A 
ATOM     30  H9  UNL     1      35.050  16.915  13.197  1.00  0.00     0.203 HD
HETATM   31  N11 UNL     1      35.223  19.744  14.804  1.00  0.00    -0.022 N 
HETATM   32  C12 UNL     1      33.895  20.030  14.831  1.00  0.00     0.705 A 
ATOM     33  H11 UNL     1      35.899  20.378  15.230  1.00  0.00     0.203 HD
HETATM   34  N13 UNL     1      33.020  19.189  14.270  1.00  0.00    -0.022 N 
ATOM     35  H13 UNL     1      32.026  19.416  14.296  1.00  0.00     0.203 HD
BRANCH  29  36
HETATM   36  N10 UNL     1      36.872  18.335  14.179  1.00  0.00    -0.234 N 
ATOM     37 2H10 UNL     1      37.436  18.638  13.386  1.00  0.00     0.174 HD
ATOM     38 1H10 UNL     1      37.294  17.810  14.945  1.00  0.00     0.174 HD
ENDBRANCH  29  36
BRANCH  32  39
HETATM   39  N12 UNL     1      33.506  21.124  15.406  1.00  0.00    -0.234 N 
ATOM     40 2H12 UNL     1      34.144  21.907  15.544  1.00  0.00     0.174 HD
ATOM     41 1H12 UNL     1      32.539  21.193  15.724  1.00  0.00     0.174 HD
ENDBRANCH  32  39
ENDBRANCH  25  27
ENDBRANCH  24  25
ENDBRANCH   1  24
TORSDOF 9
ENDMDL
MODEL 2
REMARK VINA RESULT: -5.592054000      2.582      7.073
REMARK  9 active torsions:
REMARK  status: ('A' for Active; 'I' for Inactive)
REMARK    1  A    between atoms: C2_2  and  N1_3 
REMARK    2  A    between atoms: C2_2  and  C8_19 
REMARK    3  A    between atoms: N1_3  and  C3_5 
REMARK    4  A    between atoms: C8_19  and  N7_20 
REMARK    5  A    between atoms: C8_19  and  C9_24 
REMARK    6  A    between atoms: C9_24  and  N8_25 
REMARK    7  A    between atoms: N8_25  and  C10_27 
REMARK    8  A    between atoms: C11_30  and  N10_31 
REMARK    9  A    between atoms: C12_36  and  N12_37 
ROOT
HETATM    1  C8  UNL     1      29.772  14.203  11.000  1.00  0.00     0.223 C 
ENDROOT
BRANCH   1   2
HETATM    2  C2  UNL     1      30.845  13.679  11.979  1.00  0.00     0.111 C 
HETATM    3  C1  UNL     1      32.082  13.423  11.140  1.00  0.00     0.034 C 
BRANCH   2   4
HETATM    4  N1  UNL     1      30.980  14.593  13.022  1.00  0.00    -0.368 N 
ATOM      5  H1  UNL     1      30.112  15.123  13.090  1.00  0.00     0.161 HD
BRANCH   4   6
HETATM    6  C3  UNL     1      31.741  15.002  13.888  1.00  0.00     0.135 A 
HETATM    7  N2  UNL     1      31.790  14.523  15.134  1.00  0.00    -0.337 N 
HETATM    8  C4  UNL     1      32.655  15.023  16.046  1.00  0.00     0.183 A 
ATOM      9  H2  UNL     1      31.162  13.765  15.402  1.00  0.00     0.168 HD
HETATM   10  N3  UNL     1      33.493  16.019  15.728  1.00  0.00    -0.335 N 
HETATM   11  C5  UNL     1      33.488  16.535  14.498  1.00  0.00     0.156 A 
ATOM     12  H3  UNL     1      34.138  16.384  16.430  1.00  0.00     0.168 HD
HETATM   13  C6  UNL     1      32.628  16.044  13.580  1.00  0.00     0.139 A 
HETATM   14  N6  UNL     1      34.219  17.531  13.926  1.00  0.00    -0.265 N 
HETATM   15  N4  UNL     1      32.840  16.750  12.432  1.00  0.00    -0.279 N 
HETATM   16  N5  UNL     1      33.798  17.622  12.698  1.00  0.00    -0.239 N 
ATOM     17  H4  UNL     1      32.354  16.629  11.544  1.00  0.00     0.189 HD
ATOM     18  H5  UNL     1      34.166  18.288  12.019  1.00  0.00     0.208 HD
HETATM   19  C7  UNL     1      35.250  18.314  14.595  1.00  0.00     0.181 C 
ENDBRANCH   4   6
ENDBRANCH   2   4
ENDBRANCH   1   2
BRANCH   1  20
HETATM   20  N7  UNL     1      30.368  14.130   9.682  1.00  0.00    -0.071 N 
ATOM     21  H73 UNL     1      30.817  14.998   9.389  1.00  0.00     0.274 HD
ATOM     22  H72 UNL     1      31.200  13.542   9.644  1.00  0.00     0.274 HD
ATOM     23  H71 UNL     1      29.623  13.825   9.055  1.00  0.00     0.274 HD
ENDBRANCH   1  20
BRANCH   1  24
HETATM   24  C9  UNL     1      29.482  15.646  11.388  1.00  0.00     0.173 C 
BRANCH  24  25
HETATM   25  N8  UNL     1      29.735  16.481  10.258  1.00  0.00    -0.223 N 
ATOM     26  H8  UNL     1      29.671  16.031   9.344  1.00  0.00     0.177 HD
BRANCH  25  27
HETATM   27  C10 UNL     1      30.027  17.700  10.255  1.00  0.00     0.707 A 
HETATM   28  N9  UNL     1      30.124  18.435   9.151  1.00  0.00    -0.022 N 
HETATM   29  C11 UNL     1      30.442  19.759   9.207  1.00  0.00     0.705 A 
ATOM     30  H9  UNL     1      29.958  17.998   8.244  1.00  0.00     0.203 HD
HETATM   31  N11 UNL     1      30.666  20.354  10.381  1.00  0.00    -0.022 N 
HETATM   32  C12 UNL     1      30.570  19.615  11.518  1.00  0.00     0.705 A 
ATOM     33  H11 UNL     1      30.904  21.344  10.424  1.00  0.00     0.203 HD
HETATM   34  N13 UNL     1      30.256  18.318  11.446  1.00  0.00    -0.022 N 
ATOM     35  H13 UNL     1      30.187  17.776  12.307  1.00  0.00     0.203 HD
BRANCH  29  36
HETATM   36  N10 UNL     1      30.530  20.440   8.130  1.00  0.00    -0.234 N 
ATOM     37 2H10 UNL     1      30.292  20.004   7.239  1.00  0.00     0.174 HD
ATOM     38 1H10 UNL     1      30.834  21.412   8.165  1.00  0.00     0.174 HD
ENDBRANCH  29  36
BRANCH  32  39
HETATM   39  N12 UNL     1      30.786  20.196  12.656  1.00  0.00    -0.234 N 
ATOM     40 2H12 UNL     1      31.365  21.033  12.724  1.00  0.00     0.174 HD
ATOM     41 1H12 UNL     1      30.364  19.799  13.496  1.00  0.00     0.174 HD
ENDBRANCH  32  39
ENDBRANCH  25  27
ENDBRANCH  24  25
ENDBRANCH   1  24
TORSDOF 9
ENDMDL
MODEL 3
REMARK VINA RESULT: -5.586596487      1.222      2.004
REMARK  9 active torsions:
REMARK  status: ('A' for Active; 'I' for Inactive)
REMARK    1  A    between atoms: C2_2  and  N1_3 
REMARK    2  A    between atoms: C2_2  and  C8_19 
REMARK    3  A    between atoms: N1_3  and  C3_5 
REMARK    4  A    between atoms: C8_19  and  N7_20 
REMARK    5  A    between atoms: C8_19  and  C9_24 
REMARK    6  A    between atoms: C9_24  and  N8_25 
REMARK    7  A    between atoms: N8_25  and  C10_27 
REMARK    8  A    between atoms: C11_30  and  N10_31 
REMARK    9  A    between atoms: C12_36  and  N12_37 
ROOT
HETATM    1  C8  UNL     1      31.152  18.038  10.748  1.00  0.00     0.223 C 
ENDROOT
BRANCH   1   2
HETATM    2  C2  UNL     1      30.631  18.819   9.521  1.00  0.00     0.111 C 
HETATM    3  C1  UNL     1      29.130  18.927   9.705  1.00  0.00     0.034 C 
BRANCH   2   4
HETATM    4  N1  UNL     1      31.333  20.018   9.427  1.00  0.00    -0.368 N 
ATOM      5  H1  UNL     1      32.318  19.796   9.285  1.00  0.00     0.161 HD
BRANCH   4   6
HETATM    6  C3  UNL     1      31.221  21.236   9.448  1.00  0.00     0.135 A 
HETATM    7  N2  UNL     1      31.422  21.990  10.532  1.00  0.00    -0.337 N 
HETATM    8  C4  UNL     1      31.280  23.335  10.489  1.00  0.00     0.183 A 
ATOM      9  H2  UNL     1      31.688  21.543  11.409  1.00  0.00     0.168 HD
HETATM   10  N3  UNL     1      30.931  23.956   9.354  1.00  0.00    -0.335 N 
HETATM   11  C5  UNL     1      30.717  23.252   8.241  1.00  0.00     0.156 A 
ATOM     12  H3  UNL     1      30.827  24.971   9.341  1.00  0.00     0.168 HD
HETATM   13  C6  UNL     1      30.856  21.908   8.273  1.00  0.00     0.139 A 
HETATM   14  N6  UNL     1      30.359  23.626   6.982  1.00  0.00    -0.265 N 
HETATM   15  N4  UNL     1      30.580  21.460   7.015  1.00  0.00    -0.279 N 
HETATM   16  N5  UNL     1      30.290  22.527   6.289  1.00  0.00    -0.239 N 
ATOM     17  H4  UNL     1      30.594  20.491   6.696  1.00  0.00     0.189 HD
ATOM     18  H5  UNL     1      30.042  22.492   5.300  1.00  0.00     0.208 HD
HETATM   19  C7  UNL     1      30.108  24.994   6.546  1.00  0.00     0.181 C 
ENDBRANCH   4   6
ENDBRANCH   2   4
ENDBRANCH   1   2
BRANCH   1  20
HETATM   20  N7  UNL     1      30.841  16.646  10.492  1.00  0.00    -0.071 N 
ATOM     21  H73 UNL     1      30.054  16.513   9.858  1.00  0.00     0.274 HD
ATOM     22  H72 UNL     1      31.540  16.171   9.921  1.00  0.00     0.274 HD
ATOM     23  H71 UNL     1      30.704  16.218  11.408  1.00  0.00     0.274 HD
ENDBRANCH   1  20
BRANCH   1  24
HETATM   24  C9  UNL     1      30.389  18.553  11.960  1.00  0.00     0.173 C 
BRANCH  24  25
HETATM   25  N8  UNL     1      31.332  18.962  12.950  1.00  0.00    -0.223 N 
ATOM     26  H8  UNL     1      31.329  19.953  13.192  1.00  0.00     0.177 HD
BRANCH  25  27
HETATM   27  C10 UNL     1      32.165  18.248  13.558  1.00  0.00     0.707 A 
HETATM   28  N9  UNL     1      31.835  17.193  14.297  1.00  0.00    -0.022 N 
HETATM   29  C11 UNL     1      32.783  16.450  14.935  1.00  0.00     0.705 A 
ATOM     30  H9  UNL     1      30.852  16.936  14.389  1.00  0.00     0.203 HD
HETATM   31  N11 UNL     1      34.076  16.767  14.831  1.00  0.00    -0.022 N 
HETATM   32  C12 UNL     1      34.428  17.842  14.079  1.00  0.00     0.705 A 
ATOM     33  H11 UNL     1      34.786  16.212  15.308  1.00  0.00     0.203 HD
HETATM   34  N13 UNL     1      33.486  18.560  13.460  1.00  0.00    -0.022 N 
ATOM     35  H13 UNL     1      33.765  19.365  12.898  1.00  0.00     0.203 HD
BRANCH  29  36
HETATM   36  N10 UNL     1      32.436  15.442  15.639  1.00  0.00    -0.234 N 
ATOM     37 2H10 UNL     1      32.490  14.506  15.238  1.00  0.00     0.174 HD
ATOM     38 1H10 UNL     1      32.108  15.578  16.595  1.00  0.00     0.174 HD
ENDBRANCH  29  36
BRANCH  32  39
HETATM   39  N12 UNL     1      35.684  18.146  13.979  1.00  0.00    -0.234 N 
ATOM     40 2H12 UNL     1      36.271  18.255  14.806  1.00  0.00     0.174 HD
ATOM     41 1H12 UNL     1      36.084  18.277  13.050  1.00  0.00     0.174 HD
ENDBRANCH  32  39
ENDBRANCH  25  27
ENDBRANCH  24  25
ENDBRANCH   1  24
TORSDOF 9
ENDMDL
MODEL 4
REMARK VINA RESULT: -5.543420320      0.789      1.835
REMARK  9 active torsions:
REMARK  status: ('A' for Active; 'I' for Inactive)
REMARK    1  A    between atoms: C2_2  and  N1_3 
REMARK    2  A    between atoms: C2_2  and  C8_19 
REMARK    3  A    between atoms: N1_3  and  C3_5 
REMARK    4  A    between atoms: C8_19  and  N7_20 
REMARK    5  A    between atoms: C8_19  and  C9_24 
REMARK    6  A    between atoms: C9_24  and  N8_25 
REMARK    7  A    between atoms: N8_25  and  C10_27 
REMARK    8  A    between atoms: C11_30  and  N10_31 
REMARK    9  A    between atoms: C12_36  and  N12_37 
ROOT
HETATM    1  C8  UNL     1      32.039  17.707  10.931  1.00  0.00     0.223 C 
ENDROOT
BRANCH   1   2
HETATM    2  C2  UNL     1      30.873  18.373  10.167  1.00  0.00     0.111 C 
HETATM    3  C1  UNL     1      29.642  18.169  11.029  1.00  0.00     0.034 C 
BRANCH   2   4
HETATM    4  N1  UNL     1      31.222  19.691   9.884  1.00  0.00    -0.368 N 
ATOM      5  H1  UNL     1      31.885  20.000  10.595  1.00  0.00     0.161 HD
BRANCH   4   6
HETATM    6  C3  UNL     1      31.039  20.621   9.110  1.00  0.00     0.135 A 
HETATM    7  N2  UNL     1      30.682  20.475   7.832  1.00  0.00    -0.337 N 
HETATM    8  C4  UNL     1      30.495  21.546   7.027  1.00  0.00     0.183 A 
ATOM      9  H2  UNL     1      30.547  19.536   7.455  1.00  0.00     0.168 HD
HETATM   10  N3  UNL     1      30.665  22.792   7.488  1.00  0.00    -0.335 N 
HETATM   11  C5  UNL     1      31.021  22.997   8.758  1.00  0.00     0.156 A 
ATOM     12  H3  UNL     1      30.521  23.588   6.866  1.00  0.00     0.168 HD
HETATM   13  C6  UNL     1      31.209  21.934   9.570  1.00  0.00     0.139 A 
HETATM   14  N6  UNL     1      31.255  24.137   9.464  1.00  0.00    -0.265 N 
HETATM   15  N4  UNL     1      31.562  22.435  10.788  1.00  0.00    -0.279 N 
HETATM   16  N5  UNL     1      31.573  23.752  10.666  1.00  0.00    -0.239 N 
ATOM     17  H4  UNL     1      31.775  21.899  11.629  1.00  0.00     0.189 HD
ATOM     18  H5  UNL     1      31.804  24.392  11.426  1.00  0.00     0.208 HD
HETATM   19  C7  UNL     1      31.161  25.493   8.937  1.00  0.00     0.181 C 
ENDBRANCH   4   6
ENDBRANCH   2   4
ENDBRANCH   1   2
BRANCH   1  20
HETATM   20  N7  UNL     1      32.323  16.475  10.225  1.00  0.00    -0.071 N 
ATOM     21  H73 UNL     1      33.266  16.120  10.385  1.00  0.00     0.274 HD
ATOM     22  H72 UNL     1      31.824  15.667  10.597  1.00  0.00     0.274 HD
ATOM     23  H71 UNL     1      32.120  16.662   9.243  1.00  0.00     0.274 HD
ENDBRANCH   1  20
BRANCH   1  24
HETATM   24  C9  UNL     1      31.542  17.424  12.342  1.00  0.00     0.173 C 
BRANCH  24  25
HETATM   25  N8  UNL     1      32.668  17.125  13.168  1.00  0.00    -0.223 N 
ATOM     26  H8  UNL     1      32.816  16.140  13.387  1.00  0.00     0.177 HD
BRANCH  25  27
HETATM   27  C10 UNL     1      33.496  17.931  13.657  1.00  0.00     0.707 A 
HETATM   28  N9  UNL     1      34.807  17.716  13.687  1.00  0.00    -0.022 N 
HETATM   29  C11 UNL     1      35.662  18.629  14.229  1.00  0.00     0.705 A 
ATOM     30  H9  UNL     1      35.181  16.851  13.296  1.00  0.00     0.203 HD
HETATM   31  N11 UNL     1      35.198  19.768  14.748  1.00  0.00    -0.022 N 
HETATM   32  C12 UNL     1      33.860  20.001  14.725  1.00  0.00     0.705 A 
ATOM     33  H11 UNL     1      35.837  20.452  15.154  1.00  0.00     0.203 HD
HETATM   34  N13 UNL     1      33.035  19.096  14.189  1.00  0.00    -0.022 N 
ATOM     35  H13 UNL     1      32.032  19.284  14.178  1.00  0.00     0.203 HD
BRANCH  29  36
HETATM   36  N10 UNL     1      36.918  18.396  14.244  1.00  0.00    -0.234 N 
ATOM     37 2H10 UNL     1      37.304  17.765  14.946  1.00  0.00     0.174 HD
ATOM     38 1H10 UNL     1      37.526  18.840  13.556  1.00  0.00     0.174 HD
ENDBRANCH  29  36
BRANCH  32  39
HETATM   39  N12 UNL     1      33.413  21.108  15.228  1.00  0.00    -0.234 N 
ATOM     40 2H12 UNL     1      33.833  22.007  14.993  1.00  0.00     0.174 HD
ATOM     41 1H12 UNL     1      32.623  21.069  15.873  1.00  0.00     0.174 HD
ENDBRANCH  32  39
ENDBRANCH  25  27
ENDBRANCH  24  25
ENDBRANCH   1  24
TORSDOF 9
ENDMDL
MODEL 5
REMARK VINA RESULT: -5.536275077      3.621      7.572
REMARK  9 active torsions:
REMARK  status: ('A' for Active; 'I' for Inactive)
REMARK    1  A    between atoms: C2_2  and  N1_3 
REMARK    2  A    between atoms: C2_2  and  C8_19 
REMARK    3  A    between atoms: N1_3  and  C3_5 
REMARK    4  A    between atoms: C8_19  and  N7_20 
REMARK    5  A    between atoms: C8_19  and  C9_24 
REMARK    6  A    between atoms: C9_24  and  N8_25 
REMARK    7  A    between atoms: N8_25  and  C10_27 
REMARK    8  A    between atoms: C11_30  and  N10_31 
REMARK    9  A    between atoms: C12_36  and  N12_37 
ROOT
HETATM    1  C8  UNL     1      32.307  16.791  10.892  1.00  0.00     0.223 C 
ENDROOT
BRANCH   1   2
HETATM    2  C2  UNL     1      32.175  15.291  11.235  1.00  0.00     0.111 C 
HETATM    3  C1  UNL     1      31.653  15.234  12.657  1.00  0.00     0.034 C 
BRANCH   2   4
HETATM    4  N1  UNL     1      31.390  14.679  10.260  1.00  0.00    -0.368 N 
ATOM      5  H1  UNL     1      31.489  15.212   9.396  1.00  0.00     0.161 HD
BRANCH   4   6
HETATM    6  C3  UNL     1      30.627  13.748  10.043  1.00  0.00     0.135 A 
HETATM    7  N2  UNL     1      30.975  12.460  10.108  1.00  0.00    -0.337 N 
HETATM    8  C4  UNL     1      30.081  11.476   9.854  1.00  0.00     0.183 A 
ATOM      9  H2  UNL     1      31.933  12.213  10.353  1.00  0.00     0.168 HD
HETATM   10  N3  UNL     1      28.814  11.764   9.527  1.00  0.00    -0.335 N 
HETATM   11  C5  UNL     1      28.411  13.034   9.448  1.00  0.00     0.156 A 
ATOM     12  H3  UNL     1      28.154  11.009   9.338  1.00  0.00     0.168 HD
HETATM   13  C6  UNL     1      29.296  14.023   9.700  1.00  0.00     0.139 A 
HETATM   14  N6  UNL     1      27.206  13.588   9.142  1.00  0.00    -0.265 N 
HETATM   15  N4  UNL     1      28.618  15.197   9.545  1.00  0.00    -0.279 N 
HETATM   16  N5  UNL     1      27.378  14.876   9.213  1.00  0.00    -0.239 N 
ATOM     17  H4  UNL     1      28.994  16.137   9.663  1.00  0.00     0.189 HD
ATOM     18  H5  UNL     1      26.643  15.560   9.035  1.00  0.00     0.208 HD
HETATM   19  C7  UNL     1      25.996  12.849   8.804  1.00  0.00     0.181 C 
ENDBRANCH   4   6
ENDBRANCH   2   4
ENDBRANCH   1   2
BRANCH   1  20
HETATM   20  N7  UNL     1      33.231  17.339  11.863  1.00  0.00    -0.071 N 
ATOM     21  H73 UNL     1      32.792  17.974  12.530  1.00  0.00     0.274 HD
ATOM     22  H72 UNL     1      33.561  16.655  12.543  1.00  0.00     0.274 HD
ATOM     23  H71 UNL     1      33.981  17.771  11.323  1.00  0.00     0.274 HD
ENDBRANCH   1  20
BRANCH   1  24
HETATM   24  C9  UNL     1      30.924  17.406  11.047  1.00  0.00     0.173 C 
BRANCH  24  25
HETATM   25  N8  UNL     1      30.600  18.107   9.846  1.00  0.00    -0.223 N 
ATOM     26  H8  UNL     1      30.242  17.539   9.078  1.00  0.00     0.177 HD
BRANCH  25  27
HETATM   27  C10 UNL     1      30.704  19.336   9.623  1.00  0.00     0.707 A 
HETATM   28  N9  UNL     1      30.953  20.240  10.566  1.00  0.00    -0.022 N 
HETATM   29  C11 UNL     1      31.059  21.566  10.266  1.00  0.00     0.705 A 
ATOM     30  H9  UNL     1      31.068  19.935  11.533  1.00  0.00     0.203 HD
HETATM   31  N11 UNL     1      30.911  21.990   9.009  1.00  0.00    -0.022 N 
HETATM   32  C12 UNL     1      30.656  21.078   8.035  1.00  0.00     0.705 A 
ATOM     33  H11 UNL     1      30.990  22.982   8.783  1.00  0.00     0.203 HD
HETATM   34  N13 UNL     1      30.556  19.782   8.345  1.00  0.00    -0.022 N 
ATOM     35  H13 UNL     1      30.364  19.107   7.605  1.00  0.00     0.203 HD
BRANCH  29  36
HETATM   36  N10 UNL     1      31.299  22.412  11.192  1.00  0.00    -0.234 N 
ATOM     37 2H10 UNL     1      31.791  22.110  12.033  1.00  0.00     0.174 HD
ATOM     38 1H10 UNL     1      30.999  23.381  11.087  1.00  0.00     0.174 HD
ENDBRANCH  29  36
BRANCH  32  39
HETATM   39  N12 UNL     1      30.515  21.493   6.816  1.00  0.00    -0.234 N 
ATOM     40 2H12 UNL     1      31.314  21.580   6.188  1.00  0.00     0.174 HD
ATOM     41 1H12 UNL     1      29.580  21.736   6.486  1.00  0.00     0.174 HD
ENDBRANCH  32  39
ENDBRANCH  25  27
ENDBRANCH  24  25
ENDBRANCH   1  24
TORSDOF 9
ENDMDL
