MODEL 1
REMARK VINA RESULT: -6.619957809      0.000      0.000
REMARK  7 active torsions:
REMARK  status: ('A' for Active; 'I' for Inactive)
REMARK    1  A    between atoms: N1_1  and  C1_4 
REMARK    2  A    between atoms: C3_9  and  C4_10 
REMARK       I    between atoms: C4_10  and  N4_12 
REMARK    3  A    between atoms: C6_17  and  N7_18 
REMARK    4  A    between atoms: N7_18  and  C7_19 
REMARK    5  A    between atoms: C7_19  and  C8_20 
REMARK    6  A    between atoms: N8_21  and  N9_23 
REMARK    7  A    between atoms: N9_23  and  C9_25 
ROOT
HETATM    1  C1  UNL     1      32.914  17.408  13.348  1.00  0.00     0.679 A 
HETATM    2  N2  UNL     1      33.194  17.301  12.043  1.00  0.00    -0.178 N 
ATOM      3  H2  UNL     1      33.650  18.073  11.556  1.00  0.00     0.185 HD
HETATM    4  C2  UNL     1      32.877  16.182  11.374  1.00  0.00     0.152 A 
HETATM    5  N3  UNL     1      33.163  16.041   9.984  1.00  0.00    -0.081 NA
HETATM    6  C3  UNL     1      32.252  15.098  12.004  1.00  0.00     0.132 A 
HETATM    7  C6  UNL     1      31.964  15.210  13.347  1.00  0.00     0.212 A 
HETATM    8  N12 UNL     1      32.326  16.407  13.971  1.00  0.00    -0.163 N 
ATOM      9  H12 UNL     1      32.122  16.512  14.965  1.00  0.00     0.187 HD
ENDROOT
BRANCH   7  10
HETATM   10  N7  UNL     1      31.427  14.347  13.980  1.00  0.00    -0.397 NA
BRANCH  10  11
HETATM   11  C7  UNL     1      30.865  13.393  14.714  1.00  0.00     0.203 C 
BRANCH  11  12
HETATM   12  C8  UNL     1      31.789  12.292  15.179  1.00  0.00     0.139 C 
HETATM   13  N8  UNL     1      32.502  12.456  16.222  1.00  0.00    -0.295 N 
ATOM     14  H8  UNL     1      32.466  13.322  16.759  1.00  0.00     0.186 HD
BRANCH  13  15
HETATM   15  N9  UNL     1      33.345  11.390  16.605  1.00  0.00    -0.133 N 
ATOM     16  H9  UNL     1      34.322  11.586  16.824  1.00  0.00     0.205 HD
BRANCH  15  17
HETATM   17  C9  UNL     1      32.876  10.051  16.694  1.00  0.00     0.688 C 
HETATM   18  N10 UNL     1      33.258   9.108  15.892  1.00  0.00    -0.225 N 
HETATM   19  C10 UNL     1      32.824   7.749  15.933  1.00  0.00     0.139 C 
ATOM     20  H10 UNL     1      33.930   9.359  15.166  1.00  0.00     0.177 HD
HETATM   21  C11 UNL     1      31.512   7.493  16.589  1.00  0.00     0.040 C 
HETATM   22  C12 UNL     1      30.965   8.604  17.420  1.00  0.00     0.139 C 
HETATM   23  N11 UNL     1      31.934   9.663  17.692  1.00  0.00    -0.225 N 
ATOM     24  H11 UNL     1      31.937  10.127  18.600  1.00  0.00     0.177 HD
ENDBRANCH  15  17
ENDBRANCH  13  15
ENDBRANCH  11  12
ENDBRANCH  10  11
ENDBRANCH   7  10
BRANCH   6  25
HETATM   25  C4  UNL     1      31.940  13.918  11.234  1.00  0.00     0.266 C 
HETATM   26  O1  UNL     1      32.864  13.032  11.117  1.00  0.00    -0.267 OA
HETATM   27  N4  UNL     1      30.748  13.595  10.585  1.00  0.00    -0.299 N 
HETATM   28  C5  UNL     1      30.514  12.606   9.825  1.00  0.00     0.203 C 
ATOM     29  H4  UNL     1      29.968  14.232  10.742  1.00  0.00     0.171 HD
HETATM   30  N5  UNL     1      31.534  11.662   9.545  1.00  0.00    -0.066 NA
HETATM   31  N6  UNL     1      29.214  12.466   9.262  1.00  0.00    -0.066 NA
ENDBRANCH   6  25
BRANCH   1  32
HETATM   32  N1  UNL     1      33.246  18.516  13.939  1.00  0.00    -0.234 N 
ATOM     33  H12 UNL     1      33.263  18.622  14.953  1.00  0.00     0.174 HD
ATOM     34  H11 UNL     1      33.501  19.306  13.346  1.00  0.00     0.174 HD
ENDBRANCH   1  32
TORSDOF 7
ENDMDL
MODEL 2
REMARK VINA RESULT: -6.295485395      2.971      3.635
REMARK  7 active torsions:
REMARK  status: ('A' for Active; 'I' for Inactive)
REMARK    1  A    between atoms: N1_1  and  C1_4 
REMARK    2  A    between atoms: C3_9  and  C4_10 
REMARK       I    between atoms: C4_10  and  N4_12 
REMARK    3  A    between atoms: C6_17  and  N7_18 
REMARK    4  A    between atoms: N7_18  and  C7_19 
REMARK    5  A    between atoms: C7_19  and  C8_20 
REMARK    6  A    between atoms: N8_21  and  N9_23 
REMARK    7  A    between atoms: N9_23  and  C9_25 
ROOT
HETATM    1  C1  UNL     1      32.794  17.492  13.208  1.00  0.00     0.679 A 
HETATM    2  N2  UNL     1      33.205  17.301  11.948  1.00  0.00    -0.178 N 
ATOM      3  H2  UNL     1      33.750  18.023  11.477  1.00  0.00     0.185 HD
HETATM    4  C2  UNL     1      32.903  16.164  11.304  1.00  0.00     0.152 A 
HETATM    5  N3  UNL     1      33.328  15.933   9.962  1.00  0.00    -0.081 NA
HETATM    6  C3  UNL     1      32.158  15.146  11.915  1.00  0.00     0.132 A 
HETATM    7  C6  UNL     1      31.735  15.344  13.212  1.00  0.00     0.212 A 
HETATM    8  N12 UNL     1      32.091  16.555  13.812  1.00  0.00    -0.163 N 
ATOM      9  H12 UNL     1      31.788  16.724  14.771  1.00  0.00     0.187 HD
ENDROOT
BRANCH   7  10
HETATM   10  N7  UNL     1      31.089  14.543  13.824  1.00  0.00    -0.397 NA
BRANCH  10  11
HETATM   11  C7  UNL     1      30.340  13.656  14.470  1.00  0.00     0.203 C 
BRANCH  11  12
HETATM   12  C8  UNL     1      29.282  12.964  13.642  1.00  0.00     0.139 C 
HETATM   13  N8  UNL     1      29.494  11.794  13.185  1.00  0.00    -0.295 N 
ATOM     14  H8  UNL     1      30.370  11.304  13.365  1.00  0.00     0.186 HD
BRANCH  13  15
HETATM   15  N9  UNL     1      28.466  11.201  12.420  1.00  0.00    -0.133 N 
ATOM     16  H9  UNL     1      27.621  11.740  12.225  1.00  0.00     0.205 HD
BRANCH  15  17
HETATM   17  C9  UNL     1      28.570   9.878  11.912  1.00  0.00     0.688 C 
HETATM   18  N10 UNL     1      28.378   8.821  12.635  1.00  0.00    -0.225 N 
HETATM   19  C10 UNL     1      28.467   7.470  12.182  1.00  0.00     0.139 C 
ATOM     20  H10 UNL     1      28.142   8.966  13.617  1.00  0.00     0.177 HD
HETATM   21  C11 UNL     1      29.297   7.233  10.969  1.00  0.00     0.040 C 
HETATM   22  C12 UNL     1      29.657   8.440  10.172  1.00  0.00     0.139 C 
HETATM   23  N11 UNL     1      28.901   9.634  10.546  1.00  0.00    -0.225 N 
ATOM     24  H11 UNL     1      28.610  10.296   9.828  1.00  0.00     0.177 HD
ENDBRANCH  15  17
ENDBRANCH  13  15
ENDBRANCH  11  12
ENDBRANCH  10  11
ENDBRANCH   7  10
BRANCH   6  25
HETATM   25  C4  UNL     1      31.868  13.941  11.175  1.00  0.00     0.266 C 
HETATM   26  O1  UNL     1      32.803  13.062  11.094  1.00  0.00    -0.267 OA
HETATM   27  N4  UNL     1      30.689  13.587  10.520  1.00  0.00    -0.299 N 
HETATM   28  C5  UNL     1      30.475  12.576   9.784  1.00  0.00     0.203 C 
ATOM     29  H4  UNL     1      29.900  14.220  10.648  1.00  0.00     0.171 HD
HETATM   30  N5  UNL     1      31.509  11.635   9.544  1.00  0.00    -0.066 NA
HETATM   31  N6  UNL     1      29.185  12.406   9.209  1.00  0.00    -0.066 NA
ENDBRANCH   6  25
BRANCH   1  32
HETATM   32  N1  UNL     1      33.119  18.613  13.777  1.00  0.00    -0.234 N 
ATOM     33  H12 UNL     1      33.640  18.663  14.652  1.00  0.00     0.174 HD
ATOM     34  H11 UNL     1      32.831  19.475  13.313  1.00  0.00     0.174 HD
ENDBRANCH   1  32
TORSDOF 7
ENDMDL
MODEL 3
REMARK VINA RESULT: -6.290530909      2.733      7.240
REMARK  7 active torsions:
REMARK  status: ('A' for Active; 'I' for Inactive)
REMARK    1  A    between atoms: N1_1  and  C1_4 
REMARK    2  A    between atoms: C3_9  and  C4_10 
REMARK       I    between atoms: C4_10  and  N4_12 
REMARK    3  A    between atoms: C6_17  and  N7_18 
REMARK    4  A    between atoms: N7_18  and  C7_19 
REMARK    5  A    between atoms: C7_19  and  C8_20 
REMARK    6  A    between atoms: N8_21  and  N9_23 
REMARK    7  A    between atoms: N9_23  and  C9_25 
ROOT
HETATM    1  C1  UNL     1      32.268  14.038  17.477  1.00  0.00     0.679 A 
HETATM    2  N2  UNL     1      31.664  13.034  16.831  1.00  0.00    -0.178 N 
ATOM      3  H2  UNL     1      31.377  12.199  17.343  1.00  0.00     0.185 HD
HETATM    4  C2  UNL     1      31.434  13.121  15.512  1.00  0.00     0.152 A 
HETATM    5  N3  UNL     1      30.792  12.067  14.797  1.00  0.00    -0.081 NA
HETATM    6  C3  UNL     1      31.810  14.250  14.771  1.00  0.00     0.132 A 
HETATM    7  C6  UNL     1      32.432  15.283  15.438  1.00  0.00     0.212 A 
HETATM    8  N12 UNL     1      32.636  15.114  16.810  1.00  0.00    -0.163 N 
ATOM      9  H12 UNL     1      33.095  15.865  17.325  1.00  0.00     0.187 HD
ENDROOT
BRANCH   7  10
HETATM   10  N7  UNL     1      32.800  16.287  14.901  1.00  0.00    -0.397 NA
BRANCH  10  11
HETATM   11  C7  UNL     1      33.237  17.409  14.339  1.00  0.00     0.203 C 
BRANCH  11  12
HETATM   12  C8  UNL     1      32.778  17.655  12.920  1.00  0.00     0.139 C 
HETATM   13  N8  UNL     1      33.350  17.055  11.952  1.00  0.00    -0.295 N 
ATOM     14  H8  UNL     1      34.119  16.405  12.111  1.00  0.00     0.186 HD
BRANCH  13  15
HETATM   15  N9  UNL     1      32.874  17.327  10.651  1.00  0.00    -0.133 N 
ATOM     16  H9  UNL     1      33.471  17.115   9.852  1.00  0.00     0.205 HD
BRANCH  15  17
HETATM   17  C9  UNL     1      31.588  17.888  10.419  1.00  0.00     0.688 C 
HETATM   18  N10 UNL     1      30.485  17.228  10.577  1.00  0.00    -0.225 N 
HETATM   19  C10 UNL     1      29.168  17.736  10.362  1.00  0.00     0.139 C 
ATOM     20  H10 UNL     1      30.564  16.258  10.883  1.00  0.00     0.177 HD
HETATM   21  C11 UNL     1      29.051  18.903   9.445  1.00  0.00     0.040 C 
HETATM   22  C12 UNL     1      30.320  19.618   9.126  1.00  0.00     0.139 C 
HETATM   23  N11 UNL     1      31.438  19.239   9.988  1.00  0.00    -0.225 N 
ATOM     24  H11 UNL     1      32.113  19.944  10.282  1.00  0.00     0.177 HD
ENDBRANCH  15  17
ENDBRANCH  13  15
ENDBRANCH  11  12
ENDBRANCH  10  11
ENDBRANCH   7  10
BRANCH   6  25
HETATM   25  C4  UNL     1      31.532  14.290  13.355  1.00  0.00     0.266 C 
HETATM   26  O1  UNL     1      30.761  15.229  12.934  1.00  0.00    -0.267 OA
HETATM   27  N4  UNL     1      31.992  13.434  12.355  1.00  0.00    -0.299 N 
HETATM   28  C5  UNL     1      31.662  13.411  11.130  1.00  0.00     0.203 C 
ATOM     29  H4  UNL     1      32.681  12.740  12.644  1.00  0.00     0.171 HD
HETATM   30  N5  UNL     1      30.712  14.337  10.629  1.00  0.00    -0.066 NA
HETATM   31  N6  UNL     1      32.261  12.444  10.275  1.00  0.00    -0.066 NA
ENDBRANCH   6  25
BRANCH   1  32
HETATM   32  N1  UNL     1      32.462  13.894  18.754  1.00  0.00    -0.234 N 
ATOM     33  H12 UNL     1      33.357  13.613  19.153  1.00  0.00     0.174 HD
ATOM     34  H11 UNL     1      31.670  14.076  19.371  1.00  0.00     0.174 HD
ENDBRANCH   1  32
TORSDOF 7
ENDMDL
MODEL 4
REMARK VINA RESULT: -6.193471525      3.077      3.812
REMARK  7 active torsions:
REMARK  status: ('A' for Active; 'I' for Inactive)
REMARK    1  A    between atoms: N1_1  and  C1_4 
REMARK    2  A    between atoms: C3_9  and  C4_10 
REMARK       I    between atoms: C4_10  and  N4_12 
REMARK    3  A    between atoms: C6_17  and  N7_18 
REMARK    4  A    between atoms: N7_18  and  C7_19 
REMARK    5  A    between atoms: C7_19  and  C8_20 
REMARK    6  A    between atoms: N8_21  and  N9_23 
REMARK    7  A    between atoms: N9_23  and  C9_25 
ROOT
HETATM    1  C1  UNL     1      32.788  17.453  13.255  1.00  0.00     0.679 A 
HETATM    2  N2  UNL     1      33.171  17.296  11.983  1.00  0.00    -0.178 N 
ATOM      3  H2  UNL     1      33.690  18.038  11.513  1.00  0.00     0.185 HD
HETATM    4  C2  UNL     1      32.875  16.166  11.323  1.00  0.00     0.152 A 
HETATM    5  N3  UNL     1      33.270  15.972   9.966  1.00  0.00    -0.081 NA
HETATM    6  C3  UNL     1      32.165  15.122  11.930  1.00  0.00     0.132 A 
HETATM    7  C6  UNL     1      31.771  15.285  13.241  1.00  0.00     0.212 A 
HETATM    8  N12 UNL     1      32.118  16.491  13.857  1.00  0.00    -0.163 N 
ATOM      9  H12 UNL     1      31.837  16.634  14.827  1.00  0.00     0.187 HD
ENDROOT
BRANCH   7  10
HETATM   10  N7  UNL     1      31.156  14.460  13.851  1.00  0.00    -0.397 NA
BRANCH  10  11
HETATM   11  C7  UNL     1      30.439  13.548  14.499  1.00  0.00     0.203 C 
BRANCH  11  12
HETATM   12  C8  UNL     1      29.291  12.943  13.723  1.00  0.00     0.139 C 
HETATM   13  N8  UNL     1      29.453  11.845  13.098  1.00  0.00    -0.295 N 
ATOM     14  H8  UNL     1      30.348  11.356  13.107  1.00  0.00     0.186 HD
BRANCH  13  15
HETATM   15  N9  UNL     1      28.343  11.331  12.393  1.00  0.00    -0.133 N 
ATOM     16  H9  UNL     1      27.496  11.895  12.327  1.00  0.00     0.205 HD
BRANCH  15  17
HETATM   17  C9  UNL     1      28.369  10.052  11.772  1.00  0.00     0.688 C 
HETATM   18  N10 UNL     1      29.149   9.758  10.781  1.00  0.00    -0.225 N 
HETATM   19  C10 UNL     1      29.221   8.495  10.120  1.00  0.00     0.139 C 
ATOM     20  H10 UNL     1      29.769  10.495  10.443  1.00  0.00     0.177 HD
HETATM   21  C11 UNL     1      28.017   7.625  10.224  1.00  0.00     0.040 C 
HETATM   22  C12 UNL     1      27.021   8.003  11.267  1.00  0.00     0.139 C 
HETATM   23  N11 UNL     1      27.516   8.999  12.215  1.00  0.00    -0.225 N 
ATOM     24  H11 UNL     1      27.250   8.940  13.197  1.00  0.00     0.177 HD
ENDBRANCH  15  17
ENDBRANCH  13  15
ENDBRANCH  11  12
ENDBRANCH  10  11
ENDBRANCH   7  10
BRANCH   6  25
HETATM   25  C4  UNL     1      31.880  13.927  11.172  1.00  0.00     0.266 C 
HETATM   26  O1  UNL     1      32.813  13.046  11.090  1.00  0.00    -0.267 OA
HETATM   27  N4  UNL     1      30.707  13.585  10.500  1.00  0.00    -0.299 N 
HETATM   28  C5  UNL     1      30.498  12.583   9.750  1.00  0.00     0.203 C 
ATOM     29  H4  UNL     1      29.918  14.219  10.628  1.00  0.00     0.171 HD
HETATM   30  N5  UNL     1      31.531  11.642   9.510  1.00  0.00    -0.066 NA
HETATM   31  N6  UNL     1      29.213  12.424   9.159  1.00  0.00    -0.066 NA
ENDBRANCH   6  25
BRANCH   1  32
HETATM   32  N1  UNL     1      33.106  18.569  13.840  1.00  0.00    -0.234 N 
ATOM     33  H12 UNL     1      33.759  19.241  13.439  1.00  0.00     0.174 HD
ATOM     34  H11 UNL     1      32.671  18.765  14.742  1.00  0.00     0.174 HD
ENDBRANCH   1  32
TORSDOF 7
ENDMDL
MODEL 5
REMARK VINA RESULT: -6.068324774      1.732      4.276
REMARK  7 active torsions:
REMARK  status: ('A' for Active; 'I' for Inactive)
REMARK    1  A    between atoms: N1_1  and  C1_4 
REMARK    2  A    between atoms: C3_9  and  C4_10 
REMARK       I    between atoms: C4_10  and  N4_12 
REMARK    3  A    between atoms: C6_17  and  N7_18 
REMARK    4  A    between atoms: N7_18  and  C7_19 
REMARK    5  A    between atoms: C7_19  and  C8_20 
REMARK    6  A    between atoms: N8_21  and  N9_23 
REMARK    7  A    between atoms: N9_23  and  C9_25 
ROOT
HETATM    1  C1  UNL     1      31.474  13.535  10.854  1.00  0.00     0.679 A 
HETATM    2  N2  UNL     1      32.026  14.626  10.309  1.00  0.00    -0.178 N 
ATOM      3  H2  UNL     1      32.111  14.701   9.296  1.00  0.00     0.185 HD
HETATM    4  C2  UNL     1      32.467  15.623  11.092  1.00  0.00     0.152 A 
HETATM    5  N3  UNL     1      33.059  16.797  10.540  1.00  0.00    -0.081 NA
HETATM    6  C3  UNL     1      32.369  15.561  12.489  1.00  0.00     0.132 A 
HETATM    7  C6  UNL     1      31.801  14.437  13.048  1.00  0.00     0.212 A 
HETATM    8  N12 UNL     1      31.367  13.445  12.164  1.00  0.00    -0.163 N 
ATOM      9  H12 UNL     1      30.944  12.604  12.556  1.00  0.00     0.187 HD
ENDROOT
BRANCH   7  10
HETATM   10  N7  UNL     1      31.675  14.280  14.228  1.00  0.00    -0.397 NA
BRANCH  10  11
HETATM   11  C7  UNL     1      31.493  14.086  15.530  1.00  0.00     0.203 C 
BRANCH  11  12
HETATM   12  C8  UNL     1      32.190  12.880  16.116  1.00  0.00     0.139 C 
HETATM   13  N8  UNL     1      32.111  11.751  15.531  1.00  0.00    -0.295 N 
ATOM     14  H8  UNL     1      31.583  11.637  14.666  1.00  0.00     0.186 HD
BRANCH  13  15
HETATM   15  N9  UNL     1      32.784  10.663  16.129  1.00  0.00    -0.133 N 
ATOM     16  H9  UNL     1      33.587  10.848  16.730  1.00  0.00     0.205 HD
BRANCH  15  17
HETATM   17  C9  UNL     1      32.379   9.316  15.918  1.00  0.00     0.688 C 
HETATM   18  N10 UNL     1      33.202   8.316  15.925  1.00  0.00    -0.225 N 
HETATM   19  C10 UNL     1      32.855   6.946  15.721  1.00  0.00     0.139 C 
ATOM     20  H10 UNL     1      34.187   8.526  16.090  1.00  0.00     0.177 HD
HETATM   21  C11 UNL     1      31.591   6.688  14.979  1.00  0.00     0.040 C 
HETATM   22  C12 UNL     1      30.667   7.848  14.829  1.00  0.00     0.139 C 
HETATM   23  N11 UNL     1      31.013   8.984  15.681  1.00  0.00    -0.225 N 
ATOM     24  H11 UNL     1      30.273   9.543  16.107  1.00  0.00     0.177 HD
ENDBRANCH  15  17
ENDBRANCH  13  15
ENDBRANCH  11  12
ENDBRANCH  10  11
ENDBRANCH   7  10
BRANCH   6  25
HETATM   25  C4  UNL     1      32.856  16.666  13.280  1.00  0.00     0.266 C 
HETATM   26  O1  UNL     1      31.987  17.514  13.703  1.00  0.00    -0.267 OA
HETATM   27  N4  UNL     1      34.168  16.950  13.661  1.00  0.00    -0.299 N 
HETATM   28  C5  UNL     1      34.603  17.976  14.267  1.00  0.00     0.203 C 
ATOM     29  H4  UNL     1      34.864  16.244  13.422  1.00  0.00     0.171 HD
HETATM   30  N5  UNL     1      33.713  19.014  14.643  1.00  0.00    -0.066 NA
HETATM   31  N6  UNL     1      35.992  18.062  14.560  1.00  0.00    -0.066 NA
ENDBRANCH   6  25
BRANCH   1  32
HETATM   32  N1  UNL     1      31.066  12.606  10.043  1.00  0.00    -0.234 N 
ATOM     33  H12 UNL     1      30.940  12.756   9.043  1.00  0.00     0.174 HD
ATOM     34  H11 UNL     1      30.866  11.689  10.444  1.00  0.00     0.174 HD
ENDBRANCH   1  32
TORSDOF 7
ENDMDL
