MODEL 1
REMARK VINA RESULT: -5.640619720      0.000      0.000
REMARK  5 active torsions:
REMARK  status: ('A' for Active; 'I' for Inactive)
REMARK    1  A    between atoms: C8_19  and  N6_20 
REMARK    2  A    between atoms: N6_20  and  C9_22 
REMARK    3  A    between atoms: C9_22  and  C10_23 
REMARK    4  A    between atoms: C10_23  and  C11_24 
REMARK    5  A    between atoms: C11_24  and  C12_25 
ROOT
HETATM    1  N1  UNL     1      32.193  17.727  10.257  1.00  0.00    -0.079 NA
HETATM    2  C1  UNL     1      32.304  16.549  11.106  1.00  0.00     0.159 C 
HETATM    3  N2  UNL     1      32.305  15.455  10.491  1.00  0.00    -0.354 N 
ATOM      4  H2  UNL     1      32.226  15.557   9.480  1.00  0.00     0.166 HD
HETATM    5  C2  UNL     1      32.392  14.115  10.913  1.00  0.00     0.089 C 
HETATM    6  C3  UNL     1      31.160  13.361  10.424  1.00  0.00     0.276 C 
HETATM    7  N3  UNL     1      30.222  14.217   9.756  1.00  0.00    -0.069 N 
ATOM      8  H31 UNL     1      30.406  14.245   8.753  1.00  0.00     0.277 HD
ATOM      9  H32 UNL     1      30.396  15.196   9.985  1.00  0.00     0.277 HD
HETATM   10  C4  UNL     1      28.848  13.863  10.019  1.00  0.00     0.260 C 
HETATM   11  C5  UNL     1      28.130  14.926  10.821  1.00  0.00     0.259 C 
HETATM   12  N4  UNL     1      28.584  14.856  12.213  1.00  0.00    -0.072 N 
ATOM     13  H41 UNL     1      29.094  13.994  12.408  1.00  0.00     0.277 HD
ATOM     14  H42 UNL     1      27.810  14.719  12.864  1.00  0.00     0.277 HD
HETATM   15  C6  UNL     1      29.374  16.052  12.537  1.00  0.00     0.251 C 
HETATM   16  C7  UNL     1      30.465  15.659  13.489  1.00  0.00     0.148 C 
HETATM   17  N5  UNL     1      31.639  16.442  13.457  1.00  0.00    -0.372 N 
ATOM     18  H5  UNL     1      31.931  16.772  14.376  1.00  0.00     0.161 HD
HETATM   19  C8  UNL     1      32.397  16.817  12.526  1.00  0.00     0.139 C 
ENDROOT
BRANCH  19  20
HETATM   20  N6  UNL     1      33.538  17.656  12.890  1.00  0.00    -0.374 N 
ATOM     21  H6  UNL     1      33.899  18.360  12.247  1.00  0.00     0.161 HD
BRANCH  20  22
HETATM   22  C9  UNL     1      34.135  17.456  14.182  1.00  0.00     0.121 C 
BRANCH  22  23
HETATM   23  C10 UNL     1      33.893  18.703  15.004  1.00  0.00     0.023 C 
BRANCH  23  24
HETATM   24  C11 UNL     1      34.981  19.717  14.800  1.00  0.00     0.064 C 
BRANCH  24  25
HETATM   25  C12 UNL     1      34.552  21.111  15.200  1.00  0.00     0.382 C 
HETATM   26  N7  UNL     1      35.702  21.905  15.588  1.00  0.00    -0.045 N 
HETATM   27  C13 UNL     1      36.488  22.313  14.449  1.00  0.00     0.262 C 
ATOM     28  H72 UNL     1      35.424  22.708  16.152  1.00  0.00     0.279 HD
ATOM     29  H71 UNL     1      36.275  21.415  16.276  1.00  0.00     0.279 HD
HETATM   30  C14 UNL     1      36.627  23.809  14.391  1.00  0.00     0.260 C 
HETATM   31  N8  UNL     1      35.367  24.499  14.468  1.00  0.00    -0.072 N 
HETATM   32  C15 UNL     1      34.412  23.961  13.527  1.00  0.00     0.260 C 
ATOM     33  H82 UNL     1      34.997  24.497  15.419  1.00  0.00     0.277 HD
ATOM     34  H81 UNL     1      35.484  25.505  14.347  1.00  0.00     0.277 HD
HETATM   35  C16 UNL     1      33.463  23.050  14.298  1.00  0.00     0.262 C 
HETATM   36  N9  UNL     1      33.888  21.694  14.036  1.00  0.00    -0.045 N 
ATOM     37  H92 UNL     1      34.476  21.640  13.204  1.00  0.00     0.279 HD
ATOM     38  H91 UNL     1      33.112  21.113  13.719  1.00  0.00     0.279 HD
ENDBRANCH  24  25
ENDBRANCH  23  24
ENDBRANCH  22  23
ENDBRANCH  20  22
ENDBRANCH  19  20
TORSDOF 5
ENDMDL
MODEL 2
REMARK VINA RESULT: -5.627657392      5.515      9.720
REMARK  5 active torsions:
REMARK  status: ('A' for Active; 'I' for Inactive)
REMARK    1  A    between atoms: C8_19  and  N6_20 
REMARK    2  A    between atoms: N6_20  and  C9_22 
REMARK    3  A    between atoms: C9_22  and  C10_23 
REMARK    4  A    between atoms: C10_23  and  C11_24 
REMARK    5  A    between atoms: C11_24  and  C12_25 
ROOT
HETATM    1  N1  UNL     1      31.382  12.869  13.355  1.00  0.00    -0.079 NA
HETATM    2  C1  UNL     1      31.058  14.141  13.984  1.00  0.00     0.159 C 
HETATM    3  N2  UNL     1      30.125  14.778  13.436  1.00  0.00    -0.354 N 
ATOM      4  H2  UNL     1      29.732  14.303  12.625  1.00  0.00     0.166 HD
HETATM    5  C2  UNL     1      29.511  16.013  13.713  1.00  0.00     0.089 C 
HETATM    6  C3  UNL     1      29.639  16.915  12.491  1.00  0.00     0.276 C 
HETATM    7  N3  UNL     1      30.407  16.310  11.441  1.00  0.00    -0.069 N 
ATOM      8  H31 UNL     1      29.804  15.795  10.799  1.00  0.00     0.277 HD
ATOM      9  H32 UNL     1      30.968  15.537  11.799  1.00  0.00     0.277 HD
HETATM   10  C4  UNL     1      31.230  17.256  10.726  1.00  0.00     0.260 C 
HETATM   11  C5  UNL     1      32.706  17.009  10.951  1.00  0.00     0.259 C 
HETATM   12  N4  UNL     1      33.064  17.468  12.297  1.00  0.00    -0.072 N 
ATOM     13  H41 UNL     1      32.335  18.050  12.710  1.00  0.00     0.277 HD
ATOM     14  H42 UNL     1      33.814  18.159  12.281  1.00  0.00     0.277 HD
HETATM   15  C6  UNL     1      33.395  16.312  13.142  1.00  0.00     0.251 C 
HETATM   16  C7  UNL     1      32.933  16.596  14.540  1.00  0.00     0.148 C 
HETATM   17  N5  UNL     1      32.601  15.476  15.332  1.00  0.00    -0.372 N 
ATOM     18  H5  UNL     1      33.057  15.475  16.245  1.00  0.00     0.161 HD
HETATM   19  C8  UNL     1      31.858  14.479  15.143  1.00  0.00     0.139 C 
ENDROOT
BRANCH  19  20
HETATM   20  N6  UNL     1      31.776  13.493  16.218  1.00  0.00    -0.374 N 
ATOM     21  H6  UNL     1      30.899  13.018  16.431  1.00  0.00     0.161 HD
BRANCH  20  22
HETATM   22  C9  UNL     1      32.970  13.212  16.967  1.00  0.00     0.121 C 
BRANCH  22  23
HETATM   23  C10 UNL     1      33.383  11.788  16.670  1.00  0.00     0.023 C 
BRANCH  23  24
HETATM   24  C11 UNL     1      32.195  10.874  16.592  1.00  0.00     0.064 C 
BRANCH  24  25
HETATM   25  C12 UNL     1      32.505   9.586  15.864  1.00  0.00     0.382 C 
HETATM   26  N7  UNL     1      33.540   8.845  16.559  1.00  0.00    -0.045 N 
HETATM   27  C13 UNL     1      33.043   8.219  17.761  1.00  0.00     0.262 C 
ATOM     28  H72 UNL     1      33.984   8.164  15.944  1.00  0.00     0.279 HD
ATOM     29  H71 UNL     1      34.348   9.435  16.756  1.00  0.00     0.279 HD
HETATM   30  C14 UNL     1      33.276   6.734  17.737  1.00  0.00     0.260 C 
HETATM   31  N8  UNL     1      32.784   6.101  16.542  1.00  0.00    -0.072 N 
HETATM   32  C15 UNL     1      31.420   6.486  16.264  1.00  0.00     0.260 C 
ATOM     33  H82 UNL     1      33.394   6.284  15.745  1.00  0.00     0.277 HD
ATOM     34  H81 UNL     1      32.884   5.087  16.588  1.00  0.00     0.277 HD
HETATM   35  C16 UNL     1      31.451   7.545  15.167  1.00  0.00     0.262 C 
HETATM   36  N9  UNL     1      31.261   8.821  15.818  1.00  0.00    -0.045 N 
ATOM     37  H92 UNL     1      30.855   8.709  16.748  1.00  0.00     0.279 HD
ATOM     38  H91 UNL     1      30.509   9.355  15.382  1.00  0.00     0.279 HD
ENDBRANCH  24  25
ENDBRANCH  23  24
ENDBRANCH  22  23
ENDBRANCH  20  22
ENDBRANCH  19  20
TORSDOF 5
ENDMDL
MODEL 3
REMARK VINA RESULT: -5.617351575      2.025      9.216
REMARK  5 active torsions:
REMARK  status: ('A' for Active; 'I' for Inactive)
REMARK    1  A    between atoms: C8_19  and  N6_20 
REMARK    2  A    between atoms: N6_20  and  C9_22 
REMARK    3  A    between atoms: C9_22  and  C10_23 
REMARK    4  A    between atoms: C10_23  and  C11_24 
REMARK    5  A    between atoms: C11_24  and  C12_25 
ROOT
HETATM    1  N1  UNL     1      36.972  20.435  14.747  1.00  0.00    -0.079 NA
HETATM    2  C1  UNL     1      36.061  21.570  14.721  1.00  0.00     0.159 C 
HETATM    3  N2  UNL     1      36.561  22.638  14.293  1.00  0.00    -0.354 N 
ATOM      4  H2  UNL     1      37.541  22.549  14.025  1.00  0.00     0.166 HD
HETATM    5  C2  UNL     1      36.046  23.935  14.106  1.00  0.00     0.089 C 
HETATM    6  C3  UNL     1      36.881  24.921  14.915  1.00  0.00     0.276 C 
HETATM    7  N3  UNL     1      37.890  24.269  15.700  1.00  0.00    -0.069 N 
ATOM      8  H31 UNL     1      38.766  24.200  15.182  1.00  0.00     0.277 HD
ATOM      9  H32 UNL     1      37.682  23.277  15.810  1.00  0.00     0.277 HD
HETATM   10  C4  UNL     1      38.099  24.896  16.983  1.00  0.00     0.260 C 
HETATM   11  C5  UNL     1      37.672  24.005  18.128  1.00  0.00     0.259 C 
HETATM   12  N4  UNL     1      36.207  23.989  18.194  1.00  0.00    -0.072 N 
ATOM     13  H41 UNL     1      35.789  24.730  17.631  1.00  0.00     0.277 HD
ATOM     14  H42 UNL     1      35.859  24.283  19.107  1.00  0.00     0.277 HD
HETATM   15  C6  UNL     1      35.709  22.658  17.815  1.00  0.00     0.251 C 
HETATM   16  C7  UNL     1      34.414  22.826  17.079  1.00  0.00     0.148 C 
HETATM   17  N5  UNL     1      34.087  21.821  16.144  1.00  0.00    -0.372 N 
ATOM     18  H5  UNL     1      33.148  21.443  16.266  1.00  0.00     0.161 HD
HETATM   19  C8  UNL     1      34.719  21.295  15.191  1.00  0.00     0.139 C 
ENDROOT
BRANCH  19  20
HETATM   20  N6  UNL     1      34.038  20.245  14.437  1.00  0.00    -0.374 N 
ATOM     21  H6  UNL     1      33.763  20.388  13.465  1.00  0.00     0.161 HD
BRANCH  20  22
HETATM   22  C9  UNL     1      33.767  19.002  15.107  1.00  0.00     0.121 C 
BRANCH  22  23
HETATM   23  C10 UNL     1      34.335  17.884  14.262  1.00  0.00     0.023 C 
BRANCH  23  24
HETATM   24  C11 UNL     1      33.480  16.652  14.331  1.00  0.00     0.064 C 
BRANCH  24  25
HETATM   25  C12 UNL     1      33.032  16.185  12.964  1.00  0.00     0.382 C 
HETATM   26  N7  UNL     1      31.628  15.820  12.987  1.00  0.00    -0.045 N 
HETATM   27  C13 UNL     1      30.769  16.979  13.036  1.00  0.00     0.262 C 
ATOM     28  H72 UNL     1      31.390  15.216  12.201  1.00  0.00     0.279 HD
ATOM     29  H71 UNL     1      31.425  15.177  13.752  1.00  0.00     0.279 HD
HETATM   30  C14 UNL     1      29.803  16.989  11.883  1.00  0.00     0.260 C 
HETATM   31  N8  UNL     1      30.444  16.831  10.605  1.00  0.00    -0.072 N 
HETATM   32  C15 UNL     1      31.551  17.747  10.453  1.00  0.00     0.260 C 
ATOM     33  H82 UNL     1      30.734  15.865  10.449  1.00  0.00     0.277 HD
ATOM     34  H81 UNL     1      29.777  16.921   9.839  1.00  0.00     0.277 HD
HETATM   35  C16 UNL     1      32.837  16.967  10.704  1.00  0.00     0.262 C 
HETATM   36  N9  UNL     1      33.265  17.296  12.045  1.00  0.00    -0.045 N 
ATOM     37  H92 UNL     1      32.826  18.155  12.377  1.00  0.00     0.279 HD
ATOM     38  H91 UNL     1      34.239  17.598  12.063  1.00  0.00     0.279 HD
ENDBRANCH  24  25
ENDBRANCH  23  24
ENDBRANCH  22  23
ENDBRANCH  20  22
ENDBRANCH  19  20
TORSDOF 5
ENDMDL
MODEL 4
REMARK VINA RESULT: -5.573067062      3.729      6.545
REMARK  5 active torsions:
REMARK  status: ('A' for Active; 'I' for Inactive)
REMARK    1  A    between atoms: C8_19  and  N6_20 
REMARK    2  A    between atoms: N6_20  and  C9_22 
REMARK    3  A    between atoms: C9_22  and  C10_23 
REMARK    4  A    between atoms: C10_23  and  C11_24 
REMARK    5  A    between atoms: C11_24  and  C12_25 
ROOT
HETATM    1  N1  UNL     1      32.776  13.810  10.953  1.00  0.00    -0.079 NA
HETATM    2  C1  UNL     1      31.979  14.977  11.305  1.00  0.00     0.159 C 
HETATM    3  N2  UNL     1      32.643  16.002  11.593  1.00  0.00    -0.354 N 
ATOM      4  H2  UNL     1      33.652  15.861  11.538  1.00  0.00     0.166 HD
HETATM    5  C2  UNL     1      32.282  17.307  11.977  1.00  0.00     0.089 C 
HETATM    6  C3  UNL     1      32.909  17.616  13.332  1.00  0.00     0.276 C 
HETATM    7  N3  UNL     1      33.612  16.491  13.880  1.00  0.00    -0.069 N 
ATOM      8  H31 UNL     1      34.593  16.505  13.603  1.00  0.00     0.277 HD
ATOM      9  H32 UNL     1      33.322  15.625  13.427  1.00  0.00     0.277 HD
HETATM   10  C4  UNL     1      33.484  16.390  15.315  1.00  0.00     0.260 C 
HETATM   11  C5  UNL     1      32.695  15.168  15.730  1.00  0.00     0.259 C 
HETATM   12  N4  UNL     1      31.274  15.407  15.458  1.00  0.00    -0.072 N 
ATOM     13  H41 UNL     1      31.079  16.390  15.270  1.00  0.00     0.277 HD
ATOM     14  H42 UNL     1      30.698  15.300  16.294  1.00  0.00     0.277 HD
HETATM   15  C6  UNL     1      30.826  14.534  14.363  1.00  0.00     0.251 C 
HETATM   16  C7  UNL     1      29.807  15.274  13.551  1.00  0.00     0.148 C 
HETATM   17  N5  UNL     1      29.701  14.909  12.191  1.00  0.00    -0.372 N 
ATOM     18  H5  UNL     1      28.745  14.708  11.898  1.00  0.00     0.161 HD
HETATM   19  C8  UNL     1      30.545  14.780  11.267  1.00  0.00     0.139 C 
ENDROOT
BRANCH  19  20
HETATM   20  N6  UNL     1      30.045  14.360   9.960  1.00  0.00    -0.374 N 
ATOM     21  H6  UNL     1      30.686  14.158   9.192  1.00  0.00     0.161 HD
BRANCH  20  22
HETATM   22  C9  UNL     1      28.623  14.240   9.789  1.00  0.00     0.121 C 
BRANCH  22  23
HETATM   23  C10 UNL     1      28.149  15.427   8.980  1.00  0.00     0.023 C 
BRANCH  23  24
HETATM   24  C11 UNL     1      27.516  16.471   9.852  1.00  0.00     0.064 C 
BRANCH  24  25
HETATM   25  C12 UNL     1      27.903  17.875   9.445  1.00  0.00     0.382 C 
HETATM   26  N7  UNL     1      27.738  18.791  10.557  1.00  0.00    -0.045 N 
HETATM   27  C13 UNL     1      28.775  18.634  11.547  1.00  0.00     0.262 C 
ATOM     28  H72 UNL     1      27.677  19.757  10.235  1.00  0.00     0.279 HD
ATOM     29  H71 UNL     1      26.811  18.702  10.975  1.00  0.00     0.279 HD
HETATM   30  C14 UNL     1      29.505  19.927  11.782  1.00  0.00     0.260 C 
HETATM   31  N8  UNL     1      29.987  20.534  10.570  1.00  0.00    -0.072 N 
HETATM   32  C15 UNL     1      30.715  19.588   9.758  1.00  0.00     0.260 C 
ATOM     33  H82 UNL     1      29.229  20.972  10.044  1.00  0.00     0.277 HD
ATOM     34  H81 UNL     1      30.544  21.367  10.765  1.00  0.00     0.277 HD
HETATM   35  C16 UNL     1      29.788  19.123   8.641  1.00  0.00     0.262 C 
HETATM   36  N9  UNL     1      29.301  17.818   9.023  1.00  0.00    -0.045 N 
ATOM     37  H92 UNL     1      29.891  17.394   9.739  1.00  0.00     0.279 HD
ATOM     38  H91 UNL     1      29.439  17.134   8.279  1.00  0.00     0.279 HD
ENDBRANCH  24  25
ENDBRANCH  23  24
ENDBRANCH  22  23
ENDBRANCH  20  22
ENDBRANCH  19  20
TORSDOF 5
ENDMDL
MODEL 5
REMARK VINA RESULT: -5.566627980      3.557      6.434
REMARK  5 active torsions:
REMARK  status: ('A' for Active; 'I' for Inactive)
REMARK    1  A    between atoms: C8_19  and  N6_20 
REMARK    2  A    between atoms: N6_20  and  C9_22 
REMARK    3  A    between atoms: C9_22  and  C10_23 
REMARK    4  A    between atoms: C10_23  and  C11_24 
REMARK    5  A    between atoms: C11_24  and  C12_25 
ROOT
HETATM    1  N1  UNL     1      33.121  16.027  10.235  1.00  0.00    -0.079 NA
HETATM    2  C1  UNL     1      32.122  16.277  11.263  1.00  0.00     0.159 C 
HETATM    3  N2  UNL     1      31.191  15.436  11.309  1.00  0.00    -0.354 N 
ATOM      4  H2  UNL     1      31.276  14.698  10.611  1.00  0.00     0.166 HD
HETATM    5  C2  UNL     1      30.053  15.304  12.127  1.00  0.00     0.089 C 
HETATM    6  C3  UNL     1      28.808  15.297  11.247  1.00  0.00     0.276 C 
HETATM    7  N3  UNL     1      29.116  15.509   9.861  1.00  0.00    -0.069 N 
ATOM      8  H31 UNL     1      29.265  14.622   9.381  1.00  0.00     0.277 HD
ATOM      9  H32 UNL     1      30.045  15.915   9.753  1.00  0.00     0.277 HD
HETATM   10  C4  UNL     1      28.123  16.304   9.178  1.00  0.00     0.260 C 
HETATM   11  C5  UNL     1      28.668  17.648   8.749  1.00  0.00     0.259 C 
HETATM   12  N4  UNL     1      28.782  18.512   9.928  1.00  0.00    -0.072 N 
ATOM     13  H41 UNL     1      28.276  18.135  10.730  1.00  0.00     0.277 HD
ATOM     14  H42 UNL     1      28.261  19.382   9.821  1.00  0.00     0.277 HD
HETATM   15  C6  UNL     1      30.201  18.751  10.231  1.00  0.00     0.251 C 
HETATM   16  C7  UNL     1      30.362  18.835  11.720  1.00  0.00     0.148 C 
HETATM   17  N5  UNL     1      31.622  18.464  12.237  1.00  0.00    -0.372 N 
ATOM     18  H5  UNL     1      32.021  19.157  12.869  1.00  0.00     0.161 HD
HETATM   19  C8  UNL     1      32.352  17.452  12.077  1.00  0.00     0.139 C 
ENDROOT
BRANCH  19  20
HETATM   20  N6  UNL     1      33.630  17.432  12.787  1.00  0.00    -0.374 N 
ATOM     21  H6  UNL     1      34.505  17.264  12.290  1.00  0.00     0.161 HD
BRANCH  20  22
HETATM   22  C9  UNL     1      33.615  17.657  14.206  1.00  0.00     0.121 C 
BRANCH  22  23
HETATM   23  C10 UNL     1      33.369  16.328  14.885  1.00  0.00     0.023 C 
BRANCH  23  24
HETATM   24  C11 UNL     1      31.925  16.158  15.258  1.00  0.00     0.064 C 
BRANCH  24  25
HETATM   25  C12 UNL     1      31.728  15.121  16.341  1.00  0.00     0.382 C 
HETATM   26  N7  UNL     1      30.815  14.086  15.893  1.00  0.00    -0.045 N 
HETATM   27  C13 UNL     1      31.434  13.192  14.944  1.00  0.00     0.262 C 
ATOM     28  H72 UNL     1      30.421  13.573  16.681  1.00  0.00     0.279 HD
ATOM     29  H71 UNL     1      29.956  14.488  15.517  1.00  0.00     0.279 HD
HETATM   30  C14 UNL     1      31.367  11.766  15.415  1.00  0.00     0.260 C 
HETATM   31  N8  UNL     1      31.870  11.586  16.751  1.00  0.00    -0.072 N 
HETATM   32  C15 UNL     1      33.168  12.199  16.913  1.00  0.00     0.260 C 
ATOM     33  H82 UNL     1      31.207  11.925  17.449  1.00  0.00     0.277 HD
ATOM     34  H81 UNL     1      31.886  10.601  17.014  1.00  0.00     0.277 HD
HETATM   35  C16 UNL     1      32.969  13.527  17.636  1.00  0.00     0.262 C 
HETATM   36  N9  UNL     1      33.046  14.560  16.629  1.00  0.00    -0.045 N 
ATOM     37  H92 UNL     1      33.504  14.224  15.782  1.00  0.00     0.279 HD
ATOM     38  H91 UNL     1      33.712  15.288  16.891  1.00  0.00     0.279 HD
ENDBRANCH  24  25
ENDBRANCH  23  24
ENDBRANCH  22  23
ENDBRANCH  20  22
ENDBRANCH  19  20
TORSDOF 5
ENDMDL
