MODEL 1
REMARK VINA RESULT: -5.135191063      0.000      0.000
REMARK  13 active torsions:
REMARK  status: ('A' for Active; 'I' for Inactive)
REMARK    1  A    between atoms: O1_2  and  C2_3 
REMARK    2  A    between atoms: C2_3  and  C3_5 
REMARK    3  A    between atoms: C3_5  and  C4_6 
REMARK    4  A    between atoms: C4_6  and  N1_7 
REMARK    5  A    between atoms: C4_6  and  C17_31 
REMARK    6  A    between atoms: N1_7  and  C5_9 
REMARK    7  A    between atoms: C6_10  and  C7_11 
REMARK    8  A    between atoms: C7_11  and  O3_12 
REMARK    9  A    between atoms: C7_11  and  O4_14 
REMARK   10  A    between atoms: C9_17  and  C10_18 
REMARK   11  A    between atoms: C10_18  and  O6_19 
REMARK   12  A    between atoms: C10_18  and  N2_21 
REMARK   13  A    between atoms: N2_21  and  C11_23 
ROOT
HETATM    1  C5  UNL     1      18.962  35.301   8.331  1.00  0.00     0.114 A 
HETATM    2  C6  UNL     1      19.049  34.416   9.370  1.00  0.00     0.138 A 
HETATM    3  O5  UNL     1      19.521  34.909  10.523  1.00  0.00    -0.307 OA
HETATM    4  C9  UNL     1      19.881  36.136  10.682  1.00  0.00     0.105 A 
HETATM    5  C15 UNL     1      19.811  37.068   9.665  1.00  0.00     0.094 A 
HETATM    6  C16 UNL     1      19.338  36.644   8.449  1.00  0.00     0.203 A 
HETATM    7  O7  UNL     1      19.250  37.445   7.485  1.00  0.00    -0.286 OA
ENDROOT
BRANCH   1   8
HETATM    8  N1  UNL     1      18.539  34.858   7.071  1.00  0.00    -0.370 N 
ATOM      9  H1  UNL     1      17.536  34.761   6.916  1.00  0.00     0.160 HD
BRANCH   8  10
HETATM   10  C4  UNL     1      19.431  34.524   5.964  1.00  0.00     0.192 C 
BRANCH  10  11
HETATM   11  C3  UNL     1      19.358  35.468   4.824  1.00  0.00     0.147 C 
BRANCH  11  12
HETATM   12  C2  UNL     1      18.174  35.210   3.969  1.00  0.00     0.260 C 
HETATM   13  O2  UNL     1      18.005  34.118   3.369  1.00  0.00    -0.265 OA
BRANCH  12  14
HETATM   14  O1  UNL     1      17.195  36.183   3.804  1.00  0.00    -0.326 OA
HETATM   15  C1  UNL     1      16.779  37.068   4.806  1.00  0.00     0.213 C 
ENDBRANCH  12  14
ENDBRANCH  11  12
ENDBRANCH  10  11
BRANCH  10  16
HETATM   16  C17 UNL     1      20.814  34.395   6.442  1.00  0.00     0.197 C 
HETATM   17  O8  UNL     1      21.202  33.292   6.891  1.00  0.00    -0.646 OA
HETATM   18  O9  UNL     1      21.683  35.449   6.402  1.00  0.00    -0.646 OA
ENDBRANCH  10  16
ENDBRANCH   8  10
ENDBRANCH   1   8
BRANCH   2  19
HETATM   19  C7  UNL     1      18.680  32.999   9.374  1.00  0.00     0.317 C 
BRANCH  19  20
HETATM   20  O3  UNL     1      17.283  32.953   8.939  1.00  0.00    -0.365 OA
ATOM     21  H3  UNL     1      16.929  32.146   9.296  1.00  0.00     0.213 HD
ENDBRANCH  19  20
BRANCH  19  22
HETATM   22  O4  UNL     1      19.368  32.168   8.533  1.00  0.00    -0.360 OA
HETATM   23  C8  UNL     1      18.442  31.419   7.809  1.00  0.00     0.205 C 
ENDBRANCH  19  22
ENDBRANCH   2  19
BRANCH   4  24
HETATM   24  C10 UNL     1      20.400  36.607  12.003  1.00  0.00     0.276 C 
BRANCH  24  25
HETATM   25  O6  UNL     1      19.547  36.215  13.031  1.00  0.00    -0.371 OA
ATOM     26  H6  UNL     1      20.007  36.205  13.861  1.00  0.00     0.212 HD
ENDBRANCH  24  25
BRANCH  24  27
HETATM   27  N2  UNL     1      20.682  37.997  11.948  1.00  0.00    -0.358 N 
ATOM     28  H2  UNL     1      19.991  38.633  11.552  1.00  0.00     0.162 HD
BRANCH  27  29
HETATM   29  C11 UNL     1      21.937  38.530  12.445  1.00  0.00     0.037 A 
HETATM   30  C12 UNL     1      22.006  39.330  13.517  1.00  0.00     0.037 A 
HETATM   31  C13 UNL     1      23.241  39.781  13.901  1.00  0.00     0.052 A 
HETATM   32  S1  UNL     1      24.281  39.072  12.754  1.00  0.00    -0.111 SA
HETATM   33  C14 UNL     1      23.134  38.229  11.822  1.00  0.00     0.078 A 
ENDBRANCH  27  29
ENDBRANCH  24  27
ENDBRANCH   4  24
TORSDOF 13
ENDMDL
MODEL 2
REMARK VINA RESULT: -5.039091609      2.001      3.294
REMARK  13 active torsions:
REMARK  status: ('A' for Active; 'I' for Inactive)
REMARK    1  A    between atoms: O1_2  and  C2_3 
REMARK    2  A    between atoms: C2_3  and  C3_5 
REMARK    3  A    between atoms: C3_5  and  C4_6 
REMARK    4  A    between atoms: C4_6  and  N1_7 
REMARK    5  A    between atoms: C4_6  and  C17_31 
REMARK    6  A    between atoms: N1_7  and  C5_9 
REMARK    7  A    between atoms: C6_10  and  C7_11 
REMARK    8  A    between atoms: C7_11  and  O3_12 
REMARK    9  A    between atoms: C7_11  and  O4_14 
REMARK   10  A    between atoms: C9_17  and  C10_18 
REMARK   11  A    between atoms: C10_18  and  O6_19 
REMARK   12  A    between atoms: C10_18  and  N2_21 
REMARK   13  A    between atoms: N2_21  and  C11_23 
ROOT
HETATM    1  C5  UNL     1      19.408  36.387  10.021  1.00  0.00     0.114 A 
HETATM    2  C6  UNL     1      19.246  36.295  11.376  1.00  0.00     0.138 A 
HETATM    3  O5  UNL     1      20.257  36.765  12.120  1.00  0.00    -0.307 OA
HETATM    4  C9  UNL     1      21.330  37.279  11.625  1.00  0.00     0.105 A 
HETATM    5  C15 UNL     1      21.539  37.395  10.265  1.00  0.00     0.094 A 
HETATM    6  C16 UNL     1      20.550  36.937   9.431  1.00  0.00     0.203 A 
HETATM    7  O7  UNL     1      20.682  37.015   8.184  1.00  0.00    -0.286 OA
ENDROOT
BRANCH   1   8
HETATM    8  N1  UNL     1      18.429  35.863   9.166  1.00  0.00    -0.370 N 
ATOM      9  H1  UNL     1      17.467  36.172   9.302  1.00  0.00     0.160 HD
BRANCH   8  10
HETATM   10  C4  UNL     1      18.687  34.906   8.093  1.00  0.00     0.192 C 
BRANCH  10  11
HETATM   11  C3  UNL     1      19.148  35.526   6.829  1.00  0.00     0.147 C 
BRANCH  11  12
HETATM   12  C2  UNL     1      18.015  36.032   6.017  1.00  0.00     0.260 C 
HETATM   13  O2  UNL     1      16.954  36.458   6.540  1.00  0.00    -0.265 OA
BRANCH  12  14
HETATM   14  O1  UNL     1      18.092  36.053   4.630  1.00  0.00    -0.326 OA
HETATM   15  C1  UNL     1      18.302  34.923   3.829  1.00  0.00     0.213 C 
ENDBRANCH  12  14
ENDBRANCH  11  12
ENDBRANCH  10  11
BRANCH  10  16
HETATM   16  C17 UNL     1      19.636  33.877   8.542  1.00  0.00     0.197 C 
HETATM   17  O8  UNL     1      20.582  33.553   7.789  1.00  0.00    -0.646 OA
HETATM   18  O9  UNL     1      19.508  33.274   9.762  1.00  0.00    -0.646 OA
ENDBRANCH  10  16
ENDBRANCH   8  10
ENDBRANCH   1   8
BRANCH   2  19
HETATM   19  C7  UNL     1      18.100  35.753  12.109  1.00  0.00     0.317 C 
BRANCH  19  20
HETATM   20  O3  UNL     1      17.855  34.429  11.536  1.00  0.00    -0.365 OA
ATOM     21  H3  UNL     1      17.713  33.851  12.277  1.00  0.00     0.213 HD
ENDBRANCH  19  20
BRANCH  19  22
HETATM   22  O4  UNL     1      18.247  35.565  13.456  1.00  0.00    -0.360 OA
HETATM   23  C8  UNL     1      18.468  36.808  14.046  1.00  0.00     0.205 C 
ENDBRANCH  19  22
ENDBRANCH   2  19
BRANCH   4  24
HETATM   24  C10 UNL     1      22.413  37.780  12.526  1.00  0.00     0.276 C 
BRANCH  24  25
HETATM   25  O6  UNL     1      21.869  38.362  13.668  1.00  0.00    -0.371 OA
ATOM     26  H6  UNL     1      22.053  39.294  13.687  1.00  0.00     0.212 HD
ENDBRANCH  24  25
BRANCH  24  27
HETATM   27  N2  UNL     1      23.312  38.602  11.798  1.00  0.00    -0.358 N 
ATOM     28  H2  UNL     1      22.941  39.292  11.143  1.00  0.00     0.162 HD
BRANCH  27  29
HETATM   29  C11 UNL     1      24.747  38.481  11.966  1.00  0.00     0.037 A 
HETATM   30  C12 UNL     1      25.579  39.522  11.838  1.00  0.00     0.037 A 
HETATM   31  C13 UNL     1      26.919  39.298  12.015  1.00  0.00     0.052 A 
HETATM   32  S1  UNL     1      26.985  37.632  12.358  1.00  0.00    -0.111 SA
HETATM   33  C14 UNL     1      25.328  37.263  12.269  1.00  0.00     0.078 A 
ENDBRANCH  27  29
ENDBRANCH  24  27
ENDBRANCH   4  24
TORSDOF 13
ENDMDL
MODEL 3
REMARK VINA RESULT: -4.946272377      0.574      1.008
REMARK  13 active torsions:
REMARK  status: ('A' for Active; 'I' for Inactive)
REMARK    1  A    between atoms: O1_2  and  C2_3 
REMARK    2  A    between atoms: C2_3  and  C3_5 
REMARK    3  A    between atoms: C3_5  and  C4_6 
REMARK    4  A    between atoms: C4_6  and  N1_7 
REMARK    5  A    between atoms: C4_6  and  C17_31 
REMARK    6  A    between atoms: N1_7  and  C5_9 
REMARK    7  A    between atoms: C6_10  and  C7_11 
REMARK    8  A    between atoms: C7_11  and  O3_12 
REMARK    9  A    between atoms: C7_11  and  O4_14 
REMARK   10  A    between atoms: C9_17  and  C10_18 
REMARK   11  A    between atoms: C10_18  and  O6_19 
REMARK   12  A    between atoms: C10_18  and  N2_21 
REMARK   13  A    between atoms: N2_21  and  C11_23 
ROOT
HETATM    1  C5  UNL     1      18.922  35.379   8.637  1.00  0.00     0.114 A 
HETATM    2  C6  UNL     1      19.123  34.447   9.617  1.00  0.00     0.138 A 
HETATM    3  O5  UNL     1      19.651  34.903  10.761  1.00  0.00    -0.307 OA
HETATM    4  C9  UNL     1      19.961  36.138  10.963  1.00  0.00     0.105 A 
HETATM    5  C15 UNL     1      19.774  37.116  10.006  1.00  0.00     0.094 A 
HETATM    6  C16 UNL     1      19.238  36.731   8.803  1.00  0.00     0.203 A 
HETATM    7  O7  UNL     1      19.045  37.576   7.893  1.00  0.00    -0.286 OA
ENDROOT
BRANCH   1   8
HETATM    8  N1  UNL     1      18.433  34.980   7.385  1.00  0.00    -0.370 N 
ATOM      9  H1  UNL     1      17.447  34.728   7.321  1.00  0.00     0.160 HD
BRANCH   8  10
HETATM   10  C4  UNL     1      19.235  34.899   6.167  1.00  0.00     0.192 C 
BRANCH  10  11
HETATM   11  C3  UNL     1      19.090  36.070   5.270  1.00  0.00     0.147 C 
BRANCH  11  12
HETATM   12  C2  UNL     1      17.702  36.214   4.771  1.00  0.00     0.260 C 
HETATM   13  O2  UNL     1      16.830  36.872   5.392  1.00  0.00    -0.265 OA
BRANCH  12  14
HETATM   14  O1  UNL     1      17.313  35.616   3.577  1.00  0.00    -0.326 OA
HETATM   15  C1  UNL     1      17.927  34.488   3.018  1.00  0.00     0.213 C 
ENDBRANCH  12  14
ENDBRANCH  11  12
ENDBRANCH  10  11
BRANCH  10  16
HETATM   16  C17 UNL     1      20.648  34.671   6.498  1.00  0.00     0.197 C 
HETATM   17  O8  UNL     1      21.040  33.503   6.719  1.00  0.00    -0.646 OA
HETATM   18  O9  UNL     1      21.539  35.705   6.566  1.00  0.00    -0.646 OA
ENDBRANCH  10  16
ENDBRANCH   8  10
ENDBRANCH   1   8
BRANCH   2  19
HETATM   19  C7  UNL     1      18.825  33.014   9.567  1.00  0.00     0.317 C 
BRANCH  19  20
HETATM   20  O3  UNL     1      17.438  32.914   9.112  1.00  0.00    -0.365 OA
ATOM     21  H3  UNL     1      17.226  33.765   8.745  1.00  0.00     0.213 HD
ENDBRANCH  19  20
BRANCH  19  22
HETATM   22  O4  UNL     1      19.564  32.248   8.708  1.00  0.00    -0.360 OA
HETATM   23  C8  UNL     1      18.684  31.554   7.879  1.00  0.00     0.205 C 
ENDBRANCH  19  22
ENDBRANCH   2  19
BRANCH   4  24
HETATM   24  C10 UNL     1      20.547  36.566  12.271  1.00  0.00     0.276 C 
BRANCH  24  25
HETATM   25  O6  UNL     1      19.788  36.077  13.330  1.00  0.00    -0.371 OA
ATOM     26  H6  UNL     1      19.230  36.759  13.684  1.00  0.00     0.212 HD
ENDBRANCH  24  25
BRANCH  24  27
HETATM   27  N2  UNL     1      20.756  37.970  12.274  1.00  0.00    -0.358 N 
ATOM     28  H2  UNL     1      19.984  38.592  12.036  1.00  0.00     0.162 HD
BRANCH  27  29
HETATM   29  C11 UNL     1      22.048  38.536  12.611  1.00  0.00     0.037 A 
HETATM   30  C12 UNL     1      22.216  39.402  13.618  1.00  0.00     0.037 A 
HETATM   31  C13 UNL     1      23.479  39.880  13.850  1.00  0.00     0.052 A 
HETATM   32  S1  UNL     1      24.406  39.104  12.650  1.00  0.00    -0.111 SA
HETATM   33  C14 UNL     1      23.181  38.202  11.891  1.00  0.00     0.078 A 
ENDBRANCH  27  29
ENDBRANCH  24  27
ENDBRANCH   4  24
TORSDOF 13
ENDMDL
MODEL 4
REMARK VINA RESULT: -4.710619434      1.089      1.602
REMARK  13 active torsions:
REMARK  status: ('A' for Active; 'I' for Inactive)
REMARK    1  A    between atoms: O1_2  and  C2_3 
REMARK    2  A    between atoms: C2_3  and  C3_5 
REMARK    3  A    between atoms: C3_5  and  C4_6 
REMARK    4  A    between atoms: C4_6  and  N1_7 
REMARK    5  A    between atoms: C4_6  and  C17_31 
REMARK    6  A    between atoms: N1_7  and  C5_9 
REMARK    7  A    between atoms: C6_10  and  C7_11 
REMARK    8  A    between atoms: C7_11  and  O3_12 
REMARK    9  A    between atoms: C7_11  and  O4_14 
REMARK   10  A    between atoms: C9_17  and  C10_18 
REMARK   11  A    between atoms: C10_18  and  O6_19 
REMARK   12  A    between atoms: C10_18  and  N2_21 
REMARK   13  A    between atoms: N2_21  and  C11_23 
ROOT
HETATM    1  C5  UNL     1      19.851  35.447   8.629  1.00  0.00     0.114 A 
HETATM    2  C6  UNL     1      19.481  34.609   9.646  1.00  0.00     0.138 A 
HETATM    3  O5  UNL     1      19.457  35.150  10.872  1.00  0.00    -0.307 OA
HETATM    4  C9  UNL     1      19.757  36.380  11.117  1.00  0.00     0.105 A 
HETATM    5  C15 UNL     1      20.134  37.264  10.125  1.00  0.00     0.094 A 
HETATM    6  C16 UNL     1      20.184  36.789   8.839  1.00  0.00     0.203 A 
HETATM    7  O7  UNL     1      20.520  37.546   7.893  1.00  0.00    -0.286 OA
ENDROOT
BRANCH   1   8
HETATM    8  N1  UNL     1      19.964  34.950   7.324  1.00  0.00    -0.370 N 
ATOM      9  H1  UNL     1      20.888  34.653   7.009  1.00  0.00     0.160 HD
BRANCH   8  10
HETATM   10  C4  UNL     1      18.856  34.828   6.381  1.00  0.00     0.192 C 
BRANCH  10  11
HETATM   11  C3  UNL     1      17.868  35.929   6.464  1.00  0.00     0.147 C 
BRANCH  11  12
HETATM   12  C2  UNL     1      18.126  36.979   5.449  1.00  0.00     0.260 C 
HETATM   13  O2  UNL     1      19.098  37.772   5.537  1.00  0.00    -0.265 OA
BRANCH  12  14
HETATM   14  O1  UNL     1      17.290  37.121   4.348  1.00  0.00    -0.326 OA
HETATM   15  C1  UNL     1      15.892  37.047   4.399  1.00  0.00     0.213 C 
ENDBRANCH  12  14
ENDBRANCH  11  12
ENDBRANCH  10  11
BRANCH  10  16
HETATM   16  C17 UNL     1      19.363  34.689   5.009  1.00  0.00     0.197 C 
HETATM   17  O8  UNL     1      20.583  34.868   4.791  1.00  0.00    -0.646 OA
HETATM   18  O9  UNL     1      18.533  34.367   3.972  1.00  0.00    -0.646 OA
ENDBRANCH  10  16
ENDBRANCH   8  10
ENDBRANCH   1   8
BRANCH   2  19
HETATM   19  C7  UNL     1      19.101  33.199   9.552  1.00  0.00     0.317 C 
BRANCH  19  20
HETATM   20  O3  UNL     1      17.704  33.193   9.116  1.00  0.00    -0.365 OA
ATOM     21  H3  UNL     1      17.276  33.878   9.616  1.00  0.00     0.213 HD
ENDBRANCH  19  20
BRANCH  19  22
HETATM   22  O4  UNL     1      19.784  32.423   8.655  1.00  0.00    -0.360 OA
HETATM   23  C8  UNL     1      18.853  31.692   7.919  1.00  0.00     0.205 C 
ENDBRANCH  19  22
ENDBRANCH   2  19
BRANCH   4  24
HETATM   24  C10 UNL     1      19.706  36.906  12.516  1.00  0.00     0.276 C 
BRANCH  24  25
HETATM   25  O6  UNL     1      18.421  36.785  13.037  1.00  0.00    -0.371 OA
ATOM     26  H6  UNL     1      18.312  35.944  13.464  1.00  0.00     0.212 HD
ENDBRANCH  24  25
BRANCH  24  27
HETATM   27  N2  UNL     1      20.259  38.212  12.565  1.00  0.00    -0.358 N 
ATOM     28  H2  UNL     1      19.654  39.018  12.407  1.00  0.00     0.162 HD
BRANCH  27  29
HETATM   29  C11 UNL     1      21.668  38.423  12.837  1.00  0.00     0.037 A 
HETATM   30  C12 UNL     1      22.141  38.626  14.073  1.00  0.00     0.037 A 
HETATM   31  C13 UNL     1      23.490  38.818  14.220  1.00  0.00     0.052 A 
HETATM   32  S1  UNL     1      24.067  38.707  12.621  1.00  0.00    -0.111 SA
HETATM   33  C14 UNL     1      22.598  38.424  11.814  1.00  0.00     0.078 A 
ENDBRANCH  27  29
ENDBRANCH  24  27
ENDBRANCH   4  24
TORSDOF 13
ENDMDL
MODEL 5
REMARK VINA RESULT: -4.690975384      1.905      3.061
REMARK  13 active torsions:
REMARK  status: ('A' for Active; 'I' for Inactive)
REMARK    1  A    between atoms: O1_2  and  C2_3 
REMARK    2  A    between atoms: C2_3  and  C3_5 
REMARK    3  A    between atoms: C3_5  and  C4_6 
REMARK    4  A    between atoms: C4_6  and  N1_7 
REMARK    5  A    between atoms: C4_6  and  C17_31 
REMARK    6  A    between atoms: N1_7  and  C5_9 
REMARK    7  A    between atoms: C6_10  and  C7_11 
REMARK    8  A    between atoms: C7_11  and  O3_12 
REMARK    9  A    between atoms: C7_11  and  O4_14 
REMARK   10  A    between atoms: C9_17  and  C10_18 
REMARK   11  A    between atoms: C10_18  and  O6_19 
REMARK   12  A    between atoms: C10_18  and  N2_21 
REMARK   13  A    between atoms: N2_21  and  C11_23 
ROOT
HETATM    1  C5  UNL     1      19.411  36.161   9.927  1.00  0.00     0.114 A 
HETATM    2  C6  UNL     1      19.219  36.095  11.280  1.00  0.00     0.138 A 
HETATM    3  O5  UNL     1      20.158  36.683  12.034  1.00  0.00    -0.307 OA
HETATM    4  C9  UNL     1      21.191  37.284  11.551  1.00  0.00     0.105 A 
HETATM    5  C15 UNL     1      21.428  37.378  10.193  1.00  0.00     0.094 A 
HETATM    6  C16 UNL     1      20.513  36.800   9.350  1.00  0.00     0.203 A 
HETATM    7  O7  UNL     1      20.673  36.853   8.104  1.00  0.00    -0.286 OA
ENDROOT
BRANCH   1   8
HETATM    8  N1  UNL     1      18.513  35.518   9.064  1.00  0.00    -0.370 N 
ATOM      9  H1  UNL     1      17.520  35.716   9.183  1.00  0.00     0.160 HD
BRANCH   8  10
HETATM   10  C4  UNL     1      18.897  34.587   8.007  1.00  0.00     0.192 C 
BRANCH  10  11
HETATM   11  C3  UNL     1      19.555  35.229   6.845  1.00  0.00     0.147 C 
BRANCH  11  12
HETATM   12  C2  UNL     1      18.602  35.466   5.734  1.00  0.00     0.260 C 
HETATM   13  O2  UNL     1      18.764  34.964   4.593  1.00  0.00    -0.265 OA
BRANCH  12  14
HETATM   14  O1  UNL     1      17.479  36.264   5.922  1.00  0.00    -0.326 OA
HETATM   15  C1  UNL     1      16.785  36.912   4.893  1.00  0.00     0.213 C 
ENDBRANCH  12  14
ENDBRANCH  11  12
ENDBRANCH  10  11
BRANCH  10  16
HETATM   16  C17 UNL     1      19.740  33.513   8.552  1.00  0.00     0.197 C 
HETATM   17  O8  UNL     1      19.628  33.206   9.760  1.00  0.00    -0.646 OA
HETATM   18  O9  UNL     1      20.638  32.845   7.767  1.00  0.00    -0.646 OA
ENDBRANCH  10  16
ENDBRANCH   8  10
ENDBRANCH   1   8
BRANCH   2  19
HETATM   19  C7  UNL     1      18.109  35.468  11.999  1.00  0.00     0.317 C 
BRANCH  19  20
HETATM   20  O3  UNL     1      18.022  34.102  11.480  1.00  0.00    -0.365 OA
ATOM     21  H3  UNL     1      17.437  33.640  12.068  1.00  0.00     0.213 HD
ENDBRANCH  19  20
BRANCH  19  22
HETATM   22  O4  UNL     1      18.227  35.352  13.357  1.00  0.00    -0.360 OA
HETATM   23  C8  UNL     1      18.374  36.632  13.890  1.00  0.00     0.205 C 
ENDBRANCH  19  22
ENDBRANCH   2  19
BRANCH   4  24
HETATM   24  C10 UNL     1      22.194  37.915  12.463  1.00  0.00     0.276 C 
BRANCH  24  25
HETATM   25  O6  UNL     1      21.555  38.633  13.470  1.00  0.00    -0.371 OA
ATOM     26  H6  UNL     1      22.017  39.445  13.645  1.00  0.00     0.212 HD
ENDBRANCH  24  25
BRANCH  24  27
HETATM   27  N2  UNL     1      23.146  38.648  11.708  1.00  0.00    -0.358 N 
ATOM     28  H2  UNL     1      22.823  39.299  10.992  1.00  0.00     0.162 HD
BRANCH  27  29
HETATM   29  C11 UNL     1      24.570  38.489  11.935  1.00  0.00     0.037 A 
HETATM   30  C12 UNL     1      25.432  39.510  11.852  1.00  0.00     0.037 A 
HETATM   31  C13 UNL     1      26.757  39.251  12.082  1.00  0.00     0.052 A 
HETATM   32  S1  UNL     1      26.768  37.580  12.412  1.00  0.00    -0.111 SA
HETATM   33  C14 UNL     1      25.106  37.254  12.251  1.00  0.00     0.078 A 
ENDBRANCH  27  29
ENDBRANCH  24  27
ENDBRANCH   4  24
TORSDOF 13
ENDMDL
