MODEL 1
REMARK VINA RESULT: -6.141336356      0.000      0.000
REMARK  13 active torsions:
REMARK  status: ('A' for Active; 'I' for Inactive)
REMARK    1  A    between atoms: O1_2  and  C2_3 
REMARK    2  A    between atoms: C2_3  and  C3_4 
REMARK    3  A    between atoms: C3_4  and  O2_5 
REMARK    4  A    between atoms: O2_5  and  C4_6 
REMARK    5  A    between atoms: C4_6  and  O3_7 
REMARK    6  A    between atoms: C4_6  and  C5_9 
REMARK    7  A    between atoms: C6_11  and  N1_12 
REMARK    8  A    between atoms: N1_12  and  S1_14 
REMARK    9  A    between atoms: C7_18  and  N2_19 
REMARK   10  A    between atoms: N2_19  and  C8_21 
REMARK   11  A    between atoms: C8_21  and  C11_24 
REMARK   12  A    between atoms: C11_24  and  O8_26 
REMARK   13  A    between atoms: N3_30  and  O9_32 
ROOT
HETATM    1  C5  UNL     1      19.561  35.908  11.395  1.00  0.00     0.118 A 
HETATM    2  O4  UNL     1      18.940  34.792  11.015  1.00  0.00    -0.290 OA
HETATM    3  C6  UNL     1      19.173  34.492   9.778  1.00  0.00     0.186 A 
HETATM    4  C7  UNL     1      20.020  35.487   9.286  1.00  0.00     0.090 A 
HETATM    5  C14 UNL     1      20.264  36.377  10.308  1.00  0.00     0.004 A 
HETATM    6  C15 UNL     1      21.143  37.592  10.284  1.00  0.00     0.054 C 
ENDROOT
BRANCH   1   7
HETATM    7  C4  UNL     1      19.453  36.471  12.766  1.00  0.00     0.316 C 
BRANCH   7   8
HETATM    8  O2  UNL     1      20.635  36.572  13.446  1.00  0.00    -0.347 OA
BRANCH   8   9
HETATM    9  C3  UNL     1      20.876  37.753  14.097  1.00  0.00     0.257 C 
BRANCH   9  10
HETATM   10  C2  UNL     1      22.054  38.481  13.568  1.00  0.00     0.161 C 
HETATM   11  N3  UNL     1      21.868  39.552  12.890  1.00  0.00    -0.249 N 
ATOM     12  H3  UNL     1      22.668  40.065  12.518  1.00  0.00     0.196 HD
BRANCH  10  13
HETATM   13  O1  UNL     1      23.351  38.038  13.782  1.00  0.00    -0.341 OA
HETATM   14  C1  UNL     1      24.391  38.391  12.890  1.00  0.00     0.211 C 
ENDBRANCH  10  13
BRANCH  11  15
HETATM   15  O9  UNL     1      20.596  40.009  12.666  1.00  0.00    -0.288 OA
ATOM     16  H9  UNL     1      19.976  40.063  13.384  1.00  0.00     0.244 HD
ENDBRANCH  11  15
ENDBRANCH   9  10
ENDBRANCH   8   9
ENDBRANCH   7   8
BRANCH   7  17
HETATM   17  O3  UNL     1      19.002  37.828  12.629  1.00  0.00    -0.365 OA
ATOM     18  H3  UNL     1      18.443  37.815  11.860  1.00  0.00     0.213 HD
ENDBRANCH   7  17
ENDBRANCH   1   7
BRANCH   3  19
HETATM   19  N1  UNL     1      18.657  33.348   9.062  1.00  0.00    -0.243 N 
ATOM     20  H1  UNL     1      17.654  33.168   9.042  1.00  0.00     0.183 HD
BRANCH  19  21
HETATM   21  S1  UNL     1      19.735  32.294   8.246  1.00  0.00     0.210 S 
HETATM   22  O5  UNL     1      19.070  30.998   7.862  1.00  0.00    -0.578 OA
HETATM   23  O6  UNL     1      20.259  32.902   6.974  1.00  0.00    -0.578 OA
HETATM   24  O7  UNL     1      21.068  31.905   9.192  1.00  0.00    -0.578 OA
ENDBRANCH  19  21
ENDBRANCH   3  19
BRANCH   4  25
HETATM   25  N2  UNL     1      20.498  35.524   7.966  1.00  0.00    -0.375 N 
ATOM     26  H2  UNL     1      21.420  35.105   7.847  1.00  0.00     0.160 HD
BRANCH  25  27
HETATM   27  C8  UNL     1      19.939  36.031   6.778  1.00  0.00     0.049 C 
HETATM   28  C9  UNL     1      20.878  35.672   5.607  1.00  0.00     0.041 C 
HETATM   29  C10 UNL     1      19.978  37.582   6.748  1.00  0.00     0.041 C 
BRANCH  27  30
HETATM   30  C11 UNL     1      18.576  35.568   6.373  1.00  0.00     0.144 C 
HETATM   31  C12 UNL     1      17.451  36.491   6.799  1.00  0.00     0.042 C 
BRANCH  30  32
HETATM   32  O8  UNL     1      18.599  35.491   4.965  1.00  0.00    -0.389 OA
HETATM   33  C13 UNL     1      17.535  36.133   4.389  1.00  0.00     0.202 C 
ENDBRANCH  30  32
ENDBRANCH  27  30
ENDBRANCH  25  27
ENDBRANCH   4  25
TORSDOF 13
ENDMDL
MODEL 2
REMARK VINA RESULT: -5.581947808      0.978      1.272
REMARK  13 active torsions:
REMARK  status: ('A' for Active; 'I' for Inactive)
REMARK    1  A    between atoms: O1_2  and  C2_3 
REMARK    2  A    between atoms: C2_3  and  C3_4 
REMARK    3  A    between atoms: C3_4  and  O2_5 
REMARK    4  A    between atoms: O2_5  and  C4_6 
REMARK    5  A    between atoms: C4_6  and  O3_7 
REMARK    6  A    between atoms: C4_6  and  C5_9 
REMARK    7  A    between atoms: C6_11  and  N1_12 
REMARK    8  A    between atoms: N1_12  and  S1_14 
REMARK    9  A    between atoms: C7_18  and  N2_19 
REMARK   10  A    between atoms: N2_19  and  C8_21 
REMARK   11  A    between atoms: C8_21  and  C11_24 
REMARK   12  A    between atoms: C11_24  and  O8_26 
REMARK   13  A    between atoms: N3_30  and  O9_32 
ROOT
HETATM    1  C5  UNL     1      19.742  35.968  10.988  1.00  0.00     0.118 A 
HETATM    2  O4  UNL     1      19.247  34.740  10.843  1.00  0.00    -0.290 OA
HETATM    3  C6  UNL     1      19.105  34.406   9.601  1.00  0.00     0.186 A 
HETATM    4  C7  UNL     1      19.538  35.500   8.849  1.00  0.00     0.090 A 
HETATM    5  C14 UNL     1      19.942  36.482   9.726  1.00  0.00     0.004 A 
HETATM    6  C15 UNL     1      20.521  37.827   9.403  1.00  0.00     0.054 C 
ENDROOT
BRANCH   1   7
HETATM    7  C4  UNL     1      19.997  36.590  12.313  1.00  0.00     0.316 C 
BRANCH   7   8
HETATM    8  O2  UNL     1      21.234  37.153  12.461  1.00  0.00    -0.347 OA
BRANCH   8   9
HETATM    9  C3  UNL     1      21.274  38.485  12.781  1.00  0.00     0.257 C 
BRANCH   9  10
HETATM   10  C2  UNL     1      22.642  38.973  13.074  1.00  0.00     0.161 C 
HETATM   11  N3  UNL     1      22.788  40.133  13.599  1.00  0.00    -0.249 N 
ATOM     12  H3  UNL     1      23.723  40.484  13.807  1.00  0.00     0.196 HD
BRANCH  10  13
HETATM   13  O1  UNL     1      23.770  38.214  12.797  1.00  0.00    -0.341 OA
HETATM   14  C1  UNL     1      24.982  38.837  12.412  1.00  0.00     0.211 C 
ENDBRANCH  10  13
BRANCH  11  15
HETATM   15  O9  UNL     1      21.688  40.900  13.882  1.00  0.00    -0.288 OA
ATOM     16  H9  UNL     1      21.396  40.999  14.780  1.00  0.00     0.244 HD
ENDBRANCH  11  15
ENDBRANCH   9  10
ENDBRANCH   8   9
ENDBRANCH   7   8
BRANCH   7  17
HETATM   17  O3  UNL     1      19.084  37.692  12.443  1.00  0.00    -0.365 OA
ATOM     18  H3  UNL     1      18.266  37.290  12.712  1.00  0.00     0.213 HD
ENDBRANCH   7  17
ENDBRANCH   1   7
BRANCH   3  19
HETATM   19  N1  UNL     1      18.600  33.147   9.104  1.00  0.00    -0.243 N 
ATOM     20  H1  UNL     1      17.663  32.836   9.360  1.00  0.00     0.183 HD
BRANCH  19  21
HETATM   21  S1  UNL     1      19.579  32.177   8.085  1.00  0.00     0.210 S 
HETATM   22  O5  UNL     1      18.933  30.849   7.785  1.00  0.00    -0.578 OA
HETATM   23  O6  UNL     1      19.836  32.839   6.759  1.00  0.00    -0.578 OA
HETATM   24  O7  UNL     1      21.077  31.855   8.775  1.00  0.00    -0.578 OA
ENDBRANCH  19  21
ENDBRANCH   3  19
BRANCH   4  25
HETATM   25  N2  UNL     1      19.532  35.535   7.445  1.00  0.00    -0.375 N 
ATOM     26  H2  UNL     1      20.306  35.030   7.014  1.00  0.00     0.160 HD
BRANCH  25  27
HETATM   27  C8  UNL     1      18.655  36.138   6.524  1.00  0.00     0.049 C 
HETATM   28  C9  UNL     1      19.334  37.404   5.961  1.00  0.00     0.041 C 
HETATM   29  C10 UNL     1      17.410  36.736   7.231  1.00  0.00     0.041 C 
BRANCH  27  30
HETATM   30  C11 UNL     1      18.209  35.345   5.336  1.00  0.00     0.144 C 
HETATM   31  C12 UNL     1      17.215  36.063   4.444  1.00  0.00     0.042 C 
BRANCH  30  32
HETATM   32  O8  UNL     1      19.377  35.073   4.595  1.00  0.00    -0.389 OA
HETATM   33  C13 UNL     1      19.104  34.695   3.307  1.00  0.00     0.202 C 
ENDBRANCH  30  32
ENDBRANCH  27  30
ENDBRANCH  25  27
ENDBRANCH   4  25
TORSDOF 13
ENDMDL
MODEL 3
REMARK VINA RESULT: -5.559908470      0.718      1.277
REMARK  13 active torsions:
REMARK  status: ('A' for Active; 'I' for Inactive)
REMARK    1  A    between atoms: O1_2  and  C2_3 
REMARK    2  A    between atoms: C2_3  and  C3_4 
REMARK    3  A    between atoms: C3_4  and  O2_5 
REMARK    4  A    between atoms: O2_5  and  C4_6 
REMARK    5  A    between atoms: C4_6  and  O3_7 
REMARK    6  A    between atoms: C4_6  and  C5_9 
REMARK    7  A    between atoms: C6_11  and  N1_12 
REMARK    8  A    between atoms: N1_12  and  S1_14 
REMARK    9  A    between atoms: C7_18  and  N2_19 
REMARK   10  A    between atoms: N2_19  and  C8_21 
REMARK   11  A    between atoms: C8_21  and  C11_24 
REMARK   12  A    between atoms: C11_24  and  O8_26 
REMARK   13  A    between atoms: N3_30  and  O9_32 
ROOT
HETATM    1  C5  UNL     1      19.673  35.973  11.406  1.00  0.00     0.118 A 
HETATM    2  O4  UNL     1      19.110  34.807  11.090  1.00  0.00    -0.290 OA
HETATM    3  C6  UNL     1      19.189  34.545   9.826  1.00  0.00     0.186 A 
HETATM    4  C7  UNL     1      19.859  35.623   9.242  1.00  0.00     0.090 A 
HETATM    5  C14 UNL     1      20.165  36.520  10.241  1.00  0.00     0.004 A 
HETATM    6  C15 UNL     1      20.914  37.813  10.122  1.00  0.00     0.054 C 
ENDROOT
BRANCH   1   7
HETATM    7  C4  UNL     1      19.714  36.507  12.792  1.00  0.00     0.316 C 
BRANCH   7   8
HETATM    8  O2  UNL     1      20.957  36.850  13.245  1.00  0.00    -0.347 OA
BRANCH   8   9
HETATM    9  C3  UNL     1      21.145  38.158  13.608  1.00  0.00     0.257 C 
BRANCH   9  10
HETATM   10  C2  UNL     1      22.461  38.695  13.190  1.00  0.00     0.161 C 
HETATM   11  N3  UNL     1      22.727  39.929  13.414  1.00  0.00    -0.249 N 
ATOM     12  H3  UNL     1      23.628  40.316  13.132  1.00  0.00     0.196 HD
BRANCH  10  13
HETATM   13  O1  UNL     1      23.413  37.907  12.562  1.00  0.00    -0.341 OA
HETATM   14  C1  UNL     1      24.775  38.294  12.546  1.00  0.00     0.211 C 
ENDBRANCH  10  13
BRANCH  11  15
HETATM   15  O9  UNL     1      21.801  40.728  14.034  1.00  0.00    -0.288 OA
ATOM     16  H9  UNL     1      21.282  41.337  13.522  1.00  0.00     0.244 HD
ENDBRANCH  11  15
ENDBRANCH   9  10
ENDBRANCH   8   9
ENDBRANCH   7   8
BRANCH   7  17
HETATM   17  O3  UNL     1      18.981  37.743  12.787  1.00  0.00    -0.365 OA
ATOM     18  H3  UNL     1      19.619  38.396  12.523  1.00  0.00     0.213 HD
ENDBRANCH   7  17
ENDBRANCH   1   7
BRANCH   3  19
HETATM   19  N1  UNL     1      18.683  33.366   9.162  1.00  0.00    -0.243 N 
ATOM     20  H1  UNL     1      17.687  33.149   9.195  1.00  0.00     0.183 HD
BRANCH  19  21
HETATM   21  S1  UNL     1      19.760  32.331   8.320  1.00  0.00     0.210 S 
HETATM   22  O5  UNL     1      19.088  31.055   7.885  1.00  0.00    -0.578 OA
HETATM   23  O6  UNL     1      20.301  32.979   7.075  1.00  0.00    -0.578 OA
HETATM   24  O7  UNL     1      21.081  31.899   9.265  1.00  0.00    -0.578 OA
ENDBRANCH  19  21
ENDBRANCH   3  19
BRANCH   4  25
HETATM   25  N2  UNL     1      20.135  35.720   7.870  1.00  0.00    -0.375 N 
ATOM     26  H2  UNL     1      21.041  35.336   7.600  1.00  0.00     0.160 HD
BRANCH  25  27
HETATM   27  C8  UNL     1      19.393  36.248   6.796  1.00  0.00     0.049 C 
HETATM   28  C9  UNL     1      19.591  37.778   6.773  1.00  0.00     0.041 C 
HETATM   29  C10 UNL     1      17.866  36.133   7.049  1.00  0.00     0.041 C 
BRANCH  27  30
HETATM   30  C11 UNL     1      19.697  35.771   5.412  1.00  0.00     0.144 C 
HETATM   31  C12 UNL     1      21.083  35.178   5.247  1.00  0.00     0.042 C 
BRANCH  30  32
HETATM   32  O8  UNL     1      18.737  34.780   5.126  1.00  0.00    -0.389 OA
HETATM   33  C13 UNL     1      18.329  34.807   3.819  1.00  0.00     0.202 C 
ENDBRANCH  30  32
ENDBRANCH  27  30
ENDBRANCH  25  27
ENDBRANCH   4  25
TORSDOF 13
ENDMDL
MODEL 4
REMARK VINA RESULT: -5.316212350      0.921      1.395
REMARK  13 active torsions:
REMARK  status: ('A' for Active; 'I' for Inactive)
REMARK    1  A    between atoms: O1_2  and  C2_3 
REMARK    2  A    between atoms: C2_3  and  C3_4 
REMARK    3  A    between atoms: C3_4  and  O2_5 
REMARK    4  A    between atoms: O2_5  and  C4_6 
REMARK    5  A    between atoms: C4_6  and  O3_7 
REMARK    6  A    between atoms: C4_6  and  C5_9 
REMARK    7  A    between atoms: C6_11  and  N1_12 
REMARK    8  A    between atoms: N1_12  and  S1_14 
REMARK    9  A    between atoms: C7_18  and  N2_19 
REMARK   10  A    between atoms: N2_19  and  C8_21 
REMARK   11  A    between atoms: C8_21  and  C11_24 
REMARK   12  A    between atoms: C11_24  and  O8_26 
REMARK   13  A    between atoms: N3_30  and  O9_32 
ROOT
HETATM    1  C5  UNL     1      19.450  35.930  11.285  1.00  0.00     0.118 A 
HETATM    2  O4  UNL     1      18.865  34.787  10.930  1.00  0.00    -0.290 OA
HETATM    3  C6  UNL     1      19.127  34.456   9.707  1.00  0.00     0.186 A 
HETATM    4  C7  UNL     1      19.954  35.459   9.197  1.00  0.00     0.090 A 
HETATM    5  C14 UNL     1      20.157  36.386  10.195  1.00  0.00     0.004 A 
HETATM    6  C15 UNL     1      21.003  37.622  10.147  1.00  0.00     0.054 C 
ENDROOT
BRANCH   1   7
HETATM    7  C4  UNL     1      19.305  36.531  12.636  1.00  0.00     0.316 C 
BRANCH   7   8
HETATM    8  O2  UNL     1      20.158  37.564  12.906  1.00  0.00    -0.347 OA
BRANCH   8   9
HETATM    9  C3  UNL     1      21.253  37.277  13.678  1.00  0.00     0.257 C 
BRANCH   9  10
HETATM   10  C2  UNL     1      22.197  38.414  13.795  1.00  0.00     0.161 C 
HETATM   11  N3  UNL     1      23.102  38.564  12.900  1.00  0.00    -0.249 N 
ATOM     12  H3  UNL     1      23.760  39.340  12.965  1.00  0.00     0.196 HD
BRANCH  10  13
HETATM   13  O1  UNL     1      22.132  39.321  14.843  1.00  0.00    -0.341 OA
HETATM   14  C1  UNL     1      22.777  40.577  14.751  1.00  0.00     0.211 C 
ENDBRANCH  10  13
BRANCH  11  15
HETATM   15  O9  UNL     1      23.185  37.681  11.855  1.00  0.00    -0.288 OA
ATOM     16  H9  UNL     1      23.476  36.789  12.008  1.00  0.00     0.244 HD
ENDBRANCH  11  15
ENDBRANCH   9  10
ENDBRANCH   8   9
ENDBRANCH   7   8
BRANCH   7  17
HETATM   17  O3  UNL     1      17.997  37.122  12.695  1.00  0.00    -0.365 OA
ATOM     18  H3  UNL     1      17.401  36.390  12.582  1.00  0.00     0.213 HD
ENDBRANCH   7  17
ENDBRANCH   1   7
BRANCH   3  19
HETATM   19  N1  UNL     1      18.653  33.277   9.018  1.00  0.00    -0.243 N 
ATOM     20  H1  UNL     1      17.656  33.068   8.990  1.00  0.00     0.183 HD
BRANCH  19  21
HETATM   21  S1  UNL     1      19.772  32.231   8.248  1.00  0.00     0.210 S 
HETATM   22  O5  UNL     1      20.298  32.819   6.963  1.00  0.00    -0.578 OA
HETATM   23  O6  UNL     1      20.969  31.953   9.115  1.00  0.00    -0.578 OA
HETATM   24  O7  UNL     1      19.083  30.746   7.867  1.00  0.00    -0.578 OA
ENDBRANCH  19  21
ENDBRANCH   3  19
BRANCH   4  25
HETATM   25  N2  UNL     1      20.452  35.469   7.884  1.00  0.00    -0.375 N 
ATOM     26  H2  UNL     1      21.358  35.011   7.780  1.00  0.00     0.160 HD
BRANCH  25  27
HETATM   27  C8  UNL     1      19.932  35.993   6.686  1.00  0.00     0.049 C 
HETATM   28  C9  UNL     1      20.936  35.702   5.551  1.00  0.00     0.041 C 
HETATM   29  C10 UNL     1      19.918  37.544   6.702  1.00  0.00     0.041 C 
BRANCH  27  30
HETATM   30  C11 UNL     1      18.607  35.496   6.202  1.00  0.00     0.144 C 
HETATM   31  C12 UNL     1      17.530  36.562   6.129  1.00  0.00     0.042 C 
BRANCH  30  32
HETATM   32  O8  UNL     1      18.836  34.985   4.908  1.00  0.00    -0.389 OA
HETATM   33  C13 UNL     1      17.896  35.407   4.006  1.00  0.00     0.202 C 
ENDBRANCH  30  32
ENDBRANCH  27  30
ENDBRANCH  25  27
ENDBRANCH   4  25
TORSDOF 13
ENDMDL
MODEL 5
REMARK VINA RESULT: -5.231529071      1.137      1.255
REMARK  13 active torsions:
REMARK  status: ('A' for Active; 'I' for Inactive)
REMARK    1  A    between atoms: O1_2  and  C2_3 
REMARK    2  A    between atoms: C2_3  and  C3_4 
REMARK    3  A    between atoms: C3_4  and  O2_5 
REMARK    4  A    between atoms: O2_5  and  C4_6 
REMARK    5  A    between atoms: C4_6  and  O3_7 
REMARK    6  A    between atoms: C4_6  and  C5_9 
REMARK    7  A    between atoms: C6_11  and  N1_12 
REMARK    8  A    between atoms: N1_12  and  S1_14 
REMARK    9  A    between atoms: C7_18  and  N2_19 
REMARK   10  A    between atoms: N2_19  and  C8_21 
REMARK   11  A    between atoms: C8_21  and  C11_24 
REMARK   12  A    between atoms: C11_24  and  O8_26 
REMARK   13  A    between atoms: N3_30  and  O9_32 
ROOT
HETATM    1  C5  UNL     1      19.879  35.888  11.101  1.00  0.00     0.118 A 
HETATM    2  O4  UNL     1      19.484  34.626  10.942  1.00  0.00    -0.290 OA
HETATM    3  C6  UNL     1      19.015  34.399   9.758  1.00  0.00     0.186 A 
HETATM    4  C7  UNL     1      19.100  35.607   9.063  1.00  0.00     0.090 A 
HETATM    5  C14 UNL     1      19.647  36.544   9.912  1.00  0.00     0.004 A 
HETATM    6  C15 UNL     1      19.973  37.977   9.617  1.00  0.00     0.054 C 
ENDROOT
BRANCH   1   7
HETATM    7  C4  UNL     1      20.452  36.407  12.370  1.00  0.00     0.316 C 
BRANCH   7   8
HETATM    8  O2  UNL     1      21.584  37.160  12.230  1.00  0.00    -0.347 OA
BRANCH   8   9
HETATM    9  C3  UNL     1      21.619  38.356  12.899  1.00  0.00     0.257 C 
BRANCH   9  10
HETATM   10  C2  UNL     1      22.991  38.894  13.057  1.00  0.00     0.161 C 
HETATM   11  N3  UNL     1      23.149  40.030  13.629  1.00  0.00    -0.249 N 
ATOM     12  H3  UNL     1      24.085  40.416  13.746  1.00  0.00     0.196 HD
BRANCH  10  13
HETATM   13  O1  UNL     1      24.108  38.208  12.607  1.00  0.00    -0.341 OA
HETATM   14  C1  UNL     1      25.315  38.895  12.331  1.00  0.00     0.211 C 
ENDBRANCH  10  13
BRANCH  11  15
HETATM   15  O9  UNL     1      22.059  40.726  14.083  1.00  0.00    -0.288 OA
ATOM     16  H9  UNL     1      22.124  41.248  14.874  1.00  0.00     0.244 HD
ENDBRANCH  11  15
ENDBRANCH   9  10
ENDBRANCH   8   9
ENDBRANCH   7   8
BRANCH   7  17
HETATM   17  O3  UNL     1      19.486  37.313  12.928  1.00  0.00    -0.365 OA
ATOM     18  H3  UNL     1      18.975  37.604  12.181  1.00  0.00     0.213 HD
ENDBRANCH   7  17
ENDBRANCH   1   7
BRANCH   3  19
HETATM   19  N1  UNL     1      18.510  33.139   9.264  1.00  0.00    -0.243 N 
ATOM     20  H1  UNL     1      17.599  32.798   9.570  1.00  0.00     0.183 HD
BRANCH  19  21
HETATM   21  S1  UNL     1      19.446  32.217   8.162  1.00  0.00     0.210 S 
HETATM   22  O5  UNL     1      18.819  30.876   7.878  1.00  0.00    -0.578 OA
HETATM   23  O6  UNL     1      19.597  32.911   6.836  1.00  0.00    -0.578 OA
HETATM   24  O7  UNL     1      20.995  31.926   8.745  1.00  0.00    -0.578 OA
ENDBRANCH  19  21
ENDBRANCH   3  19
BRANCH   4  25
HETATM   25  N2  UNL     1      18.677  35.777   7.736  1.00  0.00    -0.375 N 
ATOM     26  H2  UNL     1      17.693  35.559   7.583  1.00  0.00     0.160 HD
BRANCH  25  27
HETATM   27  C8  UNL     1      19.361  36.191   6.577  1.00  0.00     0.049 C 
HETATM   28  C9  UNL     1      20.615  35.309   6.408  1.00  0.00     0.041 C 
HETATM   29  C10 UNL     1      19.989  37.598   6.759  1.00  0.00     0.041 C 
BRANCH  27  30
HETATM   30  C11 UNL     1      18.642  36.142   5.266  1.00  0.00     0.144 C 
HETATM   31  C12 UNL     1      18.837  34.851   4.496  1.00  0.00     0.042 C 
BRANCH  30  32
HETATM   32  O8  UNL     1      17.274  36.293   5.572  1.00  0.00    -0.389 OA
HETATM   33  C13 UNL     1      16.592  36.972   4.597  1.00  0.00     0.202 C 
ENDBRANCH  30  32
ENDBRANCH  27  30
ENDBRANCH  25  27
ENDBRANCH   4  25
TORSDOF 13
ENDMDL
