MODEL 1
REMARK VINA RESULT: 1.270239749      0.000      0.000
REMARK  13 active torsions:
REMARK  status: ('A' for Active; 'I' for Inactive)
REMARK    1  A    between atoms: O1_2  and  C2_3 
REMARK    2  A    between atoms: C6_8  and  O2_9 
REMARK    3  A    between atoms: C9_12  and  N2_13 
REMARK    4  A    between atoms: N2_13  and  C10_15 
REMARK    5  A    between atoms: C10_15  and  C11_16 
REMARK    6  A    between atoms: C10_15  and  C12_19 
REMARK    7  A    between atoms: C11_16  and  O3_17 
REMARK    8  A    between atoms: C12_19  and  O4_20 
REMARK    9  A    between atoms: C13_22  and  N3_23 
REMARK   10  A    between atoms: N3_23  and  C14_25 
REMARK   11  A    between atoms: C14_25  and  O5_26 
REMARK   12  A    between atoms: C14_25  and  C15_28 
REMARK   13  A    between atoms: C15_28  and  O6_30 
ROOT
HETATM    1  C2  UNL     1      20.828  37.617  10.902  1.00  0.00     0.104 A 
HETATM    2  C3  UNL     1      20.157  37.536  12.092  1.00  0.00     0.065 A 
HETATM    3  C4  UNL     1      19.174  36.581  12.255  1.00  0.00     0.081 A 
HETATM    4  C5  UNL     1      18.445  36.489  13.472  1.00  0.00     0.102 C 
HETATM    5  N1  UNL     1      17.849  36.442  14.472  1.00  0.00    -0.191 NA
HETATM    6  C6  UNL     1      18.854  35.696  11.232  1.00  0.00     0.104 A 
HETATM    7  C8  UNL     1      19.509  35.772  10.043  1.00  0.00     0.065 A 
HETATM    8  C9  UNL     1      19.256  34.958   8.926  1.00  0.00     0.077 A 
HETATM    9  C13 UNL     1      19.973  35.121   7.757  1.00  0.00     0.134 A 
HETATM   10  C18 UNL     1      20.955  36.124   7.728  1.00  0.00     0.317 A 
HETATM   11  O7  UNL     1      21.594  36.235   6.636  1.00  0.00    -0.257 OA
HETATM   12  O8  UNL     1      21.171  36.864   8.751  1.00  0.00    -0.270 OA
HETATM   13  C19 UNL     1      20.515  36.745   9.871  1.00  0.00     0.128 A 
ENDROOT
BRANCH   6  14
HETATM   14  O2  UNL     1      17.870  34.749  11.466  1.00  0.00    -0.353 OA
HETATM   15  C7  UNL     1      18.204  33.563  12.197  1.00  0.00     0.210 C 
ENDBRANCH   6  14
BRANCH   1  16
HETATM   16  O1  UNL     1      21.822  38.552  10.688  1.00  0.00    -0.353 OA
HETATM   17  C1  UNL     1      22.797  38.752  11.697  1.00  0.00     0.210 C 
ENDBRANCH   1  16
BRANCH   8  18
HETATM   18  N2  UNL     1      18.191  34.050   8.950  1.00  0.00    -0.378 N 
ATOM     19  H2  UNL     1      17.268  34.477   9.016  1.00  0.00     0.160 HD
BRANCH  18  20
HETATM   20  C10 UNL     1      18.187  32.618   8.898  1.00  0.00     0.129 C 
BRANCH  20  21
HETATM   21  C11 UNL     1      19.284  32.008   8.046  1.00  0.00     0.191 C 
BRANCH  21  22
HETATM   22  O3  UNL     1      20.531  31.974   8.529  1.00  0.00    -0.399 OA
ATOM     23  H3  UNL     1      20.766  31.286   9.140  1.00  0.00     0.209 HD
ENDBRANCH  21  22
ENDBRANCH  20  21
BRANCH  20  24
HETATM   24  C12 UNL     1      16.855  31.978   8.627  1.00  0.00     0.191 C 
BRANCH  24  25
HETATM   25  O4  UNL     1      17.019  30.770   7.917  1.00  0.00    -0.399 OA
ATOM     26  H4  UNL     1      16.183  30.458   7.590  1.00  0.00     0.209 HD
ENDBRANCH  24  25
ENDBRANCH  20  24
ENDBRANCH  18  20
ENDBRANCH   8  18
BRANCH   9  27
HETATM   27  N3  UNL     1      19.768  34.407   6.542  1.00  0.00    -0.355 N 
ATOM     28  H3  UNL     1      20.351  33.605   6.302  1.00  0.00     0.162 HD
BRANCH  27  29
HETATM   29  C14 UNL     1      18.719  34.845   5.662  1.00  0.00     0.247 C 
BRANCH  29  30
HETATM   30  O5  UNL     1      19.048  34.720   4.321  1.00  0.00    -0.374 OA
ATOM     31  H5  UNL     1      19.980  34.810   4.157  1.00  0.00     0.212 HD
ENDBRANCH  29  30
BRANCH  29  32
HETATM   32  C15 UNL     1      18.249  36.246   5.960  1.00  0.00     0.165 C 
HETATM   33  C16 UNL     1      18.797  37.263   5.008  1.00  0.00     0.044 C 
BRANCH  32  34
HETATM   34  O6  UNL     1      16.876  36.337   5.964  1.00  0.00    -0.387 OA
HETATM   35  C17 UNL     1      16.389  36.972   4.807  1.00  0.00     0.202 C 
ENDBRANCH  32  34
ENDBRANCH  29  32
ENDBRANCH  27  29
ENDBRANCH   9  27
TORSDOF 13
ENDMDL
MODEL 2
REMARK VINA RESULT: 1.735072634      1.755      2.388
REMARK  13 active torsions:
REMARK  status: ('A' for Active; 'I' for Inactive)
REMARK    1  A    between atoms: O1_2  and  C2_3 
REMARK    2  A    between atoms: C6_8  and  O2_9 
REMARK    3  A    between atoms: C9_12  and  N2_13 
REMARK    4  A    between atoms: N2_13  and  C10_15 
REMARK    5  A    between atoms: C10_15  and  C11_16 
REMARK    6  A    between atoms: C10_15  and  C12_19 
REMARK    7  A    between atoms: C11_16  and  O3_17 
REMARK    8  A    between atoms: C12_19  and  O4_20 
REMARK    9  A    between atoms: C13_22  and  N3_23 
REMARK   10  A    between atoms: N3_23  and  C14_25 
REMARK   11  A    between atoms: C14_25  and  O5_26 
REMARK   12  A    between atoms: C14_25  and  C15_28 
REMARK   13  A    between atoms: C15_28  and  O6_30 
ROOT
HETATM    1  C2  UNL     1      22.222  38.390  11.666  1.00  0.00     0.104 A 
HETATM    2  C3  UNL     1      22.093  38.405  13.029  1.00  0.00     0.065 A 
HETATM    3  C4  UNL     1      21.127  37.624  13.630  1.00  0.00     0.081 A 
HETATM    4  C5  UNL     1      20.956  37.638  15.041  1.00  0.00     0.102 C 
HETATM    5  N1  UNL     1      20.822  37.676  16.198  1.00  0.00    -0.191 NA
HETATM    6  C6  UNL     1      20.282  36.819  12.875  1.00  0.00     0.104 A 
HETATM    7  C8  UNL     1      20.396  36.801  11.520  1.00  0.00     0.065 A 
HETATM    8  C9  UNL     1      19.584  36.056  10.650  1.00  0.00     0.077 A 
HETATM    9  C13 UNL     1      19.775  36.114   9.283  1.00  0.00     0.134 A 
HETATM   10  C18 UNL     1      20.803  36.941   8.802  1.00  0.00     0.317 A 
HETATM   11  O7  UNL     1      20.947  36.959   7.541  1.00  0.00    -0.257 OA
HETATM   12  O8  UNL     1      21.532  37.621   9.607  1.00  0.00    -0.270 OA
HETATM   13  C19 UNL     1      21.382  37.597  10.902  1.00  0.00     0.128 A 
ENDROOT
BRANCH   6  14
HETATM   14  O2  UNL     1      19.345  36.045  13.541  1.00  0.00    -0.353 OA
HETATM   15  C7  UNL     1      18.121  36.650  13.973  1.00  0.00     0.210 C 
ENDBRANCH   6  14
BRANCH   1  16
HETATM   16  O1  UNL     1      23.174  39.151  11.015  1.00  0.00    -0.353 OA
HETATM   17  C1  UNL     1      24.412  39.391  11.663  1.00  0.00     0.210 C 
ENDBRANCH   1  16
BRANCH   8  18
HETATM   18  N2  UNL     1      18.494  35.337  11.154  1.00  0.00    -0.378 N 
ATOM     19  H2  UNL     1      17.735  35.912  11.518  1.00  0.00     0.160 HD
BRANCH  18  20
HETATM   20  C10 UNL     1      18.271  33.923  11.243  1.00  0.00     0.129 C 
BRANCH  20  21
HETATM   21  C11 UNL     1      19.513  33.070  11.070  1.00  0.00     0.191 C 
BRANCH  21  22
HETATM   22  O3  UNL     1      20.031  32.927   9.845  1.00  0.00    -0.399 OA
ATOM     23  H3  UNL     1      20.974  32.961   9.740  1.00  0.00     0.209 HD
ENDBRANCH  21  22
ENDBRANCH  20  21
BRANCH  20  24
HETATM   24  C12 UNL     1      17.118  33.392  10.440  1.00  0.00     0.191 C 
BRANCH  24  25
HETATM   25  O4  UNL     1      17.544  33.011   9.150  1.00  0.00    -0.399 OA
ATOM     26  H4  UNL     1      17.513  33.751   8.556  1.00  0.00     0.209 HD
ENDBRANCH  24  25
ENDBRANCH  20  24
ENDBRANCH  18  20
ENDBRANCH   8  18
BRANCH   9  27
HETATM   27  N3  UNL     1      18.981  35.460   8.297  1.00  0.00    -0.355 N 
ATOM     28  H3  UNL     1      18.911  34.443   8.273  1.00  0.00     0.162 HD
BRANCH  27  29
HETATM   29  C14 UNL     1      18.283  36.271   7.336  1.00  0.00     0.247 C 
BRANCH  29  30
HETATM   30  O5  UNL     1      16.905  36.220   7.483  1.00  0.00    -0.374 OA
ATOM     31  H5  UNL     1      16.495  35.581   6.912  1.00  0.00     0.212 HD
ENDBRANCH  29  30
BRANCH  29  32
HETATM   32  C15 UNL     1      18.673  35.962   5.914  1.00  0.00     0.165 C 
HETATM   33  C16 UNL     1      19.274  34.600   5.753  1.00  0.00     0.044 C 
BRANCH  32  34
HETATM   34  O6  UNL     1      17.607  36.079   5.052  1.00  0.00    -0.387 OA
HETATM   35  C17 UNL     1      17.858  35.455   3.817  1.00  0.00     0.202 C 
ENDBRANCH  32  34
ENDBRANCH  29  32
ENDBRANCH  27  29
ENDBRANCH   9  27
TORSDOF 13
ENDMDL
MODEL 3
REMARK VINA RESULT: 2.125803633      1.328      1.738
REMARK  13 active torsions:
REMARK  status: ('A' for Active; 'I' for Inactive)
REMARK    1  A    between atoms: O1_2  and  C2_3 
REMARK    2  A    between atoms: C6_8  and  O2_9 
REMARK    3  A    between atoms: C9_12  and  N2_13 
REMARK    4  A    between atoms: N2_13  and  C10_15 
REMARK    5  A    between atoms: C10_15  and  C11_16 
REMARK    6  A    between atoms: C10_15  and  C12_19 
REMARK    7  A    between atoms: C11_16  and  O3_17 
REMARK    8  A    between atoms: C12_19  and  O4_20 
REMARK    9  A    between atoms: C13_22  and  N3_23 
REMARK   10  A    between atoms: N3_23  and  C14_25 
REMARK   11  A    between atoms: C14_25  and  O5_26 
REMARK   12  A    between atoms: C14_25  and  C15_28 
REMARK   13  A    between atoms: C15_28  and  O6_30 
ROOT
HETATM    1  C2  UNL     1      20.093  37.694  11.465  1.00  0.00     0.104 A 
HETATM    2  C3  UNL     1      19.673  37.055  12.601  1.00  0.00     0.065 A 
HETATM    3  C4  UNL     1      19.104  35.802  12.504  1.00  0.00     0.081 A 
HETATM    4  C5  UNL     1      18.638  35.125  13.664  1.00  0.00     0.102 C 
HETATM    5  N1  UNL     1      18.248  34.595  14.626  1.00  0.00    -0.191 NA
HETATM    6  C6  UNL     1      18.951  35.173  11.274  1.00  0.00     0.104 A 
HETATM    7  C8  UNL     1      19.358  35.802  10.139  1.00  0.00     0.065 A 
HETATM    8  C9  UNL     1      19.230  35.286   8.839  1.00  0.00     0.077 A 
HETATM    9  C13 UNL     1      19.668  36.009   7.747  1.00  0.00     0.134 A 
HETATM   10  C18 UNL     1      20.240  37.269   7.984  1.00  0.00     0.317 A 
HETATM   11  O7  UNL     1      20.635  37.896   6.953  1.00  0.00    -0.257 OA
HETATM   12  O8  UNL     1      20.345  37.731   9.175  1.00  0.00    -0.270 OA
HETATM   13  C19 UNL     1      19.941  37.082  10.232  1.00  0.00     0.128 A 
ENDROOT
BRANCH   6  14
HETATM   14  O2  UNL     1      18.389  33.907  11.248  1.00  0.00    -0.353 OA
HETATM   15  C7  UNL     1      16.964  33.776  11.301  1.00  0.00     0.210 C 
ENDBRANCH   6  14
BRANCH   1  16
HETATM   16  O1  UNL     1      20.672  38.948  11.506  1.00  0.00    -0.353 OA
HETATM   17  C1  UNL     1      21.752  39.170  12.395  1.00  0.00     0.210 C 
ENDBRANCH   1  16
BRANCH   8  18
HETATM   18  N2  UNL     1      18.548  34.082   8.628  1.00  0.00    -0.378 N 
ATOM     19  H2  UNL     1      17.543  34.180   8.489  1.00  0.00     0.160 HD
BRANCH  18  20
HETATM   20  C10 UNL     1      19.033  32.734   8.576  1.00  0.00     0.129 C 
BRANCH  20  21
HETATM   21  C11 UNL     1      20.503  32.598   8.229  1.00  0.00     0.191 C 
BRANCH  21  22
HETATM   22  O3  UNL     1      20.894  32.839   6.973  1.00  0.00    -0.399 OA
ATOM     23  H3  UNL     1      21.741  33.243   6.827  1.00  0.00     0.209 HD
ENDBRANCH  21  22
ENDBRANCH  20  21
BRANCH  20  24
HETATM   24  C12 UNL     1      18.188  31.766   7.797  1.00  0.00     0.191 C 
BRANCH  24  25
HETATM   25  O4  UNL     1      18.822  30.509   7.714  1.00  0.00    -0.399 OA
ATOM     26  H4  UNL     1      19.023  30.294   6.810  1.00  0.00     0.209 HD
ENDBRANCH  24  25
ENDBRANCH  20  24
ENDBRANCH  18  20
ENDBRANCH   8  18
BRANCH   9  27
HETATM   27  N3  UNL     1      19.537  35.626   6.380  1.00  0.00    -0.355 N 
ATOM     28  H3  UNL     1      20.247  35.050   5.929  1.00  0.00     0.162 HD
BRANCH  27  29
HETATM   29  C14 UNL     1      18.379  36.075   5.655  1.00  0.00     0.247 C 
BRANCH  29  30
HETATM   30  O5  UNL     1      17.262  36.234   6.461  1.00  0.00    -0.374 OA
ATOM     31  H5  UNL     1      16.561  36.712   6.035  1.00  0.00     0.212 HD
ENDBRANCH  29  30
BRANCH  29  32
HETATM   32  C15 UNL     1      18.053  35.201   4.471  1.00  0.00     0.165 C 
HETATM   33  C16 UNL     1      17.361  35.942   3.369  1.00  0.00     0.044 C 
BRANCH  32  34
HETATM   34  O6  UNL     1      19.176  34.593   3.958  1.00  0.00    -0.387 OA
HETATM   35  C17 UNL     1      19.113  34.469   2.558  1.00  0.00     0.202 C 
ENDBRANCH  32  34
ENDBRANCH  29  32
ENDBRANCH  27  29
ENDBRANCH   9  27
TORSDOF 13
ENDMDL
MODEL 4
REMARK VINA RESULT: 2.151094963      1.022      1.872
REMARK  13 active torsions:
REMARK  status: ('A' for Active; 'I' for Inactive)
REMARK    1  A    between atoms: O1_2  and  C2_3 
REMARK    2  A    between atoms: C6_8  and  O2_9 
REMARK    3  A    between atoms: C9_12  and  N2_13 
REMARK    4  A    between atoms: N2_13  and  C10_15 
REMARK    5  A    between atoms: C10_15  and  C11_16 
REMARK    6  A    between atoms: C10_15  and  C12_19 
REMARK    7  A    between atoms: C11_16  and  O3_17 
REMARK    8  A    between atoms: C12_19  and  O4_20 
REMARK    9  A    between atoms: C13_22  and  N3_23 
REMARK   10  A    between atoms: N3_23  and  C14_25 
REMARK   11  A    between atoms: C14_25  and  O5_26 
REMARK   12  A    between atoms: C14_25  and  C15_28 
REMARK   13  A    between atoms: C15_28  and  O6_30 
ROOT
HETATM    1  C2  UNL     1      20.386  37.830  11.399  1.00  0.00     0.104 A 
HETATM    2  C3  UNL     1      19.816  37.389  12.563  1.00  0.00     0.065 A 
HETATM    3  C4  UNL     1      19.004  36.273  12.542  1.00  0.00     0.081 A 
HETATM    4  C5  UNL     1      18.380  35.807  13.731  1.00  0.00     0.102 C 
HETATM    5  N1  UNL     1      17.866  35.452  14.715  1.00  0.00    -0.191 NA
HETATM    6  C6  UNL     1      18.756  35.586  11.360  1.00  0.00     0.104 A 
HETATM    7  C8  UNL     1      19.311  36.019  10.197  1.00  0.00     0.065 A 
HETATM    8  C9  UNL     1      19.111  35.431   8.937  1.00  0.00     0.077 A 
HETATM    9  C13 UNL     1      19.716  35.954   7.810  1.00  0.00     0.134 A 
HETATM   10  C18 UNL     1      20.529  37.087   7.972  1.00  0.00     0.317 A 
HETATM   11  O7  UNL     1      21.069  37.530   6.912  1.00  0.00    -0.257 OA
HETATM   12  O8  UNL     1      20.697  37.618   9.125  1.00  0.00    -0.270 OA
HETATM   13  C19 UNL     1      20.142  37.158  10.212  1.00  0.00     0.128 A 
ENDROOT
BRANCH   6  14
HETATM   14  O2  UNL     1      17.946  34.463  11.410  1.00  0.00    -0.353 OA
HETATM   15  C7  UNL     1      18.503  33.222  11.860  1.00  0.00     0.210 C 
ENDBRANCH   6  14
BRANCH   1  16
HETATM   16  O1  UNL     1      21.209  38.939  11.365  1.00  0.00    -0.353 OA
HETATM   17  C1  UNL     1      22.540  38.813  11.835  1.00  0.00     0.210 C 
ENDBRANCH   1  16
BRANCH   8  18
HETATM   18  N2  UNL     1      18.202  34.376   8.793  1.00  0.00    -0.378 N 
ATOM     19  H2  UNL     1      17.264  34.572   9.141  1.00  0.00     0.160 HD
BRANCH  18  20
HETATM   20  C10 UNL     1      18.375  33.066   8.238  1.00  0.00     0.129 C 
BRANCH  20  21
HETATM   21  C11 UNL     1      17.277  32.078   8.585  1.00  0.00     0.191 C 
BRANCH  21  22
HETATM   22  O3  UNL     1      17.382  30.819   8.146  1.00  0.00    -0.399 OA
ATOM     23  H3  UNL     1      17.474  30.666   7.213  1.00  0.00     0.209 HD
ENDBRANCH  21  22
ENDBRANCH  20  21
BRANCH  20  24
HETATM   24  C12 UNL     1      19.739  32.460   8.405  1.00  0.00     0.191 C 
BRANCH  24  25
HETATM   25  O4  UNL     1      20.533  32.702   7.264  1.00  0.00    -0.399 OA
ATOM     26  H4  UNL     1      21.142  33.412   7.425  1.00  0.00     0.209 HD
ENDBRANCH  24  25
ENDBRANCH  20  24
ENDBRANCH  18  20
ENDBRANCH   8  18
BRANCH   9  27
HETATM   27  N3  UNL     1      19.543  35.490   6.474  1.00  0.00    -0.355 N 
ATOM     28  H3  UNL     1      20.166  34.785   6.080  1.00  0.00     0.162 HD
BRANCH  27  29
HETATM   29  C14 UNL     1      18.467  36.041   5.695  1.00  0.00     0.247 C 
BRANCH  29  30
HETATM   30  O5  UNL     1      17.332  36.305   6.448  1.00  0.00    -0.374 OA
ATOM     31  H5  UNL     1      17.323  37.183   6.810  1.00  0.00     0.212 HD
ENDBRANCH  29  30
BRANCH  29  32
HETATM   32  C15 UNL     1      18.119  35.199   4.496  1.00  0.00     0.165 C 
HETATM   33  C16 UNL     1      17.218  35.901   3.527  1.00  0.00     0.044 C 
BRANCH  32  34
HETATM   34  O6  UNL     1      19.242  34.771   3.825  1.00  0.00    -0.387 OA
HETATM   35  C17 UNL     1      18.953  34.398   2.500  1.00  0.00     0.202 C 
ENDBRANCH  32  34
ENDBRANCH  29  32
ENDBRANCH  27  29
ENDBRANCH   9  27
TORSDOF 13
ENDMDL
MODEL 5
REMARK VINA RESULT: 2.660003061      1.853      2.821
REMARK  13 active torsions:
REMARK  status: ('A' for Active; 'I' for Inactive)
REMARK    1  A    between atoms: O1_2  and  C2_3 
REMARK    2  A    between atoms: C6_8  and  O2_9 
REMARK    3  A    between atoms: C9_12  and  N2_13 
REMARK    4  A    between atoms: N2_13  and  C10_15 
REMARK    5  A    between atoms: C10_15  and  C11_16 
REMARK    6  A    between atoms: C10_15  and  C12_19 
REMARK    7  A    between atoms: C11_16  and  O3_17 
REMARK    8  A    between atoms: C12_19  and  O4_20 
REMARK    9  A    between atoms: C13_22  and  N3_23 
REMARK   10  A    between atoms: N3_23  and  C14_25 
REMARK   11  A    between atoms: C14_25  and  O5_26 
REMARK   12  A    between atoms: C14_25  and  C15_28 
REMARK   13  A    between atoms: C15_28  and  O6_30 
ROOT
HETATM    1  C2  UNL     1      22.239  38.393  11.689  1.00  0.00     0.104 A 
HETATM    2  C3  UNL     1      22.169  38.435  13.056  1.00  0.00     0.065 A 
HETATM    3  C4  UNL     1      21.195  37.709  13.710  1.00  0.00     0.081 A 
HETATM    4  C5  UNL     1      21.086  37.753  15.127  1.00  0.00     0.102 C 
HETATM    5  N1  UNL     1      21.003  37.816  16.288  1.00  0.00    -0.191 NA
HETATM    6  C6  UNL     1      20.284  36.931  13.006  1.00  0.00     0.104 A 
HETATM    7  C8  UNL     1      20.339  36.886  11.649  1.00  0.00     0.065 A 
HETATM    8  C9  UNL     1      19.458  36.165  10.826  1.00  0.00     0.077 A 
HETATM    9  C13 UNL     1      19.593  36.192   9.452  1.00  0.00     0.134 A 
HETATM   10  C18 UNL     1      20.635  36.964   8.914  1.00  0.00     0.317 A 
HETATM   11  O7  UNL     1      20.726  36.955   7.648  1.00  0.00    -0.257 OA
HETATM   12  O8  UNL     1      21.428  37.623   9.675  1.00  0.00    -0.270 OA
HETATM   13  C19 UNL     1      21.332  37.626  10.975  1.00  0.00     0.128 A 
ENDROOT
BRANCH   6  14
HETATM   14  O2  UNL     1      19.343  36.211  13.725  1.00  0.00    -0.353 OA
HETATM   15  C7  UNL     1      18.157  36.874  14.181  1.00  0.00     0.210 C 
ENDBRANCH   6  14
BRANCH   1  16
HETATM   16  O1  UNL     1      23.196  39.099  10.985  1.00  0.00    -0.353 OA
HETATM   17  C1  UNL     1      24.440  39.366  11.610  1.00  0.00     0.210 C 
ENDBRANCH   1  16
BRANCH   8  18
HETATM   18  N2  UNL     1      18.360  35.504  11.389  1.00  0.00    -0.378 N 
ATOM     19  H2  UNL     1      17.635  36.119  11.757  1.00  0.00     0.160 HD
BRANCH  18  20
HETATM   20  C10 UNL     1      18.088  34.104  11.532  1.00  0.00     0.129 C 
BRANCH  20  21
HETATM   21  C11 UNL     1      19.314  33.211  11.507  1.00  0.00     0.191 C 
BRANCH  21  22
HETATM   22  O3  UNL     1      19.987  33.073  10.360  1.00  0.00    -0.399 OA
ATOM     23  H3  UNL     1      20.702  32.449  10.321  1.00  0.00     0.209 HD
ENDBRANCH  21  22
ENDBRANCH  20  21
BRANCH  20  24
HETATM   24  C12 UNL     1      16.988  33.560  10.665  1.00  0.00     0.191 C 
BRANCH  24  25
HETATM   25  O4  UNL     1      17.499  33.146   9.416  1.00  0.00    -0.399 OA
ATOM     26  H4  UNL     1      17.438  32.203   9.326  1.00  0.00     0.209 HD
ENDBRANCH  24  25
ENDBRANCH  20  24
ENDBRANCH  18  20
ENDBRANCH   8  18
BRANCH   9  27
HETATM   27  N3  UNL     1      18.729  35.559   8.512  1.00  0.00    -0.355 N 
ATOM     28  H3  UNL     1      17.978  34.945   8.824  1.00  0.00     0.162 HD
BRANCH  27  29
HETATM   29  C14 UNL     1      18.946  35.809   7.112  1.00  0.00     0.247 C 
BRANCH  29  30
HETATM   30  O5  UNL     1      17.934  36.559   6.533  1.00  0.00    -0.374 OA
ATOM     31  H5  UNL     1      18.096  37.495   6.572  1.00  0.00     0.212 HD
ENDBRANCH  29  30
BRANCH  29  32
HETATM   32  C15 UNL     1      19.186  34.549   6.322  1.00  0.00     0.165 C 
HETATM   33  C16 UNL     1      19.088  34.757   4.842  1.00  0.00     0.044 C 
BRANCH  32  34
HETATM   34  O6  UNL     1      20.409  33.987   6.609  1.00  0.00    -0.387 OA
HETATM   35  C17 UNL     1      20.285  32.841   7.415  1.00  0.00     0.202 C 
ENDBRANCH  32  34
ENDBRANCH  29  32
ENDBRANCH  27  29
ENDBRANCH   9  27
TORSDOF 13
ENDMDL
