MODEL 1
REMARK VINA RESULT: -4.151691610      0.000      0.000
REMARK  3 active torsions:
REMARK  status: ('A' for Active; 'I' for Inactive)
REMARK    1  A    between atoms: N1_2  and  N2_4 
REMARK    2  A    between atoms: C2_6  and  N3_7 
REMARK    3  A    between atoms: N3_7  and  C3_9 
ROOT
HETATM    1  N2  UNL     1      42.577 -38.828  -2.862  1.00  0.00    -0.301 N 
ATOM      2  H2  UNL     1      43.484 -38.413  -2.652  1.00  0.00     0.187 HD
HETATM    3  C2  UNL     1      41.506 -38.146  -2.688  1.00  0.00     0.192 C 
ENDROOT
BRANCH   3   4
HETATM    4  N3  UNL     1      41.474 -36.809  -2.210  1.00  0.00    -0.381 N 
ATOM      5  H3  UNL     1      42.272 -36.406  -1.718  1.00  0.00     0.160 HD
BRANCH   4   6
HETATM    6  C3  UNL     1      40.279 -36.041  -2.444  1.00  0.00     0.082 A 
HETATM    7  C4  UNL     1      40.245 -34.735  -1.642  1.00  0.00     0.027 A 
HETATM    8  C5  UNL     1      40.267 -34.766  -3.151  1.00  0.00     0.027 A 
ENDBRANCH   4   6
ENDBRANCH   3   4
BRANCH   1   9
HETATM    9  N1  UNL     1      42.504 -40.133  -3.335  1.00  0.00    -0.340 N 
HETATM   10  C1  UNL     1      41.352 -40.992  -3.093  1.00  0.00     0.167 C 
ATOM     11  H1  UNL     1      43.288 -40.504  -3.872  1.00  0.00     0.179 HD
ENDBRANCH   1   9
TORSDOF 3
ENDMDL
MODEL 2
REMARK VINA RESULT: -4.139656878      2.738      3.134
REMARK  3 active torsions:
REMARK  status: ('A' for Active; 'I' for Inactive)
REMARK    1  A    between atoms: N1_2  and  N2_4 
REMARK    2  A    between atoms: C2_6  and  N3_7 
REMARK    3  A    between atoms: N3_7  and  C3_9 
ROOT
HETATM    1  N2  UNL     1      43.880 -37.546  -2.374  1.00  0.00    -0.301 N 
ATOM      2  H2  UNL     1      44.452 -37.882  -3.148  1.00  0.00     0.187 HD
HETATM    3  C2  UNL     1      42.854 -36.815  -2.606  1.00  0.00     0.192 C 
ENDROOT
BRANCH   3   4
HETATM    4  N3  UNL     1      42.427 -36.416  -3.900  1.00  0.00    -0.381 N 
ATOM      5  H3  UNL     1      42.129 -37.104  -4.592  1.00  0.00     0.160 HD
BRANCH   4   6
HETATM    6  C3  UNL     1      42.430 -35.009  -4.204  1.00  0.00     0.082 A 
HETATM    7  C4  UNL     1      42.034 -34.713  -5.656  1.00  0.00     0.027 A 
HETATM    8  C5  UNL     1      41.220 -34.242  -4.476  1.00  0.00     0.027 A 
ENDBRANCH   4   6
ENDBRANCH   3   4
BRANCH   1   9
HETATM    9  N1  UNL     1      44.217 -37.882  -1.068  1.00  0.00    -0.340 N 
HETATM   10  C1  UNL     1      43.256 -37.840   0.026  1.00  0.00     0.167 C 
ATOM     11  H1  UNL     1      45.175 -38.170  -0.868  1.00  0.00     0.179 HD
ENDBRANCH   1   9
TORSDOF 3
ENDMDL
MODEL 3
REMARK VINA RESULT: -4.114606523      3.873      4.485
REMARK  3 active torsions:
REMARK  status: ('A' for Active; 'I' for Inactive)
REMARK    1  A    between atoms: N1_2  and  N2_4 
REMARK    2  A    between atoms: C2_6  and  N3_7 
REMARK    3  A    between atoms: N3_7  and  C3_9 
ROOT
HETATM    1  N2  UNL     1      41.966 -34.451  -1.165  1.00  0.00    -0.301 N 
ATOM      2  H2  UNL     1      42.898 -34.177  -1.475  1.00  0.00     0.187 HD
HETATM    3  C2  UNL     1      41.001 -34.500  -2.006  1.00  0.00     0.192 C 
ENDROOT
BRANCH   3   4
HETATM    4  N3  UNL     1      41.121 -34.192  -3.387  1.00  0.00    -0.381 N 
ATOM      5  H3  UNL     1      40.706 -33.345  -3.776  1.00  0.00     0.160 HD
BRANCH   4   6
HETATM    6  C3  UNL     1      41.849 -35.114  -4.219  1.00  0.00     0.082 A 
HETATM    7  C4  UNL     1      41.975 -34.634  -5.670  1.00  0.00     0.027 A 
HETATM    8  C5  UNL     1      43.169 -34.832  -4.770  1.00  0.00     0.027 A 
ENDBRANCH   4   6
ENDBRANCH   3   4
BRANCH   1   9
HETATM    9  N1  UNL     1      41.747 -34.772   0.170  1.00  0.00    -0.340 N 
HETATM   10  C1  UNL     1      41.777 -36.142   0.663  1.00  0.00     0.167 C 
ATOM     11  H1  UNL     1      41.557 -34.017   0.829  1.00  0.00     0.179 HD
ENDBRANCH   1   9
TORSDOF 3
ENDMDL
MODEL 4
REMARK VINA RESULT: -4.108366899      2.467      2.862
REMARK  3 active torsions:
REMARK  status: ('A' for Active; 'I' for Inactive)
REMARK    1  A    between atoms: N1_2  and  N2_4 
REMARK    2  A    between atoms: C2_6  and  N3_7 
REMARK    3  A    between atoms: N3_7  and  C3_9 
ROOT
HETATM    1  N2  UNL     1      43.504 -37.712  -2.876  1.00  0.00    -0.301 N 
ATOM      2  H2  UNL     1      44.521 -37.722  -2.952  1.00  0.00     0.187 HD
HETATM    3  C2  UNL     1      42.844 -36.689  -3.274  1.00  0.00     0.192 C 
ENDROOT
BRANCH   3   4
HETATM    4  N3  UNL     1      43.429 -35.523  -3.834  1.00  0.00    -0.381 N 
ATOM      5  H3  UNL     1      44.438 -35.379  -3.816  1.00  0.00     0.160 HD
BRANCH   4   6
HETATM    6  C3  UNL     1      42.549 -34.549  -4.428  1.00  0.00     0.082 A 
HETATM    7  C4  UNL     1      43.163 -33.862  -5.654  1.00  0.00     0.027 A 
HETATM    8  C5  UNL     1      41.925 -34.721  -5.735  1.00  0.00     0.027 A 
ENDBRANCH   4   6
ENDBRANCH   3   4
BRANCH   1   9
HETATM    9  N1  UNL     1      42.838 -38.808  -2.341  1.00  0.00    -0.340 N 
HETATM   10  C1  UNL     1      42.086 -39.748  -3.162  1.00  0.00     0.167 C 
ATOM     11  H1  UNL     1      42.878 -38.960  -1.333  1.00  0.00     0.179 HD
ENDBRANCH   1   9
TORSDOF 3
ENDMDL
MODEL 5
REMARK VINA RESULT: -4.098497685      4.050      4.783
REMARK  3 active torsions:
REMARK  status: ('A' for Active; 'I' for Inactive)
REMARK    1  A    between atoms: N1_2  and  N2_4 
REMARK    2  A    between atoms: C2_6  and  N3_7 
REMARK    3  A    between atoms: N3_7  and  C3_9 
ROOT
HETATM    1  N2  UNL     1      40.843 -34.080  -2.207  1.00  0.00    -0.301 N 
ATOM      2  H2  UNL     1      41.465 -33.272  -2.201  1.00  0.00     0.187 HD
HETATM    3  C2  UNL     1      40.518 -34.628  -3.318  1.00  0.00     0.192 C 
ENDROOT
BRANCH   3   4
HETATM    4  N3  UNL     1      40.965 -34.188  -4.592  1.00  0.00    -0.381 N 
ATOM      5  H3  UNL     1      40.498 -33.423  -5.080  1.00  0.00     0.160 HD
BRANCH   4   6
HETATM    6  C3  UNL     1      42.100 -34.858  -5.174  1.00  0.00     0.082 A 
HETATM    7  C4  UNL     1      43.102 -33.887  -5.810  1.00  0.00     0.027 A 
HETATM    8  C5  UNL     1      43.451 -34.766  -4.634  1.00  0.00     0.027 A 
ENDBRANCH   4   6
ENDBRANCH   3   4
BRANCH   1   9
HETATM    9  N1  UNL     1      40.352 -34.585  -1.009  1.00  0.00    -0.340 N 
HETATM   10  C1  UNL     1      41.120 -35.491  -0.165  1.00  0.00     0.167 C 
ATOM     11  H1  UNL     1      39.416 -34.311  -0.710  1.00  0.00     0.179 HD
ENDBRANCH   1   9
TORSDOF 3
ENDMDL
