MODEL 1
REMARK VINA RESULT: -4.234782739      0.000      0.000
REMARK  3 active torsions:
REMARK  status: ('A' for Active; 'I' for Inactive)
REMARK    1  A    between atoms: N1_2  and  C2_4 
REMARK    2  A    between atoms: C2_4  and  O1_8 
REMARK    3  A    between atoms: O1_8  and  C3_9 
ROOT
HETATM    1  C2  UNL     1      40.228 -34.994  -2.505  1.00  0.00     0.212 C 
HETATM    2  N2  UNL     1      40.477 -34.221  -1.520  1.00  0.00    -0.366 N 
ATOM      3  H21 UNL     1      40.798 -33.259  -1.624  1.00  0.00     0.159 HD
ATOM      4  H22 UNL     1      40.333 -34.626  -0.595  1.00  0.00     0.159 HD
ENDROOT
BRANCH   1   5
HETATM    5  N1  UNL     1      39.777 -36.345  -2.360  1.00  0.00    -0.361 N 
HETATM    6  C1  UNL     1      40.786 -37.313  -1.935  1.00  0.00     0.150 C 
ATOM      7  H1  UNL     1      38.810 -36.615  -2.542  1.00  0.00     0.162 HD
ENDBRANCH   1   5
BRANCH   1   8
HETATM    8  O1  UNL     1      40.424 -34.442  -3.766  1.00  0.00    -0.317 OA
BRANCH   8   9
HETATM    9  C3  UNL     1      41.706 -34.194  -4.242  1.00  0.00     0.132 A 
HETATM   10  C4  UNL     1      41.959 -34.659  -5.672  1.00  0.00     0.035 A 
HETATM   11  C5  UNL     1      42.648 -35.355  -4.539  1.00  0.00     0.035 A 
ENDBRANCH   8   9
ENDBRANCH   1   8
TORSDOF 3
ENDMDL
MODEL 2
REMARK VINA RESULT: -4.207459444      0.923      1.460
REMARK  3 active torsions:
REMARK  status: ('A' for Active; 'I' for Inactive)
REMARK    1  A    between atoms: N1_2  and  C2_4 
REMARK    2  A    between atoms: C2_4  and  O1_8 
REMARK    3  A    between atoms: O1_8  and  C3_9 
ROOT
HETATM    1  C2  UNL     1      40.081 -34.923  -2.573  1.00  0.00     0.212 C 
HETATM    2  N2  UNL     1      39.210 -35.857  -2.587  1.00  0.00    -0.366 N 
ATOM      3  H21 UNL     1      38.786 -36.222  -3.440  1.00  0.00     0.159 HD
ATOM      4  H22 UNL     1      38.951 -36.231  -1.674  1.00  0.00     0.159 HD
ENDROOT
BRANCH   1   5
HETATM    5  N1  UNL     1      40.675 -34.410  -1.376  1.00  0.00    -0.361 N 
HETATM    6  C1  UNL     1      41.335 -35.394  -0.518  1.00  0.00     0.150 C 
ATOM      7  H1  UNL     1      40.641 -33.419  -1.136  1.00  0.00     0.162 HD
ENDBRANCH   1   5
BRANCH   1   8
HETATM    8  O1  UNL     1      40.434 -34.412  -3.816  1.00  0.00    -0.317 OA
BRANCH   8   9
HETATM    9  C3  UNL     1      41.770 -34.267  -4.173  1.00  0.00     0.132 A 
HETATM   10  C4  UNL     1      42.105 -34.707  -5.593  1.00  0.00     0.035 A 
HETATM   11  C5  UNL     1      42.628 -35.498  -4.434  1.00  0.00     0.035 A 
ENDBRANCH   8   9
ENDBRANCH   1   8
TORSDOF 3
ENDMDL
MODEL 3
REMARK VINA RESULT: -4.095425326      2.454      4.015
REMARK  3 active torsions:
REMARK  status: ('A' for Active; 'I' for Inactive)
REMARK    1  A    between atoms: N1_2  and  C2_4 
REMARK    2  A    between atoms: C2_4  and  O1_8 
REMARK    3  A    between atoms: O1_8  and  C3_9 
ROOT
HETATM    1  C2  UNL     1      41.661 -33.888  -5.014  1.00  0.00     0.212 C 
HETATM    2  N2  UNL     1      42.244 -34.868  -5.589  1.00  0.00    -0.366 N 
ATOM      3  H21 UNL     1      41.973 -35.842  -5.459  1.00  0.00     0.159 HD
ATOM      4  H22 UNL     1      43.018 -34.619  -6.205  1.00  0.00     0.159 HD
ENDROOT
BRANCH   1   5
HETATM    5  N1  UNL     1      42.041 -32.520  -5.196  1.00  0.00    -0.361 N 
HETATM    6  C1  UNL     1      42.519 -31.825  -4.001  1.00  0.00     0.150 C 
ATOM      7  H1  UNL     1      41.983 -32.058  -6.104  1.00  0.00     0.162 HD
ENDBRANCH   1   5
BRANCH   1   8
HETATM    8  O1  UNL     1      40.606 -34.227  -4.175  1.00  0.00    -0.317 OA
BRANCH   8   9
HETATM    9  C3  UNL     1      40.805 -35.068  -3.086  1.00  0.00     0.132 A 
HETATM   10  C4  UNL     1      39.534 -35.681  -2.510  1.00  0.00     0.035 A 
HETATM   11  C5  UNL     1      40.291 -34.668  -1.708  1.00  0.00     0.035 A 
ENDBRANCH   8   9
ENDBRANCH   1   8
TORSDOF 3
ENDMDL
MODEL 4
REMARK VINA RESULT: -4.050549795      1.381      1.742
REMARK  3 active torsions:
REMARK  status: ('A' for Active; 'I' for Inactive)
REMARK    1  A    between atoms: N1_2  and  C2_4 
REMARK    2  A    between atoms: C2_4  and  O1_8 
REMARK    3  A    between atoms: O1_8  and  C3_9 
ROOT
HETATM    1  C2  UNL     1      41.666 -33.760  -2.028  1.00  0.00     0.212 C 
HETATM    2  N2  UNL     1      42.706 -33.499  -1.334  1.00  0.00    -0.366 N 
ATOM      3  H21 UNL     1      43.556 -33.088  -1.721  1.00  0.00     0.159 HD
ATOM      4  H22 UNL     1      42.642 -33.728  -0.342  1.00  0.00     0.159 HD
ENDROOT
BRANCH   1   5
HETATM    5  N1  UNL     1      40.474 -34.335  -1.485  1.00  0.00    -0.361 N 
HETATM    6  C1  UNL     1      39.770 -35.282  -2.349  1.00  0.00     0.150 C 
ATOM      7  H1  UNL     1      40.135 -34.100  -0.551  1.00  0.00     0.162 HD
ENDBRANCH   1   5
BRANCH   1   8
HETATM    8  O1  UNL     1      41.752 -33.447  -3.380  1.00  0.00    -0.317 OA
BRANCH   8   9
HETATM    9  C3  UNL     1      42.761 -33.986  -4.171  1.00  0.00     0.132 A 
HETATM   10  C4  UNL     1      42.282 -34.635  -5.464  1.00  0.00     0.035 A 
HETATM   11  C5  UNL     1      42.847 -35.494  -4.376  1.00  0.00     0.035 A 
ENDBRANCH   8   9
ENDBRANCH   1   8
TORSDOF 3
ENDMDL
MODEL 5
REMARK VINA RESULT: -4.026015261      2.250      2.674
REMARK  3 active torsions:
REMARK  status: ('A' for Active; 'I' for Inactive)
REMARK    1  A    between atoms: N1_2  and  C2_4 
REMARK    2  A    between atoms: C2_4  and  O1_8 
REMARK    3  A    between atoms: O1_8  and  C3_9 
ROOT
HETATM    1  C2  UNL     1      42.892 -36.841  -3.086  1.00  0.00     0.212 C 
HETATM    2  N2  UNL     1      43.939 -37.527  -2.836  1.00  0.00    -0.366 N 
ATOM      3  H21 UNL     1      44.877 -37.257  -3.131  1.00  0.00     0.159 HD
ATOM      4  H22 UNL     1      43.786 -38.387  -2.307  1.00  0.00     0.159 HD
ENDROOT
BRANCH   1   5
HETATM    5  N1  UNL     1      41.576 -37.221  -2.671  1.00  0.00    -0.361 N 
HETATM    6  C1  UNL     1      41.281 -38.653  -2.712  1.00  0.00     0.150 C 
ATOM      7  H1  UNL     1      40.885 -36.535  -2.365  1.00  0.00     0.162 HD
ENDBRANCH   1   5
BRANCH   1   8
HETATM    8  O1  UNL     1      43.100 -35.670  -3.805  1.00  0.00    -0.317 OA
BRANCH   8   9
HETATM    9  C3  UNL     1      42.343 -35.386  -4.936  1.00  0.00     0.132 A 
HETATM   10  C4  UNL     1      42.753 -34.119  -5.679  1.00  0.00     0.035 A 
HETATM   11  C5  UNL     1      41.440 -34.159  -4.961  1.00  0.00     0.035 A 
ENDBRANCH   8   9
ENDBRANCH   1   8
TORSDOF 3
ENDMDL
