MODEL 1
REMARK VINA RESULT: -3.800103867      0.000      0.000
REMARK  2 active torsions:
REMARK  status: ('A' for Active; 'I' for Inactive)
REMARK    1  A    between atoms: N1_2  and  C2_5 
REMARK    2  A    between atoms: C2_5  and  C4_7 
ROOT
HETATM    1  C2  UNL     1      43.253 -34.052  -5.278  1.00  0.00     0.281 C 
HETATM    2  C3  UNL     1      41.948 -34.710  -5.767  1.00  0.00     0.052 C 
ENDROOT
BRANCH   1   3
HETATM    3  N1  UNL     1      43.342 -34.418  -3.872  1.00  0.00    -0.065 N 
HETATM    4  C1  UNL     1      43.023 -35.804  -3.646  1.00  0.00     0.267 C 
ATOM      5  H12 UNL     1      42.763 -33.808  -3.295  1.00  0.00     0.277 HD
ATOM      6  H11 UNL     1      44.257 -34.184  -3.489  1.00  0.00     0.277 HD
ENDBRANCH   1   3
BRANCH   1   7
HETATM    7  C4  UNL     1      43.043 -32.611  -5.486  1.00  0.00     0.204 C 
HETATM    8  O1  UNL     1      41.960 -32.039  -5.257  1.00  0.00    -0.646 OA
HETATM    9  O2  UNL     1      44.092 -31.845  -5.961  1.00  0.00    -0.646 OA
ENDBRANCH   1   7
TORSDOF 2
ENDMDL
MODEL 2
REMARK VINA RESULT: -3.800015897      1.975      2.182
REMARK  2 active torsions:
REMARK  status: ('A' for Active; 'I' for Inactive)
REMARK    1  A    between atoms: N1_2  and  C2_5 
REMARK    2  A    between atoms: C2_5  and  C4_7 
ROOT
HETATM    1  C2  UNL     1      41.894 -34.142  -4.150  1.00  0.00     0.281 C 
HETATM    2  C3  UNL     1      42.032 -34.717  -5.572  1.00  0.00     0.052 C 
ENDROOT
BRANCH   1   3
HETATM    3  N1  UNL     1      40.534 -34.471  -3.752  1.00  0.00    -0.065 N 
HETATM    4  C1  UNL     1      40.421 -34.714  -2.336  1.00  0.00     0.267 C 
ATOM      5  H12 UNL     1      40.173 -35.259  -4.290  1.00  0.00     0.277 HD
ATOM      6  H11 UNL     1      39.877 -33.752  -4.056  1.00  0.00     0.277 HD
ENDBRANCH   1   3
BRANCH   1   7
HETATM    7  C4  UNL     1      42.112 -32.695  -4.312  1.00  0.00     0.204 C 
HETATM    8  O1  UNL     1      42.004 -32.108  -5.405  1.00  0.00    -0.646 OA
HETATM    9  O2  UNL     1      42.457 -31.944  -3.204  1.00  0.00    -0.646 OA
ENDBRANCH   1   7
TORSDOF 2
ENDMDL
MODEL 3
REMARK VINA RESULT: -3.795968804      2.015      2.187
REMARK  2 active torsions:
REMARK  status: ('A' for Active; 'I' for Inactive)
REMARK    1  A    between atoms: N1_2  and  C2_5 
REMARK    2  A    between atoms: C2_5  and  C4_7 
ROOT
HETATM    1  C2  UNL     1      41.861 -34.205  -4.098  1.00  0.00     0.281 C 
HETATM    2  C3  UNL     1      41.991 -34.694  -5.553  1.00  0.00     0.052 C 
ENDROOT
BRANCH   1   3
HETATM    3  N1  UNL     1      40.490 -34.521  -3.727  1.00  0.00    -0.065 N 
HETATM    4  C1  UNL     1      40.350 -34.776  -2.316  1.00  0.00     0.267 C 
ATOM      5  H12 UNL     1      40.129 -35.299  -4.279  1.00  0.00     0.277 HD
ATOM      6  H11 UNL     1      39.848 -33.791  -4.035  1.00  0.00     0.277 HD
ENDBRANCH   1   3
BRANCH   1   7
HETATM    7  C4  UNL     1      42.119 -32.758  -4.169  1.00  0.00     0.204 C 
HETATM    8  O1  UNL     1      42.439 -32.073  -3.178  1.00  0.00    -0.646 OA
HETATM    9  O2  UNL     1      41.999 -32.117  -5.388  1.00  0.00    -0.646 OA
ENDBRANCH   1   7
TORSDOF 2
ENDMDL
MODEL 4
REMARK VINA RESULT: -3.741743492      1.622      1.924
REMARK  2 active torsions:
REMARK  status: ('A' for Active; 'I' for Inactive)
REMARK    1  A    between atoms: N1_2  and  C2_5 
REMARK    2  A    between atoms: C2_5  and  C4_7 
ROOT
HETATM    1  C2  UNL     1      41.394 -34.247  -4.813  1.00  0.00     0.281 C 
HETATM    2  C3  UNL     1      40.635 -34.571  -3.511  1.00  0.00     0.052 C 
ENDROOT
BRANCH   1   3
HETATM    3  N1  UNL     1      42.361 -35.326  -4.950  1.00  0.00    -0.065 N 
HETATM    4  C1  UNL     1      42.382 -36.193  -3.799  1.00  0.00     0.267 C 
ATOM      5  H12 UNL     1      43.292 -34.962  -5.152  1.00  0.00     0.277 HD
ATOM      6  H11 UNL     1      42.203 -35.855  -5.807  1.00  0.00     0.277 HD
ENDBRANCH   1   3
BRANCH   1   7
HETATM    7  C4  UNL     1      42.020 -32.940  -4.562  1.00  0.00     0.204 C 
HETATM    8  O1  UNL     1      42.043 -32.022  -5.404  1.00  0.00    -0.646 OA
HETATM    9  O2  UNL     1      42.620 -32.711  -3.337  1.00  0.00    -0.646 OA
ENDBRANCH   1   7
TORSDOF 2
ENDMDL
MODEL 5
REMARK VINA RESULT: -3.690315435      1.319      1.737
REMARK  2 active torsions:
REMARK  status: ('A' for Active; 'I' for Inactive)
REMARK    1  A    between atoms: N1_2  and  C2_5 
REMARK    2  A    between atoms: C2_5  and  C4_7 
ROOT
HETATM    1  C2  UNL     1      43.078 -34.039  -4.380  1.00  0.00     0.281 C 
HETATM    2  C3  UNL     1      44.254 -33.716  -5.322  1.00  0.00     0.052 C 
ENDROOT
BRANCH   1   3
HETATM    3  N1  UNL     1      42.971 -35.490  -4.412  1.00  0.00    -0.065 N 
HETATM    4  C1  UNL     1      43.004 -36.071  -3.094  1.00  0.00     0.267 C 
ATOM      5  H12 UNL     1      43.688 -35.899  -5.012  1.00  0.00     0.277 HD
ATOM      6  H11 UNL     1      42.141 -35.786  -4.925  1.00  0.00     0.277 HD
ENDBRANCH   1   3
BRANCH   1   7
HETATM    7  C4  UNL     1      41.920 -33.363  -4.986  1.00  0.00     0.204 C 
HETATM    8  O1  UNL     1      40.860 -33.952  -5.273  1.00  0.00    -0.646 OA
HETATM    9  O2  UNL     1      42.005 -32.010  -5.257  1.00  0.00    -0.646 OA
ENDBRANCH   1   7
TORSDOF 2
ENDMDL
