MODEL 1
REMARK VINA RESULT: -4.879700804      0.000      0.000
REMARK  1 active torsions:
REMARK  status: ('A' for Active; 'I' for Inactive)
REMARK    1  A    between atoms: C2_2  and  C3_3 
ROOT
HETATM    1  C1  UNL     1      40.547 -34.605  -3.506  1.00  0.00     0.027 C 
HETATM    2  C2  UNL     1      41.665 -34.165  -4.406  1.00  0.00     0.045 A 
HETATM    3  C4  UNL     1      41.953 -34.780  -5.708  1.00  0.00     0.021 A 
HETATM    4  C5  UNL     1      42.776 -35.188  -4.541  1.00  0.00     0.021 A 
ENDROOT
BRANCH   2   5
HETATM    5  C3  UNL     1      42.071 -32.735  -4.262  1.00  0.00     0.181 C 
HETATM    6  O1  UNL     1      42.015 -32.034  -5.314  1.00  0.00    -0.647 OA
HETATM    7  O2  UNL     1      42.482 -32.207  -3.067  1.00  0.00    -0.647 OA
ENDBRANCH   2   5
TORSDOF 1
ENDMDL
MODEL 2
REMARK VINA RESULT: -4.792711826      0.125      1.227
REMARK  1 active torsions:
REMARK  status: ('A' for Active; 'I' for Inactive)
REMARK    1  A    between atoms: C2_2  and  C3_3 
ROOT
HETATM    1  C1  UNL     1      40.542 -34.668  -3.470  1.00  0.00     0.027 C 
HETATM    2  C2  UNL     1      41.645 -34.210  -4.379  1.00  0.00     0.045 A 
HETATM    3  C4  UNL     1      41.943 -34.830  -5.677  1.00  0.00     0.021 A 
HETATM    4  C5  UNL     1      42.781 -35.206  -4.510  1.00  0.00     0.021 A 
ENDROOT
BRANCH   2   5
HETATM    5  C3  UNL     1      42.016 -32.769  -4.251  1.00  0.00     0.181 C 
HETATM    6  O1  UNL     1      42.254 -32.359  -3.078  1.00  0.00    -0.647 OA
HETATM    7  O2  UNL     1      42.095 -31.933  -5.334  1.00  0.00    -0.647 OA
ENDBRANCH   2   5
TORSDOF 1
ENDMDL
MODEL 3
REMARK VINA RESULT: -4.547566694      1.178      1.964
REMARK  1 active torsions:
REMARK  status: ('A' for Active; 'I' for Inactive)
REMARK    1  A    between atoms: C2_2  and  C3_3 
ROOT
HETATM    1  C1  UNL     1      44.027 -33.481  -5.939  1.00  0.00     0.027 C 
HETATM    2  C2  UNL     1      42.904 -33.917  -5.042  1.00  0.00     0.045 A 
HETATM    3  C4  UNL     1      42.795 -35.265  -4.471  1.00  0.00     0.021 A 
HETATM    4  C5  UNL     1      41.985 -34.945  -5.673  1.00  0.00     0.021 A 
ENDROOT
BRANCH   2   5
HETATM    5  C3  UNL     1      42.262 -32.825  -4.252  1.00  0.00     0.181 C 
HETATM    6  O1  UNL     1      42.052 -31.741  -4.871  1.00  0.00    -0.647 OA
HETATM    7  O2  UNL     1      41.919 -32.978  -2.934  1.00  0.00    -0.647 OA
ENDBRANCH   2   5
TORSDOF 1
ENDMDL
MODEL 4
REMARK VINA RESULT: -4.411784169      0.564      1.701
REMARK  1 active torsions:
REMARK  status: ('A' for Active; 'I' for Inactive)
REMARK    1  A    between atoms: C2_2  and  C3_3 
ROOT
HETATM    1  C1  UNL     1      41.999 -34.785  -5.630  1.00  0.00     0.027 C 
HETATM    2  C2  UNL     1      41.803 -34.122  -4.298  1.00  0.00     0.045 A 
HETATM    3  C4  UNL     1      41.907 -34.826  -3.014  1.00  0.00     0.021 A 
HETATM    4  C5  UNL     1      40.553 -34.576  -3.570  1.00  0.00     0.021 A 
ENDROOT
BRANCH   2   5
HETATM    5  C3  UNL     1      42.118 -32.663  -4.263  1.00  0.00     0.181 C 
HETATM    6  O1  UNL     1      42.002 -32.043  -5.360  1.00  0.00    -0.647 OA
HETATM    7  O2  UNL     1      42.510 -32.025  -3.115  1.00  0.00    -0.647 OA
ENDBRANCH   2   5
TORSDOF 1
ENDMDL
MODEL 5
REMARK VINA RESULT: -4.345166544      1.590      2.030
REMARK  1 active torsions:
REMARK  status: ('A' for Active; 'I' for Inactive)
REMARK    1  A    between atoms: C2_2  and  C3_3 
ROOT
HETATM    1  C1  UNL     1      42.011 -34.829  -5.687  1.00  0.00     0.027 C 
HETATM    2  C2  UNL     1      42.818 -33.611  -5.347  1.00  0.00     0.045 A 
HETATM    3  C4  UNL     1      43.710 -32.933  -6.298  1.00  0.00     0.021 A 
HETATM    4  C5  UNL     1      44.313 -33.862  -5.309  1.00  0.00     0.021 A 
ENDROOT
BRANCH   2   5
HETATM    5  C3  UNL     1      42.246 -32.749  -4.271  1.00  0.00     0.181 C 
HETATM    6  O1  UNL     1      41.596 -33.349  -3.366  1.00  0.00    -0.647 OA
HETATM    7  O2  UNL     1      42.407 -31.388  -4.257  1.00  0.00    -0.647 OA
ENDBRANCH   2   5
TORSDOF 1
ENDMDL
