MODEL 1
REMARK VINA RESULT: -6.581998235      0.000      0.000
REMARK  14 active torsions:
REMARK  status: ('A' for Active; 'I' for Inactive)
REMARK    1  A    between atoms: N1_4  and  C4_5 
REMARK    2  A    between atoms: C4_5  and  C5_6 
REMARK    3  A    between atoms: C5_6  and  C6_7 
REMARK    4  A    between atoms: N2_9  and  C8_10 
REMARK    5  A    between atoms: C8_10  and  C9_11 
REMARK    6  A    between atoms: C9_11  and  C10_12 
REMARK    7  A    between atoms: C9_11  and  C13_19 
REMARK    8  A    between atoms: C10_12  and  C11_13 
REMARK    9  A    between atoms: C11_13  and  N3_14 
REMARK       I    between atoms: N3_14  and  C12_16 
REMARK   10  A    between atoms: C13_19  and  N6_20 
REMARK   11  A    between atoms: C16_25  and  N8_26 
REMARK   12  A    between atoms: C17_31  and  C18_32 
REMARK   13  A    between atoms: C18_32  and  N10_33 
REMARK   14  A    between atoms: C18_32  and  N11_37 
ROOT
HETATM    1  C9  UNL     1      48.311   0.696  -1.656  1.00  0.00     0.025 C 
ENDROOT
BRANCH   1   2
HETATM    2  C8  UNL     1      47.338  -0.427  -1.727  1.00  0.00     0.156 C 
BRANCH   2   3
HETATM    3  N2  UNL     1      46.896  -0.538  -3.120  1.00  0.00    -0.286 N 
HETATM    4  C7  UNL     1      47.006  -1.581  -3.941  1.00  0.00     0.142 A 
HETATM    5  C6  UNL     1      46.415  -1.183  -5.171  1.00  0.00     0.068 A 
HETATM    6  N13 UNL     1      46.008   0.059  -4.967  1.00  0.00    -0.285 N 
HETATM    7  N12 UNL     1      46.292   0.429  -3.768  1.00  0.00    -0.240 N 
ATOM      8  H13 UNL     1      45.537   0.640  -5.661  1.00  0.00     0.188 HD
ATOM      9  H12 UNL     1      46.077   1.345  -3.376  1.00  0.00     0.208 HD
BRANCH   5  10
HETATM   10  C5  UNL     1      46.379  -2.040  -6.328  1.00  0.00     0.050 C 
BRANCH  10  11
HETATM   11  C4  UNL     1      46.539  -3.273  -6.537  1.00  0.00     0.099 C 
BRANCH  11  12
HETATM   12  N1  UNL     1      47.425  -4.279  -6.114  1.00  0.00    -0.327 N 
HETATM   13  C3  UNL     1      48.727  -4.002  -5.724  1.00  0.00     0.121 A 
HETATM   14  C2  UNL     1      49.281  -5.189  -5.322  1.00  0.00     0.024 A 
HETATM   15  C1  UNL     1      50.698  -5.257  -4.832  1.00  0.00     0.070 C 
HETATM   16  N14 UNL     1      48.409  -6.158  -5.442  1.00  0.00    -0.350 N 
HETATM   17  C19 UNL     1      47.268  -5.593  -5.929  1.00  0.00     0.189 A 
HETATM   18  C20 UNL     1      48.651  -7.545  -5.111  1.00  0.00     0.156 C 
ENDBRANCH  11  12
ENDBRANCH  10  11
ENDBRANCH   5  10
ENDBRANCH   2   3
ENDBRANCH   1   2
BRANCH   1  19
HETATM   19  C10 UNL     1      48.072   1.713  -0.598  1.00  0.00     0.027 C 
BRANCH  19  20
HETATM   20  C11 UNL     1      49.209   2.140   0.244  1.00  0.00     0.122 C 
BRANCH  20  21
HETATM   21  N3  UNL     1      49.997   3.232  -0.235  1.00  0.00    -0.367 N 
HETATM   22  C12 UNL     1      51.285   3.231  -0.271  1.00  0.00     0.196 C 
HETATM   23  N4  UNL     1      51.933   4.388  -0.774  1.00  0.00    -0.067 NA
HETATM   24  N5  UNL     1      51.994   2.087   0.186  1.00  0.00    -0.067 NA
ATOM     25  H3  UNL     1      49.509   4.063  -0.568  1.00  0.00     0.161 HD
ENDBRANCH  20  21
ENDBRANCH  19  20
ENDBRANCH   1  19
BRANCH   1  26
HETATM   26  C13 UNL     1      49.770   0.336  -1.719  1.00  0.00     0.138 C 
BRANCH  26  27
HETATM   27  N6  UNL     1      50.250  -0.018  -3.038  1.00  0.00    -0.322 N 
HETATM   28  C14 UNL     1      50.680  -1.280  -3.201  1.00  0.00     0.097 A 
HETATM   29  C15 UNL     1      50.789  -2.324  -2.199  1.00  0.00     0.090 C 
HETATM   30  N7  UNL     1      51.103  -1.636  -4.458  1.00  0.00    -0.181 N 
HETATM   31  C16 UNL     1      51.084  -0.755  -5.471  1.00  0.00     0.678 A 
ATOM     32  H7  UNL     1      51.437  -2.585  -4.625  1.00  0.00     0.185 HD
HETATM   33  N9  UNL     1      50.649   0.494  -5.267  1.00  0.00    -0.177 N 
HETATM   34  C17 UNL     1      50.215   0.900  -4.033  1.00  0.00     0.159 A 
ATOM     35  H9  UNL     1      50.640   1.155  -6.044  1.00  0.00     0.185 HD
BRANCH  31  36
HETATM   36  N8  UNL     1      51.476  -1.061  -6.662  1.00  0.00    -0.234 N 
ATOM     37  H82 UNL     1      51.520  -2.051  -6.903  1.00  0.00     0.174 HD
ATOM     38  H81 UNL     1      51.735  -0.355  -7.351  1.00  0.00     0.174 HD
ENDBRANCH  31  36
BRANCH  34  39
HETATM   39  C18 UNL     1      49.751   2.284  -3.860  1.00  0.00     0.445 C 
BRANCH  39  40
HETATM   40  N10 UNL     1      49.140   2.797  -5.099  1.00  0.00    -0.043 N 
ATOM     41 3H10 UNL     1      49.619   3.633  -5.437  1.00  0.00     0.277 HD
ATOM     42 2H10 UNL     1      49.324   2.182  -5.891  1.00  0.00     0.277 HD
ATOM     43 1H10 UNL     1      48.141   2.960  -4.975  1.00  0.00     0.277 HD
ENDBRANCH  39  40
BRANCH  39  44
HETATM   44  N11 UNL     1      50.984   3.093  -3.741  1.00  0.00    -0.043 N 
ATOM     45 3H11 UNL     1      51.820   2.625  -4.091  1.00  0.00     0.277 HD
ATOM     46 2H11 UNL     1      51.019   3.889  -4.379  1.00  0.00     0.277 HD
ATOM     47 1H11 UNL     1      51.038   3.352  -2.756  1.00  0.00     0.277 HD
ENDBRANCH  39  44
ENDBRANCH  34  39
ENDBRANCH  26  27
ENDBRANCH   1  26
TORSDOF 14
ENDMDL
MODEL 2
REMARK VINA RESULT: -6.402576748      1.082      2.331
REMARK  14 active torsions:
REMARK  status: ('A' for Active; 'I' for Inactive)
REMARK    1  A    between atoms: N1_4  and  C4_5 
REMARK    2  A    between atoms: C4_5  and  C5_6 
REMARK    3  A    between atoms: C5_6  and  C6_7 
REMARK    4  A    between atoms: N2_9  and  C8_10 
REMARK    5  A    between atoms: C8_10  and  C9_11 
REMARK    6  A    between atoms: C9_11  and  C10_12 
REMARK    7  A    between atoms: C9_11  and  C13_19 
REMARK    8  A    between atoms: C10_12  and  C11_13 
REMARK    9  A    between atoms: C11_13  and  N3_14 
REMARK       I    between atoms: N3_14  and  C12_16 
REMARK   10  A    between atoms: C13_19  and  N6_20 
REMARK   11  A    between atoms: C16_25  and  N8_26 
REMARK   12  A    between atoms: C17_31  and  C18_32 
REMARK   13  A    between atoms: C18_32  and  N10_33 
REMARK   14  A    between atoms: C18_32  and  N11_37 
ROOT
HETATM    1  C9  UNL     1      48.474   0.894  -2.250  1.00  0.00     0.025 C 
ENDROOT
BRANCH   1   2
HETATM    2  C8  UNL     1      47.959  -0.498  -2.136  1.00  0.00     0.156 C 
BRANCH   2   3
HETATM    3  N2  UNL     1      47.202  -0.787  -3.358  1.00  0.00    -0.286 N 
HETATM    4  C7  UNL     1      47.280  -1.859  -4.143  1.00  0.00     0.142 A 
HETATM    5  C6  UNL     1      46.333  -1.659  -5.184  1.00  0.00     0.068 A 
HETATM    6  N13 UNL     1      45.779  -0.487  -4.921  1.00  0.00    -0.285 N 
HETATM    7  N12 UNL     1      46.292   0.016  -3.854  1.00  0.00    -0.240 N 
ATOM      8  H13 UNL     1      45.052  -0.045  -5.483  1.00  0.00     0.188 HD
ATOM      9  H12 UNL     1      46.026   0.914  -3.449  1.00  0.00     0.208 HD
BRANCH   5  10
HETATM   10  C5  UNL     1      46.153  -2.599  -6.262  1.00  0.00     0.050 C 
BRANCH  10  11
HETATM   11  C4  UNL     1      46.587  -3.752  -6.529  1.00  0.00     0.099 C 
BRANCH  11  12
HETATM   12  N1  UNL     1      47.569  -4.621  -6.022  1.00  0.00    -0.327 N 
HETATM   13  C3  UNL     1      47.305  -5.954  -5.742  1.00  0.00     0.121 A 
HETATM   14  C2  UNL     1      48.485  -6.512  -5.327  1.00  0.00     0.024 A 
HETATM   15  C1  UNL     1      48.564  -7.960  -4.938  1.00  0.00     0.070 C 
HETATM   16  N14 UNL     1      49.438  -5.614  -5.335  1.00  0.00    -0.350 N 
HETATM   17  C19 UNL     1      48.870  -4.452  -5.765  1.00  0.00     0.189 A 
HETATM   18  C20 UNL     1      50.814  -5.852  -4.956  1.00  0.00     0.156 C 
ENDBRANCH  11  12
ENDBRANCH  10  11
ENDBRANCH   5  10
ENDBRANCH   2   3
ENDBRANCH   1   2
BRANCH   1  19
HETATM   19  C10 UNL     1      48.131   1.818  -1.138  1.00  0.00     0.027 C 
BRANCH  19  20
HETATM   20  C11 UNL     1      49.136   2.061  -0.082  1.00  0.00     0.122 C 
BRANCH  20  21
HETATM   21  N3  UNL     1      49.990   3.196  -0.248  1.00  0.00    -0.367 N 
HETATM   22  C12 UNL     1      51.272   3.158  -0.130  1.00  0.00     0.196 C 
HETATM   23  N4  UNL     1      51.991   4.365  -0.323  1.00  0.00    -0.067 NA
HETATM   24  N5  UNL     1      51.906   1.925   0.184  1.00  0.00    -0.067 NA
ATOM     25  H3  UNL     1      49.557   4.091  -0.475  1.00  0.00     0.161 HD
ENDBRANCH  20  21
ENDBRANCH  19  20
ENDBRANCH   1  19
BRANCH   1  26
HETATM   26  C13 UNL     1      49.917   1.055  -2.642  1.00  0.00     0.138 C 
BRANCH  26  27
HETATM   27  N6  UNL     1      50.392   0.090  -3.611  1.00  0.00    -0.322 N 
HETATM   28  C14 UNL     1      50.074   0.323  -4.895  1.00  0.00     0.097 A 
HETATM   29  C15 UNL     1      49.252   1.391  -5.433  1.00  0.00     0.090 C 
HETATM   30  N7  UNL     1      50.550  -0.566  -5.826  1.00  0.00    -0.181 N 
HETATM   31  C16 UNL     1      51.299  -1.619  -5.458  1.00  0.00     0.678 A 
ATOM     32  H7  UNL     1      50.332  -0.426  -6.812  1.00  0.00     0.185 HD
HETATM   33  N9  UNL     1      51.593  -1.817  -4.168  1.00  0.00    -0.177 N 
HETATM   34  C17 UNL     1      51.144  -0.959  -3.200  1.00  0.00     0.159 A 
ATOM     35  H9  UNL     1      52.162  -2.620  -3.901  1.00  0.00     0.185 HD
BRANCH  31  36
HETATM   36  N8  UNL     1      51.760  -2.472  -6.311  1.00  0.00    -0.234 N 
ATOM     37  H82 UNL     1      52.607  -2.979  -6.056  1.00  0.00     0.174 HD
ATOM     38  H81 UNL     1      51.308  -2.648  -7.208  1.00  0.00     0.174 HD
ENDBRANCH  31  36
BRANCH  34  39
HETATM   39  C18 UNL     1      51.490  -1.222  -1.796  1.00  0.00     0.445 C 
BRANCH  39  40
HETATM   40  N10 UNL     1      52.759  -0.567  -1.432  1.00  0.00    -0.043 N 
ATOM     41 3H10 UNL     1      52.620   0.415  -1.192  1.00  0.00     0.277 HD
ATOM     42 2H10 UNL     1      53.109  -0.898  -0.533  1.00  0.00     0.277 HD
ATOM     43 1H10 UNL     1      53.454  -0.679  -2.169  1.00  0.00     0.277 HD
ENDBRANCH  39  40
BRANCH  39  44
HETATM   44  N11 UNL     1      51.836  -2.661  -1.747  1.00  0.00    -0.043 N 
ATOM     45 3H11 UNL     1      52.081  -2.994  -0.815  1.00  0.00     0.277 HD
ATOM     46 2H11 UNL     1      51.039  -3.282  -1.887  1.00  0.00     0.277 HD
ATOM     47 1H11 UNL     1      52.578  -2.779  -2.436  1.00  0.00     0.277 HD
ENDBRANCH  39  44
ENDBRANCH  34  39
ENDBRANCH  26  27
ENDBRANCH   1  26
TORSDOF 14
ENDMDL
MODEL 3
REMARK VINA RESULT: -6.349046054      1.712      3.612
REMARK  14 active torsions:
REMARK  status: ('A' for Active; 'I' for Inactive)
REMARK    1  A    between atoms: N1_4  and  C4_5 
REMARK    2  A    between atoms: C4_5  and  C5_6 
REMARK    3  A    between atoms: C5_6  and  C6_7 
REMARK    4  A    between atoms: N2_9  and  C8_10 
REMARK    5  A    between atoms: C8_10  and  C9_11 
REMARK    6  A    between atoms: C9_11  and  C10_12 
REMARK    7  A    between atoms: C9_11  and  C13_19 
REMARK    8  A    between atoms: C10_12  and  C11_13 
REMARK    9  A    between atoms: C11_13  and  N3_14 
REMARK       I    between atoms: N3_14  and  C12_16 
REMARK   10  A    between atoms: C13_19  and  N6_20 
REMARK   11  A    between atoms: C16_25  and  N8_26 
REMARK   12  A    between atoms: C17_31  and  C18_32 
REMARK   13  A    between atoms: C18_32  and  N10_33 
REMARK   14  A    between atoms: C18_32  and  N11_37 
ROOT
HETATM    1  C9  UNL     1      48.948   0.492  -2.088  1.00  0.00     0.025 C 
ENDROOT
BRANCH   1   2
HETATM    2  C8  UNL     1      47.719  -0.315  -1.858  1.00  0.00     0.156 C 
BRANCH   2   3
HETATM    3  N2  UNL     1      47.077  -0.516  -3.161  1.00  0.00    -0.286 N 
HETATM    4  C7  UNL     1      47.124  -1.588  -3.948  1.00  0.00     0.142 A 
HETATM    5  C6  UNL     1      46.327  -1.282  -5.085  1.00  0.00     0.068 A 
HETATM    6  N13 UNL     1      45.880  -0.056  -4.868  1.00  0.00    -0.285 N 
HETATM    7  N12 UNL     1      46.321   0.385  -3.743  1.00  0.00    -0.240 N 
ATOM      8  H13 UNL     1      45.273   0.464  -5.501  1.00  0.00     0.188 HD
ATOM      9  H12 UNL     1      46.112   1.305  -3.357  1.00  0.00     0.208 HD
BRANCH   5  10
HETATM   10  C5  UNL     1      46.167  -2.194  -6.190  1.00  0.00     0.050 C 
BRANCH  10  11
HETATM   11  C4  UNL     1      46.807  -3.184  -6.636  1.00  0.00     0.099 C 
BRANCH  11  12
HETATM   12  N1  UNL     1      47.632  -4.193  -6.111  1.00  0.00    -0.327 N 
HETATM   13  C3  UNL     1      47.198  -5.502  -5.962  1.00  0.00     0.121 A 
HETATM   14  C2  UNL     1      48.262  -6.221  -5.484  1.00  0.00     0.024 A 
HETATM   15  C1  UNL     1      48.143  -7.691  -5.205  1.00  0.00     0.070 C 
HETATM   16  N14 UNL     1      49.303  -5.441  -5.333  1.00  0.00    -0.350 N 
HETATM   17  C19 UNL     1      48.911  -4.194  -5.721  1.00  0.00     0.189 A 
HETATM   18  C20 UNL     1      50.599  -5.862  -4.847  1.00  0.00     0.156 C 
ENDBRANCH  11  12
ENDBRANCH  10  11
ENDBRANCH   5  10
ENDBRANCH   2   3
ENDBRANCH   1   2
BRANCH   1  19
HETATM   19  C10 UNL     1      49.949  -0.079  -3.026  1.00  0.00     0.027 C 
BRANCH  19  20
HETATM   20  C11 UNL     1      51.140  -0.753  -2.469  1.00  0.00     0.122 C 
BRANCH  20  21
HETATM   21  N3  UNL     1      51.682  -0.217  -1.259  1.00  0.00    -0.367 N 
HETATM   22  C12 UNL     1      52.733   0.526  -1.206  1.00  0.00     0.196 C 
HETATM   23  N4  UNL     1      53.154   0.987   0.068  1.00  0.00    -0.067 NA
HETATM   24  N5  UNL     1      53.418   0.851  -2.408  1.00  0.00    -0.067 NA
ATOM     25  H3  UNL     1      51.206  -0.436  -0.384  1.00  0.00     0.161 HD
ENDBRANCH  20  21
ENDBRANCH  19  20
ENDBRANCH   1  19
BRANCH   1  26
HETATM   26  C13 UNL     1      48.757   1.961  -2.352  1.00  0.00     0.138 C 
BRANCH  26  27
HETATM   27  N6  UNL     1      49.951   2.764  -2.192  1.00  0.00    -0.322 N 
HETATM   28  C14 UNL     1      50.507   3.243  -3.317  1.00  0.00     0.097 A 
HETATM   29  C15 UNL     1      50.100   3.001  -4.689  1.00  0.00     0.090 C 
HETATM   30  N7  UNL     1      51.618   4.036  -3.173  1.00  0.00    -0.181 N 
HETATM   31  C16 UNL     1      52.119   4.313  -1.959  1.00  0.00     0.678 A 
ATOM     32  H7  UNL     1      52.071   4.420  -4.003  1.00  0.00     0.185 HD
HETATM   33  N9  UNL     1      51.536   3.816  -0.862  1.00  0.00    -0.177 N 
HETATM   34  C17 UNL     1      50.425   3.020  -0.950  1.00  0.00     0.159 A 
ATOM     35  H9  UNL     1      51.926   4.033   0.055  1.00  0.00     0.185 HD
BRANCH  31  36
HETATM   36  N8  UNL     1      53.163   5.055  -1.793  1.00  0.00    -0.234 N 
ATOM     37  H82 UNL     1      53.116   5.777  -1.075  1.00  0.00     0.174 HD
ATOM     38  H81 UNL     1      54.011   4.937  -2.346  1.00  0.00     0.174 HD
ENDBRANCH  31  36
BRANCH  34  39
HETATM   39  C18 UNL     1      49.824   2.495   0.285  1.00  0.00     0.445 C 
BRANCH  39  40
HETATM   40  N10 UNL     1      48.709   3.347   0.736  1.00  0.00    -0.043 N 
ATOM     41 3H10 UNL     1      48.009   2.810   1.249  1.00  0.00     0.277 HD
ATOM     42 2H10 UNL     1      48.998   3.980   1.481  1.00  0.00     0.277 HD
ATOM     43 1H10 UNL     1      48.295   3.852  -0.047  1.00  0.00     0.277 HD
ENDBRANCH  39  40
BRANCH  39  44
HETATM   44  N11 UNL     1      50.847   2.707   1.333  1.00  0.00    -0.043 N 
ATOM     45 3H11 UNL     1      51.777   2.907   0.967  1.00  0.00     0.277 HD
ATOM     46 2H11 UNL     1      50.734   3.581   1.848  1.00  0.00     0.277 HD
ATOM     47 1H11 UNL     1      50.804   1.874   1.919  1.00  0.00     0.277 HD
ENDBRANCH  39  44
ENDBRANCH  34  39
ENDBRANCH  26  27
ENDBRANCH   1  26
TORSDOF 14
ENDMDL
MODEL 4
REMARK VINA RESULT: -6.322076445      1.447      4.553
REMARK  14 active torsions:
REMARK  status: ('A' for Active; 'I' for Inactive)
REMARK    1  A    between atoms: N1_4  and  C4_5 
REMARK    2  A    between atoms: C4_5  and  C5_6 
REMARK    3  A    between atoms: C5_6  and  C6_7 
REMARK    4  A    between atoms: N2_9  and  C8_10 
REMARK    5  A    between atoms: C8_10  and  C9_11 
REMARK    6  A    between atoms: C9_11  and  C10_12 
REMARK    7  A    between atoms: C9_11  and  C13_19 
REMARK    8  A    between atoms: C10_12  and  C11_13 
REMARK    9  A    between atoms: C11_13  and  N3_14 
REMARK       I    between atoms: N3_14  and  C12_16 
REMARK   10  A    between atoms: C13_19  and  N6_20 
REMARK   11  A    between atoms: C16_25  and  N8_26 
REMARK   12  A    between atoms: C17_31  and  C18_32 
REMARK   13  A    between atoms: C18_32  and  N10_33 
REMARK   14  A    between atoms: C18_32  and  N11_37 
ROOT
HETATM    1  C9  UNL     1      48.893  -0.645  -2.060  1.00  0.00     0.025 C 
ENDROOT
BRANCH   1   2
HETATM    2  C8  UNL     1      47.506  -1.184  -2.027  1.00  0.00     0.156 C 
BRANCH   2   3
HETATM    3  N2  UNL     1      46.951  -1.049  -3.377  1.00  0.00    -0.286 N 
HETATM    4  C7  UNL     1      46.878  -1.969  -4.336  1.00  0.00     0.142 A 
HETATM    5  C6  UNL     1      46.246  -1.341  -5.443  1.00  0.00     0.068 A 
HETATM    6  N13 UNL     1      46.001  -0.105  -5.040  1.00  0.00    -0.285 N 
HETATM    7  N12 UNL     1      46.415   0.058  -3.833  1.00  0.00    -0.240 N 
ATOM      8  H13 UNL     1      45.549   0.615  -5.604  1.00  0.00     0.188 HD
ATOM      9  H12 UNL     1      46.338   0.927  -3.304  1.00  0.00     0.208 HD
BRANCH   5  10
HETATM   10  C5  UNL     1      46.024  -2.016  -6.697  1.00  0.00     0.050 C 
BRANCH  10  11
HETATM   11  C4  UNL     1      46.559  -2.983  -7.303  1.00  0.00     0.099 C 
BRANCH  11  12
HETATM   12  N1  UNL     1      47.461  -4.015  -6.991  1.00  0.00    -0.327 N 
HETATM   13  C3  UNL     1      47.109  -5.088  -6.184  1.00  0.00     0.121 A 
HETATM   14  C2  UNL     1      48.194  -5.923  -6.139  1.00  0.00     0.024 A 
HETATM   15  C1  UNL     1      48.161  -7.197  -5.346  1.00  0.00     0.070 C 
HETATM   16  N14 UNL     1      49.172  -5.432  -6.859  1.00  0.00    -0.350 N 
HETATM   17  C19 UNL     1      48.716  -4.258  -7.382  1.00  0.00     0.189 A 
HETATM   18  C20 UNL     1      50.469  -6.048  -7.037  1.00  0.00     0.156 C 
ENDBRANCH  11  12
ENDBRANCH  10  11
ENDBRANCH   5  10
ENDBRANCH   2   3
ENDBRANCH   1   2
BRANCH   1  19
HETATM   19  C10 UNL     1      49.853  -1.345  -2.953  1.00  0.00     0.027 C 
BRANCH  19  20
HETATM   20  C11 UNL     1      50.544  -0.565  -4.002  1.00  0.00     0.122 C 
BRANCH  20  21
HETATM   21  N3  UNL     1      50.267  -0.917  -5.359  1.00  0.00    -0.367 N 
HETATM   22  C12 UNL     1      49.544  -0.208  -6.155  1.00  0.00     0.196 C 
HETATM   23  N4  UNL     1      49.356  -0.684  -7.478  1.00  0.00    -0.067 NA
HETATM   24  N5  UNL     1      48.973   1.005  -5.684  1.00  0.00    -0.067 NA
ATOM     25  H3  UNL     1      50.667  -1.783  -5.719  1.00  0.00     0.161 HD
ENDBRANCH  20  21
ENDBRANCH  19  20
ENDBRANCH   1  19
BRANCH   1  26
HETATM   26  C13 UNL     1      49.040   0.846  -2.194  1.00  0.00     0.138 C 
BRANCH  26  27
HETATM   27  N6  UNL     1      49.285   1.545  -0.950  1.00  0.00    -0.322 N 
HETATM   28  C14 UNL     1      48.203   1.972  -0.279  1.00  0.00     0.097 A 
HETATM   29  C15 UNL     1      46.811   1.881  -0.677  1.00  0.00     0.090 C 
HETATM   30  N7  UNL     1      48.424   2.605   0.919  1.00  0.00    -0.181 N 
HETATM   31  C16 UNL     1      49.669   2.783   1.389  1.00  0.00     0.678 A 
ATOM     32  H7  UNL     1      47.630   2.944   1.461  1.00  0.00     0.185 HD
HETATM   33  N9  UNL     1      50.721   2.343   0.689  1.00  0.00    -0.177 N 
HETATM   34  C17 UNL     1      50.556   1.705  -0.511  1.00  0.00     0.159 A 
ATOM     35  H9  UNL     1      51.662   2.485   1.056  1.00  0.00     0.185 HD
BRANCH  31  36
HETATM   36  N8  UNL     1      49.907   3.374   2.512  1.00  0.00    -0.234 N 
ATOM     37  H82 UNL     1      49.186   3.995   2.878  1.00  0.00     0.174 HD
ATOM     38  H81 UNL     1      50.776   3.238   3.029  1.00  0.00     0.174 HD
ENDBRANCH  31  36
BRANCH  34  39
HETATM   39  C18 UNL     1      51.744   1.244  -1.244  1.00  0.00     0.445 C 
BRANCH  39  40
HETATM   40  N10 UNL     1      52.637   0.463  -0.369  1.00  0.00    -0.043 N 
ATOM     41 3H10 UNL     1      52.658   0.841   0.579  1.00  0.00     0.277 HD
ATOM     42 2H10 UNL     1      52.248  -0.456  -0.161  1.00  0.00     0.277 HD
ATOM     43 1H10 UNL     1      53.572   0.394  -0.767  1.00  0.00     0.277 HD
ENDBRANCH  39  40
BRANCH  39  44
HETATM   44  N11 UNL     1      52.533   2.468  -1.510  1.00  0.00    -0.043 N 
ATOM     45 3H11 UNL     1      52.839   2.559  -2.479  1.00  0.00     0.277 HD
ATOM     46 2H11 UNL     1      51.983   3.327  -1.481  1.00  0.00     0.277 HD
ATOM     47 1H11 UNL     1      53.297   2.444  -0.836  1.00  0.00     0.277 HD
ENDBRANCH  39  44
ENDBRANCH  34  39
ENDBRANCH  26  27
ENDBRANCH   1  26
TORSDOF 14
ENDMDL
MODEL 5
REMARK VINA RESULT: -6.240899025      1.902      4.247
REMARK  14 active torsions:
REMARK  status: ('A' for Active; 'I' for Inactive)
REMARK    1  A    between atoms: N1_4  and  C4_5 
REMARK    2  A    between atoms: C4_5  and  C5_6 
REMARK    3  A    between atoms: C5_6  and  C6_7 
REMARK    4  A    between atoms: N2_9  and  C8_10 
REMARK    5  A    between atoms: C8_10  and  C9_11 
REMARK    6  A    between atoms: C9_11  and  C10_12 
REMARK    7  A    between atoms: C9_11  and  C13_19 
REMARK    8  A    between atoms: C10_12  and  C11_13 
REMARK    9  A    between atoms: C11_13  and  N3_14 
REMARK       I    between atoms: N3_14  and  C12_16 
REMARK   10  A    between atoms: C13_19  and  N6_20 
REMARK   11  A    between atoms: C16_25  and  N8_26 
REMARK   12  A    between atoms: C17_31  and  C18_32 
REMARK   13  A    between atoms: C18_32  and  N10_33 
REMARK   14  A    between atoms: C18_32  and  N11_37 
ROOT
HETATM    1  C9  UNL     1      50.416   0.985  -3.287  1.00  0.00     0.025 C 
ENDROOT
BRANCH   1   2
HETATM    2  C8  UNL     1      51.857   0.617  -3.272  1.00  0.00     0.156 C 
BRANCH   2   3
HETATM    3  N2  UNL     1      51.943  -0.806  -2.927  1.00  0.00    -0.286 N 
HETATM    4  C7  UNL     1      51.993  -1.853  -3.748  1.00  0.00     0.142 A 
HETATM    5  C6  UNL     1      52.082  -3.004  -2.919  1.00  0.00     0.068 A 
HETATM    6  N13 UNL     1      52.078  -2.535  -1.682  1.00  0.00    -0.285 N 
HETATM    7  N12 UNL     1      51.997  -1.251  -1.695  1.00  0.00    -0.240 N 
ATOM      8  H13 UNL     1      52.131  -3.108  -0.840  1.00  0.00     0.188 HD
ATOM      9  H12 UNL     1      51.977  -0.661  -0.863  1.00  0.00     0.208 HD
BRANCH   5  10
HETATM   10  C5  UNL     1      52.116  -4.343  -3.450  1.00  0.00     0.050 C 
BRANCH  10  11
HETATM   11  C4  UNL     1      51.579  -4.936  -4.425  1.00  0.00     0.099 C 
BRANCH  11  12
HETATM   12  N1  UNL     1      50.284  -5.345  -4.789  1.00  0.00    -0.327 N 
HETATM   13  C3  UNL     1      49.321  -4.448  -5.230  1.00  0.00     0.121 A 
HETATM   14  C2  UNL     1      48.212  -5.185  -5.551  1.00  0.00     0.024 A 
HETATM   15  C1  UNL     1      46.966  -4.526  -6.069  1.00  0.00     0.070 C 
HETATM   16  N14 UNL     1      48.436  -6.457  -5.336  1.00  0.00    -0.350 N 
HETATM   17  C19 UNL     1      49.713  -6.550  -4.868  1.00  0.00     0.189 A 
HETATM   18  C20 UNL     1      47.486  -7.523  -5.565  1.00  0.00     0.156 C 
ENDBRANCH  11  12
ENDBRANCH  10  11
ENDBRANCH   5  10
ENDBRANCH   2   3
ENDBRANCH   1   2
BRANCH   1  19
HETATM   19  C10 UNL     1      49.921   1.768  -2.125  1.00  0.00     0.027 C 
BRANCH  19  20
HETATM   20  C11 UNL     1      49.291   1.046  -0.999  1.00  0.00     0.122 C 
BRANCH  20  21
HETATM   21  N3  UNL     1      48.530   1.825  -0.074  1.00  0.00    -0.367 N 
HETATM   22  C12 UNL     1      47.243   1.894  -0.076  1.00  0.00     0.196 C 
HETATM   23  N4  UNL     1      46.623   2.709   0.905  1.00  0.00    -0.067 NA
HETATM   24  N5  UNL     1      46.508   1.160  -1.046  1.00  0.00    -0.067 NA
ATOM     25  H3  UNL     1      49.037   2.359   0.632  1.00  0.00     0.161 HD
ENDBRANCH  20  21
ENDBRANCH  19  20
ENDBRANCH   1  19
BRANCH   1  26
HETATM   26  C13 UNL     1      49.872   1.549  -4.571  1.00  0.00     0.138 C 
BRANCH  26  27
HETATM   27  N6  UNL     1      49.470   0.556  -5.546  1.00  0.00    -0.322 N 
HETATM   28  C14 UNL     1      50.300   0.366  -6.585  1.00  0.00     0.097 A 
HETATM   29  C15 UNL     1      51.525   1.081  -6.893  1.00  0.00     0.090 C 
HETATM   30  N7  UNL     1      49.946  -0.598  -7.496  1.00  0.00    -0.181 N 
HETATM   31  C16 UNL     1      48.819  -1.312  -7.345  1.00  0.00     0.678 A 
ATOM     32  H7  UNL     1      50.549  -0.774  -8.299  1.00  0.00     0.185 HD
HETATM   33  N9  UNL     1      48.018  -1.092  -6.296  1.00  0.00    -0.177 N 
HETATM   34  C17 UNL     1      48.325  -0.143  -5.359  1.00  0.00     0.159 A 
ATOM     35  H9  UNL     1      47.164  -1.640  -6.193  1.00  0.00     0.185 HD
BRANCH  31  36
HETATM   36  N8  UNL     1      48.460  -2.224  -8.186  1.00  0.00    -0.234 N 
ATOM     37  H82 UNL     1      48.115  -1.916  -9.094  1.00  0.00     0.174 HD
ATOM     38  H81 UNL     1      48.514  -3.219  -7.970  1.00  0.00     0.174 HD
ENDBRANCH  31  36
BRANCH  34  39
HETATM   39  C18 UNL     1      47.411   0.065  -4.226  1.00  0.00     0.445 C 
BRANCH  39  40
HETATM   40  N10 UNL     1      47.317  -1.147  -3.393  1.00  0.00    -0.043 N 
ATOM     41 3H10 UNL     1      48.178  -1.694  -3.427  1.00  0.00     0.277 HD
ATOM     42 2H10 UNL     1      47.317  -0.920  -2.398  1.00  0.00     0.277 HD
ATOM     43 1H10 UNL     1      46.505  -1.706  -3.650  1.00  0.00     0.277 HD
ENDBRANCH  39  40
BRANCH  39  44
HETATM   44  N11 UNL     1      46.063   0.154  -4.831  1.00  0.00    -0.043 N 
ATOM     45 3H11 UNL     1      45.313  -0.164  -4.216  1.00  0.00     0.277 HD
ATOM     46 2H11 UNL     1      45.724   1.110  -4.944  1.00  0.00     0.277 HD
ATOM     47 1H11 UNL     1      46.128  -0.367  -5.705  1.00  0.00     0.277 HD
ENDBRANCH  39  44
ENDBRANCH  34  39
ENDBRANCH  26  27
ENDBRANCH   1  26
TORSDOF 14
ENDMDL
