MODEL 1
REMARK VINA RESULT: -7.349880655      0.000      0.000
REMARK  10 active torsions:
REMARK  status: ('A' for Active; 'I' for Inactive)
REMARK       I    between atoms: C2_2  and  N1_4 
REMARK    1  A    between atoms: N1_4  and  C3_5 
REMARK    2  A    between atoms: N1_4  and  C13_31 
REMARK    3  A    between atoms: C3_5  and  C4_6 
REMARK       I    between atoms: C4_6  and  N2_8 
REMARK    4  A    between atoms: N2_8  and  C5_10 
REMARK    5  A    between atoms: C5_10  and  C6_11 
REMARK    6  A    between atoms: C5_10  and  C9_20 
REMARK    7  A    between atoms: C6_11  and  C7_12 
REMARK    8  A    between atoms: C7_12  and  C8_13 
REMARK       I    between atoms: C8_13  and  N3_15 
REMARK    9  A    between atoms: N3_15  and  N4_17 
REMARK   10  A    between atoms: C10_21  and  C11_22 
ROOT
HETATM    1  C5  UNL     1      49.246   1.079  -1.746  1.00  0.00     0.139 C 
ENDROOT
BRANCH   1   2
HETATM    2  N2  UNL     1      50.582   1.495  -2.150  1.00  0.00    -0.349 N 
HETATM    3  C4  UNL     1      50.991   1.805  -3.497  1.00  0.00     0.236 C 
HETATM    4  O2  UNL     1      50.100   1.686  -4.357  1.00  0.00    -0.272 OA
ATOM      5  H2  UNL     1      51.287   1.574  -1.418  1.00  0.00     0.163 HD
BRANCH   3   6
HETATM    6  C3  UNL     1      52.380   2.225  -3.753  1.00  0.00     0.235 C 
BRANCH   6   7
HETATM    7  N1  UNL     1      53.341   1.165  -3.703  1.00  0.00    -0.303 N 
HETATM    8  C2  UNL     1      54.735   1.546  -3.688  1.00  0.00     0.221 C 
HETATM    9  C1  UNL     1      55.150   2.929  -3.968  1.00  0.00     0.117 C 
HETATM   10  O1  UNL     1      55.615   0.686  -3.434  1.00  0.00    -0.273 OA
BRANCH   7  11
HETATM   11  C13 UNL     1      53.017  -0.208  -3.567  1.00  0.00     0.129 A 
HETATM   12  C14 UNL     1      52.762  -1.045  -4.601  1.00  0.00     0.042 A 
HETATM   13  C15 UNL     1      52.846  -0.590  -6.009  1.00  0.00     0.071 C 
HETATM   14  N9  UNL     1      52.440  -2.373  -4.381  1.00  0.00    -0.310 N 
HETATM   15  C16 UNL     1      52.378  -2.842  -3.137  1.00  0.00     0.327 A 
ATOM     16  H9  UNL     1      52.250  -2.991  -5.170  1.00  0.00     0.170 HD
HETATM   17  O5  UNL     1      52.089  -4.036  -2.910  1.00  0.00    -0.247 OA
HETATM   18  N10 UNL     1      52.627  -2.030  -2.120  1.00  0.00    -0.274 N 
HETATM   19  C17 UNL     1      52.946  -0.732  -2.264  1.00  0.00     0.278 A 
ATOM     20  H10 UNL     1      52.574  -2.411  -1.175  1.00  0.00     0.173 HD
HETATM   21  O6  UNL     1      53.180   0.013  -1.294  1.00  0.00    -0.265 OA
ENDBRANCH   7  11
ENDBRANCH   6   7
ENDBRANCH   3   6
ENDBRANCH   1   2
BRANCH   1  22
HETATM   22  C6  UNL     1      49.200  -0.420  -1.601  1.00  0.00     0.041 C 
BRANCH  22  23
HETATM   23  C7  UNL     1      48.860  -1.129  -2.921  1.00  0.00     0.107 C 
BRANCH  23  24
HETATM   24  C8  UNL     1      47.453  -0.748  -3.315  1.00  0.00     0.235 C 
HETATM   25  O3  UNL     1      46.506  -1.213  -2.641  1.00  0.00    -0.272 OA
HETATM   26  N3  UNL     1      47.230   0.101  -4.406  1.00  0.00    -0.277 N 
ATOM     27  H3  UNL     1      48.013   0.471  -4.945  1.00  0.00     0.189 HD
BRANCH  26  28
HETATM   28  N4  UNL     1      45.893   0.439  -4.747  1.00  0.00    -0.343 N 
ATOM     29  H42 UNL     1      45.192  -0.297  -4.830  1.00  0.00     0.176 HD
ATOM     30  H41 UNL     1      45.659   1.420  -4.904  1.00  0.00     0.176 HD
ENDBRANCH  26  28
ENDBRANCH  23  24
ENDBRANCH  22  23
ENDBRANCH   1  22
BRANCH   1  31
HETATM   31  C9  UNL     1      48.811   1.837  -0.547  1.00  0.00     0.085 A 
HETATM   32  C10 UNL     1      49.705   2.433   0.343  1.00  0.00     0.141 A 
HETATM   33  N6  UNL     1      48.920   2.946   1.341  1.00  0.00    -0.279 N 
HETATM   34  N7  UNL     1      47.682   2.680   1.063  1.00  0.00    -0.240 N 
ATOM     35  H6  UNL     1      49.252   3.451   2.163  1.00  0.00     0.189 HD
HETATM   36  N8  UNL     1      47.564   2.000  -0.086  1.00  0.00    -0.282 N 
ATOM     37  H7  UNL     1      46.893   2.953   1.649  1.00  0.00     0.208 HD
HETATM   38  C12 UNL     1      46.286   1.580  -0.603  1.00  0.00     0.179 C 
BRANCH  32  39
HETATM   39  C11 UNL     1      51.154   2.606   0.295  1.00  0.00     0.284 C 
HETATM   40  N5  UNL     1      51.638   3.849  -0.240  1.00  0.00    -0.056 NA
HETATM   41  O4  UNL     1      52.007   1.795   0.666  1.00  0.00    -0.269 OA
ENDBRANCH  32  39
ENDBRANCH   1  31
TORSDOF 10
ENDMDL
MODEL 2
REMARK VINA RESULT: -7.347963612      2.360      4.967
REMARK  10 active torsions:
REMARK  status: ('A' for Active; 'I' for Inactive)
REMARK       I    between atoms: C2_2  and  N1_4 
REMARK    1  A    between atoms: N1_4  and  C3_5 
REMARK    2  A    between atoms: N1_4  and  C13_31 
REMARK    3  A    between atoms: C3_5  and  C4_6 
REMARK       I    between atoms: C4_6  and  N2_8 
REMARK    4  A    between atoms: N2_8  and  C5_10 
REMARK    5  A    between atoms: C5_10  and  C6_11 
REMARK    6  A    between atoms: C5_10  and  C9_20 
REMARK    7  A    between atoms: C6_11  and  C7_12 
REMARK    8  A    between atoms: C7_12  and  C8_13 
REMARK       I    between atoms: C8_13  and  N3_15 
REMARK    9  A    between atoms: N3_15  and  N4_17 
REMARK   10  A    between atoms: C10_21  and  C11_22 
ROOT
HETATM    1  C5  UNL     1      50.025   0.714  -2.154  1.00  0.00     0.139 C 
ENDROOT
BRANCH   1   2
HETATM    2  N2  UNL     1      51.117  -0.185  -2.503  1.00  0.00    -0.349 N 
HETATM    3  C4  UNL     1      51.202  -1.579  -2.143  1.00  0.00     0.236 C 
HETATM    4  O2  UNL     1      50.247  -2.007  -1.472  1.00  0.00    -0.272 OA
ATOM      5  H2  UNL     1      51.886   0.203  -3.048  1.00  0.00     0.163 HD
BRANCH   3   6
HETATM    6  C3  UNL     1      52.367  -2.369  -2.579  1.00  0.00     0.235 C 
BRANCH   6   7
HETATM    7  N1  UNL     1      52.248  -2.929  -3.891  1.00  0.00    -0.303 N 
HETATM    8  C2  UNL     1      53.045  -2.325  -4.935  1.00  0.00     0.221 C 
HETATM    9  C1  UNL     1      53.743  -1.048  -4.718  1.00  0.00     0.117 C 
HETATM   10  O1  UNL     1      53.148  -2.894  -6.050  1.00  0.00    -0.273 OA
BRANCH   7  11
HETATM   11  C13 UNL     1      51.488  -4.083  -4.207  1.00  0.00     0.129 A 
HETATM   12  C14 UNL     1      50.229  -4.062  -4.708  1.00  0.00     0.042 A 
HETATM   13  C15 UNL     1      49.536  -2.789  -5.016  1.00  0.00     0.071 C 
HETATM   14  N9  UNL     1      49.550  -5.237  -4.978  1.00  0.00    -0.310 N 
HETATM   15  C16 UNL     1      50.135  -6.409  -4.746  1.00  0.00     0.327 A 
ATOM     16  H9  UNL     1      48.601  -5.205  -5.353  1.00  0.00     0.170 HD
HETATM   17  O5  UNL     1      49.544  -7.485  -4.980  1.00  0.00    -0.247 OA
HETATM   18  N10 UNL     1      51.367  -6.438  -4.258  1.00  0.00    -0.274 N 
HETATM   19  C17 UNL     1      52.082  -5.336  -3.974  1.00  0.00     0.278 A 
ATOM     20  H10 UNL     1      51.797  -7.348  -4.088  1.00  0.00     0.173 HD
HETATM   21  O6  UNL     1      53.240  -5.386  -3.520  1.00  0.00    -0.265 OA
ENDBRANCH   7  11
ENDBRANCH   6   7
ENDBRANCH   3   6
ENDBRANCH   1   2
BRANCH   1  22
HETATM   22  C6  UNL     1      50.581   2.035  -1.690  1.00  0.00     0.041 C 
BRANCH  22  23
HETATM   23  C7  UNL     1      50.985   2.015  -0.207  1.00  0.00     0.107 C 
BRANCH  23  24
HETATM   24  C8  UNL     1      49.813   2.501   0.611  1.00  0.00     0.235 C 
HETATM   25  O3  UNL     1      50.051   3.174   1.639  1.00  0.00    -0.272 OA
HETATM   26  N3  UNL     1      48.503   2.199   0.218  1.00  0.00    -0.277 N 
ATOM     27  H3  UNL     1      48.326   1.648  -0.622  1.00  0.00     0.189 HD
BRANCH  26  28
HETATM   28  N4  UNL     1      47.424   2.674   1.011  1.00  0.00    -0.343 N 
ATOM     29  H42 UNL     1      47.481   3.600   1.436  1.00  0.00     0.176 HD
ATOM     30  H41 UNL     1      46.609   2.076   1.140  1.00  0.00     0.176 HD
ENDBRANCH  26  28
ENDBRANCH  23  24
ENDBRANCH  22  23
ENDBRANCH   1  22
BRANCH   1  31
HETATM   31  C9  UNL     1      49.054   0.802  -3.272  1.00  0.00     0.085 A 
HETATM   32  C10 UNL     1      47.738   0.346  -3.175  1.00  0.00     0.141 A 
HETATM   33  N6  UNL     1      47.210   0.525  -4.425  1.00  0.00    -0.279 N 
HETATM   34  N7  UNL     1      48.126   1.040  -5.185  1.00  0.00    -0.240 N 
ATOM     35  H6  UNL     1      46.259   0.292  -4.711  1.00  0.00     0.189 HD
HETATM   36  N8  UNL     1      49.275   1.229  -4.521  1.00  0.00    -0.282 N 
ATOM     37  H7  UNL     1      47.989   1.273  -6.168  1.00  0.00     0.208 HD
HETATM   38  C12 UNL     1      50.447   1.782  -5.155  1.00  0.00     0.179 C 
BRANCH  32  39
HETATM   39  C11 UNL     1      46.965  -0.155  -2.042  1.00  0.00     0.284 C 
HETATM   40  N5  UNL     1      46.734  -1.573  -1.997  1.00  0.00    -0.056 NA
HETATM   41  O4  UNL     1      46.490   0.512  -1.120  1.00  0.00    -0.269 OA
ENDBRANCH  32  39
ENDBRANCH   1  31
TORSDOF 10
ENDMDL
MODEL 3
REMARK VINA RESULT: -7.089950181      2.443      5.055
REMARK  10 active torsions:
REMARK  status: ('A' for Active; 'I' for Inactive)
REMARK       I    between atoms: C2_2  and  N1_4 
REMARK    1  A    between atoms: N1_4  and  C3_5 
REMARK    2  A    between atoms: N1_4  and  C13_31 
REMARK    3  A    between atoms: C3_5  and  C4_6 
REMARK       I    between atoms: C4_6  and  N2_8 
REMARK    4  A    between atoms: N2_8  and  C5_10 
REMARK    5  A    between atoms: C5_10  and  C6_11 
REMARK    6  A    between atoms: C5_10  and  C9_20 
REMARK    7  A    between atoms: C6_11  and  C7_12 
REMARK    8  A    between atoms: C7_12  and  C8_13 
REMARK       I    between atoms: C8_13  and  N3_15 
REMARK    9  A    between atoms: N3_15  and  N4_17 
REMARK   10  A    between atoms: C10_21  and  C11_22 
ROOT
HETATM    1  C5  UNL     1      50.035   0.494  -2.384  1.00  0.00     0.139 C 
ENDROOT
BRANCH   1   2
HETATM    2  N2  UNL     1      51.117  -0.375  -2.828  1.00  0.00    -0.349 N 
HETATM    3  C4  UNL     1      51.477  -1.636  -2.230  1.00  0.00     0.236 C 
HETATM    4  O2  UNL     1      50.786  -1.969  -1.251  1.00  0.00    -0.272 OA
ATOM      5  H2  UNL     1      51.666  -0.065  -3.629  1.00  0.00     0.163 HD
BRANCH   3   6
HETATM    6  C3  UNL     1      52.592  -2.415  -2.797  1.00  0.00     0.235 C 
BRANCH   6   7
HETATM    7  N1  UNL     1      52.341  -2.951  -4.101  1.00  0.00    -0.303 N 
HETATM    8  C2  UNL     1      53.069  -2.363  -5.202  1.00  0.00     0.221 C 
HETATM    9  C1  UNL     1      53.831  -1.117  -5.032  1.00  0.00     0.117 C 
HETATM   10  O1  UNL     1      53.055  -2.919  -6.328  1.00  0.00    -0.273 OA
BRANCH   7  11
HETATM   11  C13 UNL     1      51.512  -4.070  -4.363  1.00  0.00     0.129 A 
HETATM   12  C14 UNL     1      51.918  -5.361  -4.300  1.00  0.00     0.042 A 
HETATM   13  C15 UNL     1      53.297  -5.724  -3.897  1.00  0.00     0.071 C 
HETATM   14  N9  UNL     1      51.046  -6.398  -4.585  1.00  0.00    -0.310 N 
HETATM   15  C16 UNL     1      49.788  -6.130  -4.925  1.00  0.00     0.327 A 
ATOM     16  H9  UNL     1      51.367  -7.365  -4.534  1.00  0.00     0.170 HD
HETATM   17  O5  UNL     1      48.980  -7.047  -5.188  1.00  0.00    -0.247 OA
HETATM   18  N10 UNL     1      49.382  -4.870  -4.988  1.00  0.00    -0.274 N 
HETATM   19  C17 UNL     1      50.177  -3.819  -4.724  1.00  0.00     0.278 A 
ATOM     20  H10 UNL     1      48.413  -4.688  -5.251  1.00  0.00     0.173 HD
HETATM   21  O6  UNL     1      49.774  -2.642  -4.785  1.00  0.00    -0.265 OA
ENDBRANCH   7  11
ENDBRANCH   6   7
ENDBRANCH   3   6
ENDBRANCH   1   2
BRANCH   1  22
HETATM   22  C6  UNL     1      50.600   1.798  -1.885  1.00  0.00     0.041 C 
BRANCH  22  23
HETATM   23  C7  UNL     1      51.047   1.722  -0.417  1.00  0.00     0.107 C 
BRANCH  23  24
HETATM   24  C8  UNL     1      49.970   2.343   0.440  1.00  0.00     0.235 C 
HETATM   25  O3  UNL     1      50.323   3.081   1.388  1.00  0.00    -0.272 OA
HETATM   26  N3  UNL     1      48.619   2.091   0.171  1.00  0.00    -0.277 N 
ATOM     27  H3  UNL     1      48.348   1.486  -0.605  1.00  0.00     0.189 HD
BRANCH  26  28
HETATM   28  N4  UNL     1      47.633   2.694   0.996  1.00  0.00    -0.343 N 
ATOM     29  H42 UNL     1      47.243   3.600   0.737  1.00  0.00     0.176 HD
ATOM     30  H41 UNL     1      47.332   2.204   1.839  1.00  0.00     0.176 HD
ENDBRANCH  26  28
ENDBRANCH  23  24
ENDBRANCH  22  23
ENDBRANCH   1  22
BRANCH   1  31
HETATM   31  C9  UNL     1      49.009   0.624  -3.448  1.00  0.00     0.085 A 
HETATM   32  C10 UNL     1      47.672   0.269  -3.264  1.00  0.00     0.141 A 
HETATM   33  N6  UNL     1      47.087   0.452  -4.488  1.00  0.00    -0.279 N 
HETATM   34  N7  UNL     1      47.993   0.877  -5.313  1.00  0.00    -0.240 N 
ATOM     35  H6  UNL     1      46.106   0.283  -4.713  1.00  0.00     0.189 HD
HETATM   36  N8  UNL     1      49.189   0.998  -4.721  1.00  0.00    -0.282 N 
ATOM     37  H7  UNL     1      47.816   1.092  -6.294  1.00  0.00     0.208 HD
HETATM   38  C12 UNL     1      50.358   1.445  -5.436  1.00  0.00     0.179 C 
BRANCH  32  39
HETATM   39  C11 UNL     1      46.931  -0.142  -2.075  1.00  0.00     0.284 C 
HETATM   40  N5  UNL     1      46.673  -1.548  -1.930  1.00  0.00    -0.056 NA
HETATM   41  O4  UNL     1      46.504   0.593  -1.180  1.00  0.00    -0.269 OA
ENDBRANCH  32  39
ENDBRANCH   1  31
TORSDOF 10
ENDMDL
MODEL 4
REMARK VINA RESULT: -6.929196300      2.815      5.197
REMARK  10 active torsions:
REMARK  status: ('A' for Active; 'I' for Inactive)
REMARK       I    between atoms: C2_2  and  N1_4 
REMARK    1  A    between atoms: N1_4  and  C3_5 
REMARK    2  A    between atoms: N1_4  and  C13_31 
REMARK    3  A    between atoms: C3_5  and  C4_6 
REMARK       I    between atoms: C4_6  and  N2_8 
REMARK    4  A    between atoms: N2_8  and  C5_10 
REMARK    5  A    between atoms: C5_10  and  C6_11 
REMARK    6  A    between atoms: C5_10  and  C9_20 
REMARK    7  A    between atoms: C6_11  and  C7_12 
REMARK    8  A    between atoms: C7_12  and  C8_13 
REMARK       I    between atoms: C8_13  and  N3_15 
REMARK    9  A    between atoms: N3_15  and  N4_17 
REMARK   10  A    between atoms: C10_21  and  C11_22 
ROOT
HETATM    1  C5  UNL     1      49.128  -1.991  -4.854  1.00  0.00     0.139 C 
ENDROOT
BRANCH   1   2
HETATM    2  N2  UNL     1      50.200  -1.602  -3.948  1.00  0.00    -0.349 N 
HETATM    3  C4  UNL     1      51.337  -0.787  -4.295  1.00  0.00     0.236 C 
HETATM    4  O2  UNL     1      51.371  -0.411  -5.480  1.00  0.00    -0.272 OA
ATOM      5  H2  UNL     1      50.142  -1.935  -2.986  1.00  0.00     0.163 HD
BRANCH   3   6
HETATM    6  C3  UNL     1      52.340  -0.465  -3.264  1.00  0.00     0.235 C 
BRANCH   6   7
HETATM    7  N1  UNL     1      52.366   0.910  -2.869  1.00  0.00    -0.303 N 
HETATM    8  C2  UNL     1      53.259   1.783  -3.596  1.00  0.00     0.221 C 
HETATM    9  C1  UNL     1      54.271   1.242  -4.517  1.00  0.00     0.117 C 
HETATM   10  O1  UNL     1      53.178   3.027  -3.444  1.00  0.00    -0.273 OA
BRANCH   7  11
HETATM   11  C13 UNL     1      51.513   1.483  -1.893  1.00  0.00     0.129 A 
HETATM   12  C14 UNL     1      50.302   2.032  -2.154  1.00  0.00     0.042 A 
HETATM   13  C15 UNL     1      49.732   2.041  -3.522  1.00  0.00     0.071 C 
HETATM   14  N9  UNL     1      49.536   2.582  -1.142  1.00  0.00    -0.310 N 
HETATM   15  C16 UNL     1      49.987   2.575   0.109  1.00  0.00     0.327 A 
ATOM     16  H9  UNL     1      48.626   2.993  -1.355  1.00  0.00     0.170 HD
HETATM   17  O5  UNL     1      49.315   3.066   1.042  1.00  0.00    -0.247 OA
HETATM   18  N10 UNL     1      51.170   2.039   0.374  1.00  0.00    -0.274 N 
HETATM   19  C17 UNL     1      51.963   1.488  -0.561  1.00  0.00     0.278 A 
ATOM     20  H10 UNL     1      51.496   2.044   1.341  1.00  0.00     0.173 HD
HETATM   21  O6  UNL     1      53.070   0.986  -0.290  1.00  0.00    -0.265 OA
ENDBRANCH   7  11
ENDBRANCH   6   7
ENDBRANCH   3   6
ENDBRANCH   1   2
BRANCH   1  22
HETATM   22  C6  UNL     1      48.727  -3.419  -4.588  1.00  0.00     0.041 C 
BRANCH  22  23
HETATM   23  C7  UNL     1      49.148  -4.369  -5.720  1.00  0.00     0.107 C 
BRANCH  23  24
HETATM   24  C8  UNL     1      48.783  -5.778  -5.318  1.00  0.00     0.235 C 
HETATM   25  O3  UNL     1      49.706  -6.549  -4.970  1.00  0.00    -0.272 OA
HETATM   26  N3  UNL     1      47.447  -6.195  -5.338  1.00  0.00    -0.277 N 
ATOM     27  H3  UNL     1      46.707  -5.554  -5.625  1.00  0.00     0.189 HD
BRANCH  26  28
HETATM   28  N4  UNL     1      47.140  -7.527  -4.952  1.00  0.00    -0.343 N 
ATOM     29  H42 UNL     1      47.897  -8.182  -4.756  1.00  0.00     0.176 HD
ATOM     30  H41 UNL     1      46.161  -7.803  -4.877  1.00  0.00     0.176 HD
ENDBRANCH  26  28
ENDBRANCH  23  24
ENDBRANCH  22  23
ENDBRANCH   1  22
BRANCH   1  31
HETATM   31  C9  UNL     1      48.019  -1.008  -4.792  1.00  0.00     0.085 A 
HETATM   32  C10 UNL     1      47.289  -0.756  -3.630  1.00  0.00     0.141 A 
HETATM   33  N6  UNL     1      46.319   0.132  -4.009  1.00  0.00    -0.279 N 
HETATM   34  N7  UNL     1      46.465   0.381  -5.273  1.00  0.00    -0.240 N 
ATOM     35  H6  UNL     1      45.602   0.530  -3.401  1.00  0.00     0.189 HD
HETATM   36  N8  UNL     1      47.496  -0.296  -5.798  1.00  0.00    -0.282 N 
ATOM     37  H7  UNL     1      45.868   1.015  -5.804  1.00  0.00     0.208 HD
HETATM   38  C12 UNL     1      47.854  -0.192  -7.191  1.00  0.00     0.179 C 
BRANCH  32  39
HETATM   39  C11 UNL     1      47.467  -1.209  -2.254  1.00  0.00     0.284 C 
HETATM   40  N5  UNL     1      48.664  -0.781  -1.583  1.00  0.00    -0.056 NA
HETATM   41  O4  UNL     1      46.696  -1.922  -1.605  1.00  0.00    -0.269 OA
ENDBRANCH  32  39
ENDBRANCH   1  31
TORSDOF 10
ENDMDL
MODEL 5
REMARK VINA RESULT: -6.824192572      2.425      5.217
REMARK  10 active torsions:
REMARK  status: ('A' for Active; 'I' for Inactive)
REMARK       I    between atoms: C2_2  and  N1_4 
REMARK    1  A    between atoms: N1_4  and  C3_5 
REMARK    2  A    between atoms: N1_4  and  C13_31 
REMARK    3  A    between atoms: C3_5  and  C4_6 
REMARK       I    between atoms: C4_6  and  N2_8 
REMARK    4  A    between atoms: N2_8  and  C5_10 
REMARK    5  A    between atoms: C5_10  and  C6_11 
REMARK    6  A    between atoms: C5_10  and  C9_20 
REMARK    7  A    between atoms: C6_11  and  C7_12 
REMARK    8  A    between atoms: C7_12  and  C8_13 
REMARK       I    between atoms: C8_13  and  N3_15 
REMARK    9  A    between atoms: N3_15  and  N4_17 
REMARK   10  A    between atoms: C10_21  and  C11_22 
ROOT
HETATM    1  C5  UNL     1      49.954   0.869  -2.820  1.00  0.00     0.139 C 
ENDROOT
BRANCH   1   2
HETATM    2  N2  UNL     1      51.011  -0.105  -3.059  1.00  0.00    -0.349 N 
HETATM    3  C4  UNL     1      51.138  -1.382  -2.403  1.00  0.00     0.236 C 
HETATM    4  O2  UNL     1      50.254  -1.631  -1.564  1.00  0.00    -0.272 OA
ATOM      5  H2  UNL     1      51.722   0.138  -3.749  1.00  0.00     0.163 HD
BRANCH   3   6
HETATM    6  C3  UNL     1      52.259  -2.271  -2.758  1.00  0.00     0.235 C 
BRANCH   6   7
HETATM    7  N1  UNL     1      52.140  -2.894  -4.042  1.00  0.00    -0.303 N 
HETATM    8  C2  UNL     1      52.979  -2.378  -5.099  1.00  0.00     0.221 C 
HETATM    9  C1  UNL     1      53.724  -1.119  -4.935  1.00  0.00     0.117 C 
HETATM   10  O1  UNL     1      53.078  -3.007  -6.181  1.00  0.00    -0.273 OA
BRANCH   7  11
HETATM   11  C13 UNL     1      51.339  -4.031  -4.312  1.00  0.00     0.129 A 
HETATM   12  C14 UNL     1      50.096  -3.988  -4.849  1.00  0.00     0.042 A 
HETATM   13  C15 UNL     1      49.466  -2.707  -5.250  1.00  0.00     0.071 C 
HETATM   14  N9  UNL     1      49.374  -5.147  -5.070  1.00  0.00    -0.310 N 
HETATM   15  C16 UNL     1      49.902  -6.327  -4.754  1.00  0.00     0.327 A 
ATOM     16  H9  UNL     1      48.438  -5.098  -5.474  1.00  0.00     0.170 HD
HETATM   17  O5  UNL     1      49.272  -7.389  -4.943  1.00  0.00    -0.247 OA
HETATM   18  N10 UNL     1      51.118  -6.378  -4.231  1.00  0.00    -0.274 N 
HETATM   19  C17 UNL     1      51.872  -5.292  -3.991  1.00  0.00     0.278 A 
ATOM     20  H10 UNL     1      51.504  -7.293  -3.996  1.00  0.00     0.173 HD
HETATM   21  O6  UNL     1      53.015  -5.363  -3.501  1.00  0.00    -0.265 OA
ENDBRANCH   7  11
ENDBRANCH   6   7
ENDBRANCH   3   6
ENDBRANCH   1   2
BRANCH   1  22
HETATM   22  C6  UNL     1      50.543   2.253  -2.745  1.00  0.00     0.041 C 
BRANCH  22  23
HETATM   23  C7  UNL     1      52.000   2.248  -2.258  1.00  0.00     0.107 C 
BRANCH  23  24
HETATM   24  C8  UNL     1      51.996   2.161  -0.750  1.00  0.00     0.235 C 
HETATM   25  O3  UNL     1      52.813   1.385  -0.203  1.00  0.00    -0.272 OA
HETATM   26  N3  UNL     1      51.099   2.930   0.000  1.00  0.00    -0.277 N 
ATOM     27  H3  UNL     1      50.439   3.556  -0.462  1.00  0.00     0.189 HD
BRANCH  26  28
HETATM   28  N4  UNL     1      51.125   2.823   1.416  1.00  0.00    -0.343 N 
ATOM     29  H42 UNL     1      51.160   3.669   1.985  1.00  0.00     0.176 HD
ATOM     30  H41 UNL     1      51.107   1.895   1.839  1.00  0.00     0.176 HD
ENDBRANCH  26  28
ENDBRANCH  23  24
ENDBRANCH  22  23
ENDBRANCH   1  22
BRANCH   1  31
HETATM   31  C9  UNL     1      48.867   0.704  -3.816  1.00  0.00     0.085 A 
HETATM   32  C10 UNL     1      47.618   0.168  -3.498  1.00  0.00     0.141 A 
HETATM   33  N6  UNL     1      46.948   0.105  -4.690  1.00  0.00    -0.279 N 
HETATM   34  N7  UNL     1      47.727   0.564  -5.620  1.00  0.00    -0.240 N 
ATOM     35  H6  UNL     1      45.998  -0.242  -4.825  1.00  0.00     0.189 HD
HETATM   36  N8  UNL     1      48.916   0.944  -5.132  1.00  0.00    -0.282 N 
ATOM     37  H7  UNL     1      47.467   0.628  -6.605  1.00  0.00     0.208 HD
HETATM   38  C12 UNL     1      49.957   1.479  -5.973  1.00  0.00     0.179 C 
BRANCH  32  39
HETATM   39  C11 UNL     1      47.018  -0.207  -2.221  1.00  0.00     0.284 C 
HETATM   40  N5  UNL     1      46.773  -1.607  -2.011  1.00  0.00    -0.056 NA
HETATM   41  O4  UNL     1      46.701   0.554  -1.303  1.00  0.00    -0.269 OA
ENDBRANCH  32  39
ENDBRANCH   1  31
TORSDOF 10
ENDMDL
