MODEL 1
REMARK VINA RESULT: -6.351516353      0.000      0.000
REMARK  10 active torsions:
REMARK  status: ('A' for Active; 'I' for Inactive)
REMARK    1  A    between atoms: O1_2  and  N1_3 
REMARK    2  A    between atoms: N1_3  and  C2_5 
REMARK    3  A    between atoms: C2_5  and  C3_6 
REMARK    4  A    between atoms: C2_5  and  C4_9 
REMARK       I    between atoms: C4_9  and  N3_11 
REMARK    5  A    between atoms: N3_11  and  C5_13 
REMARK    6  A    between atoms: C8_16  and  C9_17 
REMARK    7  A    between atoms: C9_17  and  N4_18 
REMARK    8  A    between atoms: C13_28  and  N7_29 
REMARK    9  A    between atoms: C14_31  and  C15_32 
REMARK   10  A    between atoms: C18_37  and  N9_38 
ROOT
HETATM    1  C5  UNL     1      51.511  -1.493  -2.880  1.00  0.00     0.079 A 
HETATM    2  C6  UNL     1      51.743  -2.756  -2.411  1.00  0.00     0.035 A 
HETATM    3  C7  UNL     1      51.597  -3.855  -3.274  1.00  0.00     0.029 A 
HETATM    4  C8  UNL     1      51.227  -3.694  -4.575  1.00  0.00     0.029 A 
HETATM    5  N6  UNL     1      51.011  -2.447  -4.997  1.00  0.00    -0.343 N 
ATOM      6  H6  UNL     1      50.735  -2.306  -5.969  1.00  0.00     0.167 HD
HETATM    7  C13 UNL     1      51.136  -1.371  -4.213  1.00  0.00     0.132 A 
ENDROOT
BRANCH   7   8
HETATM    8  N7  UNL     1      50.880  -0.086  -4.806  1.00  0.00    -0.349 N 
HETATM    9  C14 UNL     1      49.679   0.258  -5.132  1.00  0.00     0.108 C 
ATOM     10  H7  UNL     1      51.654   0.559  -4.969  1.00  0.00     0.167 HD
BRANCH   9  11
HETATM   11  C15 UNL     1      49.362   1.541  -5.733  1.00  0.00     0.070 A 
HETATM   12  C16 UNL     1      48.556   1.635  -6.849  1.00  0.00     0.040 A 
HETATM   13  C17 UNL     1      48.022   0.360  -7.430  1.00  0.00     0.070 C 
HETATM   14  N8  UNL     1      48.266   2.825  -7.382  1.00  0.00    -0.195 N 
HETATM   15  C18 UNL     1      48.724   3.988  -6.887  1.00  0.00     0.679 A 
ATOM     16  H8  UNL     1      47.667   2.853  -8.207  1.00  0.00     0.184 HD
HETATM   17  N10 UNL     1      49.513   3.939  -5.799  1.00  0.00    -0.156 N 
HETATM   18  C19 UNL     1      49.828   2.738  -5.230  1.00  0.00     0.273 A 
ATOM     19  H10 UNL     1      49.878   4.803  -5.397  1.00  0.00     0.187 HD
HETATM   20  O6  UNL     1      50.571   2.697  -4.205  1.00  0.00    -0.267 OA
BRANCH  15  21
HETATM   21  N9  UNL     1      48.401   5.119  -7.439  1.00  0.00    -0.234 N 
ATOM     22  H92 UNL     1      47.466   5.280  -7.812  1.00  0.00     0.174 HD
ATOM     23  H91 UNL     1      49.082   5.873  -7.520  1.00  0.00     0.174 HD
ENDBRANCH  15  21
ENDBRANCH   9  11
ENDBRANCH   7   8
BRANCH   1  24
HETATM   24  N3  UNL     1      51.616  -0.366  -2.065  1.00  0.00    -0.322 N 
HETATM   25  C4  UNL     1      50.643   0.336  -1.353  1.00  0.00     0.256 C 
HETATM   26  O3  UNL     1      49.434   0.033  -1.325  1.00  0.00    -0.270 OA
ATOM     27  H3  UNL     1      52.560   0.007  -1.975  1.00  0.00     0.169 HD
BRANCH  25  28
HETATM   28  C2  UNL     1      51.008   1.562  -0.527  1.00  0.00     0.286 C 
BRANCH  28  29
HETATM   29  N1  UNL     1      50.409   2.679  -1.166  1.00  0.00    -0.280 N 
ATOM     30  H1  UNL     1      50.560   2.845  -2.161  1.00  0.00     0.189 HD
BRANCH  29  31
HETATM   31  O1  UNL     1      49.663   3.493  -0.466  1.00  0.00    -0.289 OA
HETATM   32  C1  UNL     1      48.948   3.000   0.587  1.00  0.00     0.237 C 
ENDBRANCH  29  31
ENDBRANCH  28  29
BRANCH  28  33
HETATM   33  C3  UNL     1      52.503   1.654  -0.720  1.00  0.00     0.265 C 
HETATM   34  N2  UNL     1      52.994   2.518  -1.707  1.00  0.00    -0.060 NA
HETATM   35  O2  UNL     1      53.224   0.960   0.003  1.00  0.00    -0.274 OA
ENDBRANCH  28  33
ENDBRANCH  25  28
ENDBRANCH   1  24
BRANCH   4  36
HETATM   36  C9  UNL     1      51.063  -4.840  -5.483  1.00  0.00     0.190 C 
BRANCH  36  37
HETATM   37  N4  UNL     1      49.763  -5.467  -5.400  1.00  0.00    -0.300 N 
HETATM   38  C10 UNL     1      48.529  -4.807  -5.511  1.00  0.00     0.189 A 
HETATM   39  N5  UNL     1      47.542  -5.619  -5.393  1.00  0.00    -0.315 N 
HETATM   40  C11 UNL     1      48.006  -6.971  -5.182  1.00  0.00     0.314 A 
ATOM     41  H5  UNL     1      46.561  -5.346  -5.443  1.00  0.00     0.170 HD
HETATM   42  O4  UNL     1      47.332  -8.004  -5.028  1.00  0.00    -0.262 OA
HETATM   43  C12 UNL     1      49.478  -6.832  -5.193  1.00  0.00     0.317 A 
HETATM   44  O5  UNL     1      50.288  -7.775  -5.043  1.00  0.00    -0.262 OA
ENDBRANCH  36  37
ENDBRANCH   4  36
TORSDOF 10
ENDMDL
MODEL 2
REMARK VINA RESULT: -6.290667344      2.905      3.844
REMARK  10 active torsions:
REMARK  status: ('A' for Active; 'I' for Inactive)
REMARK    1  A    between atoms: O1_2  and  N1_3 
REMARK    2  A    between atoms: N1_3  and  C2_5 
REMARK    3  A    between atoms: C2_5  and  C3_6 
REMARK    4  A    between atoms: C2_5  and  C4_9 
REMARK       I    between atoms: C4_9  and  N3_11 
REMARK    5  A    between atoms: N3_11  and  C5_13 
REMARK    6  A    between atoms: C8_16  and  C9_17 
REMARK    7  A    between atoms: C9_17  and  N4_18 
REMARK    8  A    between atoms: C13_28  and  N7_29 
REMARK    9  A    between atoms: C14_31  and  C15_32 
REMARK   10  A    between atoms: C18_37  and  N9_38 
ROOT
HETATM    1  C5  UNL     1      51.599  -3.585  -4.857  1.00  0.00     0.079 A 
HETATM    2  C6  UNL     1      52.221  -4.484  -5.678  1.00  0.00     0.035 A 
HETATM    3  C7  UNL     1      51.481  -5.533  -6.248  1.00  0.00     0.029 A 
HETATM    4  C8  UNL     1      50.149  -5.680  -6.001  1.00  0.00     0.029 A 
HETATM    5  N6  UNL     1      49.576  -4.782  -5.197  1.00  0.00    -0.343 N 
ATOM      6  H6  UNL     1      48.579  -4.874  -5.003  1.00  0.00     0.167 HD
HETATM    7  C13 UNL     1      50.240  -3.768  -4.632  1.00  0.00     0.132 A 
ENDROOT
BRANCH   7   8
HETATM    8  N7  UNL     1      49.491  -2.871  -3.793  1.00  0.00    -0.349 N 
HETATM    9  C14 UNL     1      49.153  -1.701  -4.224  1.00  0.00     0.108 C 
ATOM     10  H7  UNL     1      49.225  -3.161  -2.853  1.00  0.00     0.167 HD
BRANCH   9  11
HETATM   11  C15 UNL     1      48.398  -0.755  -3.422  1.00  0.00     0.070 A 
HETATM   12  C16 UNL     1      47.236  -0.179  -3.892  1.00  0.00     0.040 A 
HETATM   13  C17 UNL     1      46.780  -0.558  -5.269  1.00  0.00     0.070 C 
HETATM   14  N8  UNL     1      46.547   0.681  -3.136  1.00  0.00    -0.195 N 
HETATM   15  C18 UNL     1      46.923   1.041  -1.896  1.00  0.00     0.679 A 
ATOM     16  H8  UNL     1      45.693   1.085  -3.519  1.00  0.00     0.184 HD
HETATM   17  N10 UNL     1      48.051   0.501  -1.402  1.00  0.00    -0.156 N 
HETATM   18  C19 UNL     1      48.777  -0.381  -2.150  1.00  0.00     0.273 A 
ATOM     19  H10 UNL     1      48.365   0.752  -0.464  1.00  0.00     0.187 HD
HETATM   20  O6  UNL     1      49.839  -0.888  -1.678  1.00  0.00    -0.267 OA
BRANCH  15  21
HETATM   21  N9  UNL     1      46.209   1.873  -1.201  1.00  0.00    -0.234 N 
ATOM     22  H92 UNL     1      45.278   2.159  -1.505  1.00  0.00     0.174 HD
ATOM     23  H91 UNL     1      46.568   2.269  -0.332  1.00  0.00     0.174 HD
ENDBRANCH  15  21
ENDBRANCH   9  11
ENDBRANCH   7   8
BRANCH   1  24
HETATM   24  N3  UNL     1      52.287  -2.538  -4.244  1.00  0.00    -0.322 N 
HETATM   25  C4  UNL     1      52.565  -2.296  -2.899  1.00  0.00     0.256 C 
HETATM   26  O3  UNL     1      52.223  -3.045  -1.962  1.00  0.00    -0.270 OA
ATOM     27  H3  UNL     1      52.645  -1.831  -4.886  1.00  0.00     0.169 HD
BRANCH  25  28
HETATM   28  C2  UNL     1      53.339  -1.057  -2.468  1.00  0.00     0.286 C 
BRANCH  28  29
HETATM   29  N1  UNL     1      52.657  -0.517  -1.346  1.00  0.00    -0.280 N 
ATOM     30  H1  UNL     1      51.843  -0.996  -0.960  1.00  0.00     0.189 HD
BRANCH  29  31
HETATM   31  O1  UNL     1      53.082   0.598  -0.813  1.00  0.00    -0.289 OA
HETATM   32  C1  UNL     1      52.171   1.513  -0.370  1.00  0.00     0.237 C 
ENDBRANCH  29  31
ENDBRANCH  28  29
BRANCH  28  33
HETATM   33  C3  UNL     1      53.136  -0.122  -3.637  1.00  0.00     0.265 C 
HETATM   34  N2  UNL     1      54.225   0.133  -4.482  1.00  0.00    -0.060 NA
HETATM   35  O2  UNL     1      52.017   0.375  -3.794  1.00  0.00    -0.274 OA
ENDBRANCH  28  33
ENDBRANCH  25  28
ENDBRANCH   1  24
BRANCH   4  36
HETATM   36  C9  UNL     1      49.368  -6.780  -6.586  1.00  0.00     0.190 C 
BRANCH  36  37
HETATM   37  N4  UNL     1      48.900  -7.743  -5.613  1.00  0.00    -0.300 N 
HETATM   38  C10 UNL     1      49.497  -8.005  -4.371  1.00  0.00     0.189 A 
HETATM   39  N5  UNL     1      48.865  -8.914  -3.721  1.00  0.00    -0.315 N 
HETATM   40  C11 UNL     1      47.727  -9.391  -4.471  1.00  0.00     0.314 A 
ATOM     41  H5  UNL     1      49.131  -9.253  -2.797  1.00  0.00     0.170 HD
HETATM   42  O4  UNL     1      46.900 -10.262  -4.151  1.00  0.00    -0.262 OA
HETATM   43  C12 UNL     1      47.782  -8.595  -5.716  1.00  0.00     0.317 A 
HETATM   44  O5  UNL     1      46.967  -8.688  -6.662  1.00  0.00    -0.262 OA
ENDBRANCH  36  37
ENDBRANCH   4  36
TORSDOF 10
ENDMDL
MODEL 3
REMARK VINA RESULT: -6.283887645      3.165      7.878
REMARK  10 active torsions:
REMARK  status: ('A' for Active; 'I' for Inactive)
REMARK    1  A    between atoms: O1_2  and  N1_3 
REMARK    2  A    between atoms: N1_3  and  C2_5 
REMARK    3  A    between atoms: C2_5  and  C3_6 
REMARK    4  A    between atoms: C2_5  and  C4_9 
REMARK       I    between atoms: C4_9  and  N3_11 
REMARK    5  A    between atoms: N3_11  and  C5_13 
REMARK    6  A    between atoms: C8_16  and  C9_17 
REMARK    7  A    between atoms: C9_17  and  N4_18 
REMARK    8  A    between atoms: C13_28  and  N7_29 
REMARK    9  A    between atoms: C14_31  and  C15_32 
REMARK   10  A    between atoms: C18_37  and  N9_38 
ROOT
HETATM    1  C5  UNL     1      51.115  -1.410  -4.399  1.00  0.00     0.079 A 
HETATM    2  C6  UNL     1      52.167  -1.708  -5.219  1.00  0.00     0.035 A 
HETATM    3  C7  UNL     1      53.398  -1.055  -5.035  1.00  0.00     0.029 A 
HETATM    4  C8  UNL     1      53.570  -0.125  -4.055  1.00  0.00     0.029 A 
HETATM    5  N6  UNL     1      52.520   0.139  -3.274  1.00  0.00    -0.343 N 
ATOM      6  H6  UNL     1      52.631   0.831  -2.532  1.00  0.00     0.167 HD
HETATM    7  C13 UNL     1      51.331  -0.457  -3.411  1.00  0.00     0.132 A 
ENDROOT
BRANCH   7   8
HETATM    8  N7  UNL     1      50.292  -0.081  -2.491  1.00  0.00    -0.349 N 
HETATM    9  C14 UNL     1      50.249   1.114  -2.002  1.00  0.00     0.108 C 
ATOM     10  H7  UNL     1      49.583  -0.764  -2.222  1.00  0.00     0.167 HD
BRANCH   9  11
HETATM   11  C15 UNL     1      49.224   1.547  -1.070  1.00  0.00     0.070 A 
HETATM   12  C16 UNL     1      49.546   2.193   0.106  1.00  0.00     0.040 A 
HETATM   13  C17 UNL     1      50.999   2.424   0.396  1.00  0.00     0.070 C 
HETATM   14  N8  UNL     1      48.589   2.595   0.947  1.00  0.00    -0.195 N 
HETATM   15  C18 UNL     1      47.278   2.408   0.718  1.00  0.00     0.679 A 
ATOM     16  H8  UNL     1      48.868   3.069   1.806  1.00  0.00     0.184 HD
HETATM   17  N10 UNL     1      46.922   1.782  -0.418  1.00  0.00    -0.156 N 
HETATM   18  C19 UNL     1      47.877   1.359  -1.298  1.00  0.00     0.273 A 
ATOM     19  H10 UNL     1      45.935   1.624  -0.623  1.00  0.00     0.187 HD
HETATM   20  O6  UNL     1      47.537   0.771  -2.368  1.00  0.00    -0.267 OA
BRANCH  15  21
HETATM   21  N9  UNL     1      46.389   2.830   1.566  1.00  0.00    -0.234 N 
ATOM     22  H92 UNL     1      46.656   3.342   2.406  1.00  0.00     0.174 HD
ATOM     23  H91 UNL     1      45.396   2.651   1.413  1.00  0.00     0.174 HD
ENDBRANCH  15  21
ENDBRANCH   9  11
ENDBRANCH   7   8
BRANCH   1  24
HETATM   24  N3  UNL     1      49.863  -2.008  -4.548  1.00  0.00    -0.322 N 
HETATM   25  C4  UNL     1      49.504  -3.351  -4.660  1.00  0.00     0.256 C 
HETATM   26  O3  UNL     1      50.311  -4.302  -4.631  1.00  0.00    -0.270 OA
ATOM     27  H3  UNL     1      49.081  -1.355  -4.581  1.00  0.00     0.169 HD
BRANCH  25  28
HETATM   28  C2  UNL     1      48.047  -3.762  -4.826  1.00  0.00     0.286 C 
BRANCH  28  29
HETATM   29  N1  UNL     1      47.822  -3.920  -6.219  1.00  0.00    -0.280 N 
ATOM     30  H1  UNL     1      48.089  -3.181  -6.870  1.00  0.00     0.189 HD
BRANCH  29  31
HETATM   31  O1  UNL     1      47.271  -5.020  -6.658  1.00  0.00    -0.289 OA
HETATM   32  C1  UNL     1      47.659  -6.216  -6.127  1.00  0.00     0.237 C 
ENDBRANCH  29  31
ENDBRANCH  28  29
BRANCH  28  33
HETATM   33  C3  UNL     1      47.305  -2.530  -4.365  1.00  0.00     0.265 C 
HETATM   34  N2  UNL     1      46.754  -1.683  -5.336  1.00  0.00    -0.060 NA
HETATM   35  O2  UNL     1      47.219  -2.327  -3.151  1.00  0.00    -0.274 OA
ENDBRANCH  28  33
ENDBRANCH  25  28
ENDBRANCH   1  24
BRANCH   4  36
HETATM   36  C9  UNL     1      54.851   0.571  -3.862  1.00  0.00     0.190 C 
BRANCH  36  37
HETATM   37  N4  UNL     1      54.713   1.990  -3.616  1.00  0.00    -0.300 N 
HETATM   38  C10 UNL     1      54.972   3.009  -4.545  1.00  0.00     0.189 A 
HETATM   39  N5  UNL     1      54.766   4.173  -4.046  1.00  0.00    -0.315 N 
HETATM   40  C11 UNL     1      54.329   4.077  -2.672  1.00  0.00     0.314 A 
ATOM     41  H5  UNL     1      54.895   5.049  -4.551  1.00  0.00     0.170 HD
HETATM   42  O4  UNL     1      54.041   4.997  -1.887  1.00  0.00    -0.262 OA
HETATM   43  C12 UNL     1      54.304   2.620  -2.423  1.00  0.00     0.317 A 
HETATM   44  O5  UNL     1      53.976   2.084  -1.340  1.00  0.00    -0.262 OA
ENDBRANCH  36  37
ENDBRANCH   4  36
TORSDOF 10
ENDMDL
MODEL 4
REMARK VINA RESULT: -6.268979693      1.750      2.177
REMARK  10 active torsions:
REMARK  status: ('A' for Active; 'I' for Inactive)
REMARK    1  A    between atoms: O1_2  and  N1_3 
REMARK    2  A    between atoms: N1_3  and  C2_5 
REMARK    3  A    between atoms: C2_5  and  C3_6 
REMARK    4  A    between atoms: C2_5  and  C4_9 
REMARK       I    between atoms: C4_9  and  N3_11 
REMARK    5  A    between atoms: N3_11  and  C5_13 
REMARK    6  A    between atoms: C8_16  and  C9_17 
REMARK    7  A    between atoms: C9_17  and  N4_18 
REMARK    8  A    between atoms: C13_28  and  N7_29 
REMARK    9  A    between atoms: C14_31  and  C15_32 
REMARK   10  A    between atoms: C18_37  and  N9_38 
ROOT
HETATM    1  C5  UNL     1      51.615  -3.316  -3.794  1.00  0.00     0.079 A 
HETATM    2  C6  UNL     1      51.993  -4.562  -3.376  1.00  0.00     0.035 A 
HETATM    3  C7  UNL     1      51.574  -5.693  -4.096  1.00  0.00     0.029 A 
HETATM    4  C8  UNL     1      50.795  -5.580  -5.207  1.00  0.00     0.029 A 
HETATM    5  N6  UNL     1      50.448  -4.348  -5.586  1.00  0.00    -0.343 N 
ATOM      6  H6  UNL     1      49.867  -4.244  -6.418  1.00  0.00     0.167 HD
HETATM    7  C13 UNL     1      50.822  -3.244  -4.932  1.00  0.00     0.132 A 
ENDROOT
BRANCH   7   8
HETATM    8  N7  UNL     1      50.381  -1.980  -5.460  1.00  0.00    -0.349 N 
HETATM    9  C14 UNL     1      49.122  -1.703  -5.531  1.00  0.00     0.108 C 
ATOM     10  H7  UNL     1      51.069  -1.298  -5.781  1.00  0.00     0.167 HD
BRANCH   9  11
HETATM   11  C15 UNL     1      48.620  -0.445  -6.054  1.00  0.00     0.070 A 
HETATM   12  C16 UNL     1      47.947  -0.382  -7.257  1.00  0.00     0.040 A 
HETATM   13  C17 UNL     1      47.757  -1.662  -8.015  1.00  0.00     0.070 C 
HETATM   14  N8  UNL     1      47.482   0.783  -7.718  1.00  0.00    -0.195 N 
HETATM   15  C18 UNL     1      47.631   1.948  -7.065  1.00  0.00     0.679 A 
ATOM     16  H8  UNL     1      46.990   0.788  -8.611  1.00  0.00     0.184 HD
HETATM   17  N10 UNL     1      48.283   1.929  -5.889  1.00  0.00    -0.156 N 
HETATM   18  C19 UNL     1      48.769   0.754  -5.390  1.00  0.00     0.273 A 
ATOM     19  H10 UNL     1      48.413   2.796  -5.366  1.00  0.00     0.187 HD
HETATM   20  O6  UNL     1      49.381   0.742  -4.280  1.00  0.00    -0.267 OA
BRANCH  15  21
HETATM   21  N9  UNL     1      47.149   3.050  -7.554  1.00  0.00    -0.234 N 
ATOM     22  H92 UNL     1      47.759   3.779  -7.925  1.00  0.00     0.174 HD
ATOM     23  H91 UNL     1      46.143   3.218  -7.571  1.00  0.00     0.174 HD
ENDBRANCH  15  21
ENDBRANCH   9  11
ENDBRANCH   7   8
BRANCH   1  24
HETATM   24  N3  UNL     1      51.980  -2.159  -3.107  1.00  0.00    -0.322 N 
HETATM   25  C4  UNL     1      51.360  -1.495  -2.048  1.00  0.00     0.256 C 
HETATM   26  O3  UNL     1      50.303  -1.870  -1.503  1.00  0.00    -0.270 OA
ATOM     27  H3  UNL     1      52.844  -1.725  -3.432  1.00  0.00     0.169 HD
BRANCH  25  28
HETATM   28  C2  UNL     1      51.957  -0.222  -1.463  1.00  0.00     0.286 C 
BRANCH  28  29
HETATM   29  N1  UNL     1      50.932   0.760  -1.488  1.00  0.00    -0.280 N 
ATOM     30  H1  UNL     1      50.562   1.095  -2.377  1.00  0.00     0.189 HD
BRANCH  29  31
HETATM   31  O1  UNL     1      50.468   1.231  -0.360  1.00  0.00    -0.289 OA
HETATM   32  C1  UNL     1      51.084   2.304   0.216  1.00  0.00     0.237 C 
ENDBRANCH  29  31
ENDBRANCH  28  29
BRANCH  28  33
HETATM   33  C3  UNL     1      52.996   0.155  -2.492  1.00  0.00     0.265 C 
HETATM   34  N2  UNL     1      52.592   0.912  -3.599  1.00  0.00    -0.060 NA
HETATM   35  O2  UNL     1      54.157  -0.224  -2.308  1.00  0.00    -0.274 OA
ENDBRANCH  28  33
ENDBRANCH  25  28
ENDBRANCH   1  24
BRANCH   4  36
HETATM   36  C9  UNL     1      50.344  -6.760  -5.962  1.00  0.00     0.190 C 
BRANCH  36  37
HETATM   37  N4  UNL     1      49.169  -7.394  -5.404  1.00  0.00    -0.300 N 
HETATM   38  C10 UNL     1      47.890  -6.822  -5.329  1.00  0.00     0.189 A 
HETATM   39  N5  UNL     1      47.045  -7.617  -4.780  1.00  0.00    -0.315 N 
HETATM   40  C11 UNL     1      47.673  -8.863  -4.406  1.00  0.00     0.314 A 
ATOM     41  H5  UNL     1      46.061  -7.398  -4.628  1.00  0.00     0.170 HD
HETATM   42  O4  UNL     1      47.160  -9.853  -3.856  1.00  0.00    -0.262 OA
HETATM   43  C12 UNL     1      49.076  -8.680  -4.834  1.00  0.00     0.317 A 
HETATM   44  O5  UNL     1      49.984  -9.532  -4.699  1.00  0.00    -0.262 OA
ENDBRANCH  36  37
ENDBRANCH   4  36
TORSDOF 10
ENDMDL
MODEL 5
REMARK VINA RESULT: -6.241280065      2.770      4.207
REMARK  10 active torsions:
REMARK  status: ('A' for Active; 'I' for Inactive)
REMARK    1  A    between atoms: O1_2  and  N1_3 
REMARK    2  A    between atoms: N1_3  and  C2_5 
REMARK    3  A    between atoms: C2_5  and  C3_6 
REMARK    4  A    between atoms: C2_5  and  C4_9 
REMARK       I    between atoms: C4_9  and  N3_11 
REMARK    5  A    between atoms: N3_11  and  C5_13 
REMARK    6  A    between atoms: C8_16  and  C9_17 
REMARK    7  A    between atoms: C9_17  and  N4_18 
REMARK    8  A    between atoms: C13_28  and  N7_29 
REMARK    9  A    between atoms: C14_31  and  C15_32 
REMARK   10  A    between atoms: C18_37  and  N9_38 
ROOT
HETATM    1  C5  UNL     1      48.523  -0.982  -3.850  1.00  0.00     0.079 A 
HETATM    2  C6  UNL     1      47.469  -1.851  -3.904  1.00  0.00     0.035 A 
HETATM    3  C7  UNL     1      47.574  -3.024  -4.671  1.00  0.00     0.029 A 
HETATM    4  C8  UNL     1      48.706  -3.319  -5.369  1.00  0.00     0.029 A 
HETATM    5  N6  UNL     1      49.714  -2.447  -5.291  1.00  0.00    -0.343 N 
ATOM      6  H6  UNL     1      50.571  -2.653  -5.805  1.00  0.00     0.167 HD
HETATM    7  C13 UNL     1      49.660  -1.320  -4.574  1.00  0.00     0.132 A 
ENDROOT
BRANCH   7   8
HETATM    8  N7  UNL     1      50.827  -0.478  -4.574  1.00  0.00    -0.349 N 
HETATM    9  C14 UNL     1      51.939  -0.900  -4.071  1.00  0.00     0.108 C 
ATOM     10  H7  UNL     1      50.775   0.459  -4.975  1.00  0.00     0.167 HD
BRANCH   9  11
HETATM   11  C15 UNL     1      53.147  -0.095  -4.044  1.00  0.00     0.070 A 
HETATM   12  C16 UNL     1      54.198  -0.345  -4.901  1.00  0.00     0.040 A 
HETATM   13  C17 UNL     1      54.057  -1.489  -5.860  1.00  0.00     0.070 C 
HETATM   14  N8  UNL     1      55.298   0.413  -4.871  1.00  0.00    -0.195 N 
HETATM   15  C18 UNL     1      55.459   1.448  -4.027  1.00  0.00     0.679 A 
ATOM     16  H8  UNL     1      56.054   0.196  -5.520  1.00  0.00     0.184 HD
HETATM   17  N10 UNL     1      54.456   1.725  -3.176  1.00  0.00    -0.156 N 
HETATM   18  C19 UNL     1      53.318   0.968  -3.183  1.00  0.00     0.273 A 
ATOM     19  H10 UNL     1      54.545   2.503  -2.522  1.00  0.00     0.187 HD
HETATM   20  O6  UNL     1      52.375   1.234  -2.379  1.00  0.00    -0.267 OA
BRANCH  15  21
HETATM   21  N9  UNL     1      56.545   2.159  -4.048  1.00  0.00    -0.234 N 
ATOM     22  H92 UNL     1      56.516   3.171  -4.172  1.00  0.00     0.174 HD
ATOM     23  H91 UNL     1      57.460   1.719  -3.949  1.00  0.00     0.174 HD
ENDBRANCH  15  21
ENDBRANCH   9  11
ENDBRANCH   7   8
BRANCH   1  24
HETATM   24  N3  UNL     1      48.469   0.208  -3.125  1.00  0.00    -0.322 N 
HETATM   25  C4  UNL     1      49.003   0.541  -1.880  1.00  0.00     0.256 C 
HETATM   26  O3  UNL     1      49.674  -0.235  -1.170  1.00  0.00    -0.270 OA
ATOM     27  H3  UNL     1      47.953   0.961  -3.581  1.00  0.00     0.169 HD
BRANCH  25  28
HETATM   28  C2  UNL     1      48.799   1.927  -1.284  1.00  0.00     0.286 C 
BRANCH  28  29
HETATM   29  N1  UNL     1      49.877   2.151  -0.388  1.00  0.00    -0.280 N 
ATOM     30  H1  UNL     1      50.279   1.375   0.138  1.00  0.00     0.189 HD
BRANCH  29  31
HETATM   31  O1  UNL     1      50.349   3.362  -0.244  1.00  0.00    -0.289 OA
HETATM   32  C1  UNL     1      50.802   4.033  -1.343  1.00  0.00     0.237 C 
ENDBRANCH  29  31
ENDBRANCH  28  29
BRANCH  28  33
HETATM   33  C3  UNL     1      47.539   1.750  -0.470  1.00  0.00     0.265 C 
HETATM   34  N2  UNL     1      46.452   1.093  -1.062  1.00  0.00    -0.060 NA
HETATM   35  O2  UNL     1      47.525   2.195   0.681  1.00  0.00    -0.274 OA
ENDBRANCH  28  33
ENDBRANCH  25  28
ENDBRANCH   1  24
BRANCH   4  36
HETATM   36  C9  UNL     1      48.821  -4.539  -6.182  1.00  0.00     0.190 C 
BRANCH  36  37
HETATM   37  N4  UNL     1      49.171  -5.717  -5.419  1.00  0.00    -0.300 N 
HETATM   38  C10 UNL     1      50.378  -5.915  -4.731  1.00  0.00     0.189 A 
HETATM   39  N5  UNL     1      50.410  -7.057  -4.147  1.00  0.00    -0.315 N 
HETATM   40  C11 UNL     1      49.189  -7.793  -4.378  1.00  0.00     0.314 A 
ATOM     41  H5  UNL     1      51.195  -7.400  -3.593  1.00  0.00     0.170 HD
HETATM   42  O4  UNL     1      48.878  -8.925  -3.968  1.00  0.00    -0.262 OA
HETATM   43  C12 UNL     1      48.394  -6.876  -5.223  1.00  0.00     0.317 A 
HETATM   44  O5  UNL     1      47.247  -7.119  -5.661  1.00  0.00    -0.262 OA
ENDBRANCH  36  37
ENDBRANCH   4  36
TORSDOF 10
ENDMDL
