MODEL 1
REMARK VINA RESULT: -7.519586796      0.000      0.000
REMARK  10 active torsions:
REMARK  status: ('A' for Active; 'I' for Inactive)
REMARK       I    between atoms: C2_2  and  N1_4 
REMARK    1  A    between atoms: N1_4  and  C3_6 
REMARK    2  A    between atoms: C3_6  and  C5_9 
REMARK       I    between atoms: C5_9  and  N3_11 
REMARK    3  A    between atoms: N3_11  and  C6_13 
REMARK    4  A    between atoms: C9_18  and  C10_19 
REMARK    5  A    between atoms: C10_19  and  N4_20 
REMARK       I    between atoms: N4_20  and  C11_22 
REMARK    6  A    between atoms: C11_22  and  C12_24 
REMARK    7  A    between atoms: C12_24  and  C13_26 
REMARK    8  A    between atoms: C15_29  and  N5_30 
REMARK    9  A    between atoms: C16_35  and  C17_36 
REMARK   10  A    between atoms: C17_36  and  O6_38 
ROOT
HETATM    1  C3  UNL     1      52.283   5.399  -2.350  1.00  0.00     0.284 C 
HETATM    2  C4  UNL     1      52.539   4.559  -3.540  1.00  0.00     0.094 C 
HETATM    3  N2  UNL     1      52.740   3.908  -4.474  1.00  0.00    -0.195 NA
ENDROOT
BRANCH   1   4
HETATM    4  N1  UNL     1      51.190   6.307  -2.584  1.00  0.00    -0.337 N 
HETATM    5  C2  UNL     1      51.178   7.597  -2.004  1.00  0.00     0.215 C 
HETATM    6  C1  UNL     1      50.071   8.562  -2.226  1.00  0.00     0.117 C 
HETATM    7  O1  UNL     1      52.131   7.962  -1.270  1.00  0.00    -0.274 OA
ATOM      8  H1  UNL     1      50.413   6.015  -3.176  1.00  0.00     0.164 HD
ENDBRANCH   1   4
BRANCH   1   9
HETATM    9  C5  UNL     1      52.004   4.436  -1.229  1.00  0.00     0.255 C 
HETATM   10  O2  UNL     1      52.332   4.834  -0.084  1.00  0.00    -0.270 OA
HETATM   11  N3  UNL     1      51.407   3.173  -1.492  1.00  0.00    -0.342 N 
ATOM     12  H3  UNL     1      51.166   2.917  -2.449  1.00  0.00     0.163 HD
BRANCH  11  13
HETATM   13  C6  UNL     1      51.140   2.258  -0.422  1.00  0.00     0.203 C 
HETATM   14  C7  UNL     1      52.055   1.113  -0.511  1.00  0.00     0.213 C 
HETATM   15  O3  UNL     1      53.075   1.082   0.109  1.00  0.00    -0.283 OA
HETATM   16  S1  UNL     1      51.576  -0.218  -1.578  1.00  0.00    -0.086 SA
HETATM   17  C8  UNL     1      50.082   0.331  -2.421  1.00  0.00     0.118 C 
HETATM   18  C9  UNL     1      49.201   1.026  -1.372  1.00  0.00    -0.040 C 
HETATM   19  C16 UNL     1      49.675   1.864  -0.496  1.00  0.00     0.025 C 
BRANCH  18  20
HETATM   20  C10 UNL     1      47.746   0.744  -1.510  1.00  0.00     0.158 C 
BRANCH  20  21
HETATM   21  N4  UNL     1      47.442   0.545  -2.911  1.00  0.00    -0.350 N 
HETATM   22  C11 UNL     1      46.867  -0.714  -3.328  1.00  0.00     0.294 C 
HETATM   23  O4  UNL     1      46.680  -1.538  -2.423  1.00  0.00    -0.264 OA
ATOM     24  H4  UNL     1      47.629   1.280  -3.593  1.00  0.00     0.163 HD
BRANCH  22  25
HETATM   25  C12 UNL     1      46.548  -0.960  -4.694  1.00  0.00     0.266 C 
HETATM   26  O5  UNL     1      45.889  -0.029  -5.284  1.00  0.00    -0.280 OA
BRANCH  25  27
HETATM   27  C13 UNL     1      46.930  -2.183  -5.411  1.00  0.00     0.097 A 
HETATM   28  C14 UNL     1      47.205  -2.079  -6.782  1.00  0.00     0.087 A 
HETATM   29  S2  UNL     1      47.591  -3.680  -7.198  1.00  0.00    -0.064 SA
HETATM   30  C15 UNL     1      47.398  -4.396  -5.676  1.00  0.00     0.142 A 
HETATM   31  N6  UNL     1      47.038  -3.368  -4.896  1.00  0.00    -0.333 N 
ATOM     32  H6  UNL     1      46.852  -3.515  -3.903  1.00  0.00     0.168 HD
BRANCH  30  33
HETATM   33  N5  UNL     1      47.552  -5.657  -5.310  1.00  0.00    -0.380 N 
ATOM     34  H52 UNL     1      47.769  -6.450  -5.913  1.00  0.00     0.158 HD
ATOM     35  H51 UNL     1      47.491  -6.079  -4.384  1.00  0.00     0.158 HD
ENDBRANCH  30  33
ENDBRANCH  25  27
ENDBRANCH  22  25
ENDBRANCH  20  21
ENDBRANCH  18  20
BRANCH  19  36
HETATM   36  C17 UNL     1      48.869   2.428   0.563  1.00  0.00     0.158 C 
HETATM   37  N7  UNL     1      47.479   2.477   0.695  1.00  0.00    -0.074 NA
BRANCH  36  38
HETATM   38  O6  UNL     1      49.554   2.966   1.540  1.00  0.00    -0.348 OA
ATOM     39  H6  UNL     1      49.982   2.341   2.113  1.00  0.00     0.219 HD
ENDBRANCH  36  38
ENDBRANCH  19  36
ENDBRANCH  11  13
ENDBRANCH   1   9
TORSDOF 10
ENDMDL
MODEL 2
REMARK VINA RESULT: -7.339337514      3.378      5.124
REMARK  10 active torsions:
REMARK  status: ('A' for Active; 'I' for Inactive)
REMARK       I    between atoms: C2_2  and  N1_4 
REMARK    1  A    between atoms: N1_4  and  C3_6 
REMARK    2  A    between atoms: C3_6  and  C5_9 
REMARK       I    between atoms: C5_9  and  N3_11 
REMARK    3  A    between atoms: N3_11  and  C6_13 
REMARK    4  A    between atoms: C9_18  and  C10_19 
REMARK    5  A    between atoms: C10_19  and  N4_20 
REMARK       I    between atoms: N4_20  and  C11_22 
REMARK    6  A    between atoms: C11_22  and  C12_24 
REMARK    7  A    between atoms: C12_24  and  C13_26 
REMARK    8  A    between atoms: C15_29  and  N5_30 
REMARK    9  A    between atoms: C16_35  and  C17_36 
REMARK   10  A    between atoms: C17_36  and  O6_38 
ROOT
HETATM    1  C3  UNL     1      51.395   2.217  -0.271  1.00  0.00     0.284 C 
HETATM    2  C4  UNL     1      51.897   3.463  -0.890  1.00  0.00     0.094 C 
HETATM    3  N2  UNL     1      52.285   4.441  -1.370  1.00  0.00    -0.195 NA
ENDROOT
BRANCH   1   4
HETATM    4  N1  UNL     1      49.960   2.143  -0.347  1.00  0.00    -0.337 N 
HETATM    5  C2  UNL     1      49.149   2.584   0.724  1.00  0.00     0.215 C 
HETATM    6  C1  UNL     1      47.665   2.527   0.679  1.00  0.00     0.117 C 
HETATM    7  O1  UNL     1      49.683   3.046   1.763  1.00  0.00    -0.274 OA
ATOM      8  H1  UNL     1      49.521   1.765  -1.188  1.00  0.00     0.164 HD
ENDBRANCH   1   4
BRANCH   1   9
HETATM    9  C5  UNL     1      52.073   1.098  -1.013  1.00  0.00     0.255 C 
HETATM   10  O2  UNL     1      52.907   0.438  -0.346  1.00  0.00    -0.270 OA
HETATM   11  N3  UNL     1      51.758   0.838  -2.374  1.00  0.00    -0.342 N 
ATOM     12  H3  UNL     1      51.068   1.416  -2.854  1.00  0.00     0.163 HD
BRANCH  11  13
HETATM   13  C6  UNL     1      52.403  -0.230  -3.079  1.00  0.00     0.203 C 
HETATM   14  C7  UNL     1      52.866   0.249  -4.388  1.00  0.00     0.213 C 
HETATM   15  O3  UNL     1      53.984   0.637  -4.548  1.00  0.00    -0.283 OA
HETATM   16  S1  UNL     1      51.692   0.223  -5.715  1.00  0.00    -0.086 SA
HETATM   17  C8  UNL     1      50.121  -0.266  -4.982  1.00  0.00     0.118 C 
HETATM   18  C9  UNL     1      50.418  -1.409  -4.000  1.00  0.00    -0.040 C 
HETATM   19  C16 UNL     1      51.424  -1.387  -3.174  1.00  0.00     0.025 C 
BRANCH  18  20
HETATM   20  C10 UNL     1      49.398  -2.493  -3.997  1.00  0.00     0.158 C 
BRANCH  20  21
HETATM   21  N4  UNL     1      49.934  -3.639  -4.702  1.00  0.00    -0.350 N 
HETATM   22  C11 UNL     1      49.018  -4.627  -5.224  1.00  0.00     0.294 C 
HETATM   23  O4  UNL     1      47.819  -4.402  -5.016  1.00  0.00    -0.264 OA
ATOM     24  H4  UNL     1      50.940  -3.747  -4.828  1.00  0.00     0.163 HD
BRANCH  22  25
HETATM   25  C12 UNL     1      49.494  -5.772  -5.926  1.00  0.00     0.266 C 
HETATM   26  O5  UNL     1      50.066  -5.533  -7.050  1.00  0.00    -0.280 OA
BRANCH  25  27
HETATM   27  C13 UNL     1      49.355  -7.146  -5.428  1.00  0.00     0.097 A 
HETATM   28  C14 UNL     1      50.321  -8.084  -5.820  1.00  0.00     0.087 A 
HETATM   29  S2  UNL     1      49.791  -9.498  -5.042  1.00  0.00    -0.064 SA
HETATM   30  C15 UNL     1      48.417  -8.872  -4.275  1.00  0.00     0.142 A 
HETATM   31  N6  UNL     1      48.415  -7.586  -4.651  1.00  0.00    -0.333 N 
ATOM     32  H6  UNL     1      47.680  -6.957  -4.328  1.00  0.00     0.168 HD
BRANCH  30  33
HETATM   33  N5  UNL     1      47.538  -9.475  -3.494  1.00  0.00    -0.380 N 
ATOM     34  H52 UNL     1      46.727 -10.019  -3.786  1.00  0.00     0.158 HD
ATOM     35  H51 UNL     1      47.494  -9.520  -2.476  1.00  0.00     0.158 HD
ENDBRANCH  30  33
ENDBRANCH  25  27
ENDBRANCH  22  25
ENDBRANCH  20  21
ENDBRANCH  18  20
BRANCH  19  36
HETATM   36  C17 UNL     1      51.770  -2.511  -2.334  1.00  0.00     0.158 C 
HETATM   37  N7  UNL     1      52.296  -3.757  -2.683  1.00  0.00    -0.074 NA
BRANCH  36  38
HETATM   38  O6  UNL     1      51.561  -2.319  -1.056  1.00  0.00    -0.348 OA
ATOM     39  H6  UNL     1      51.676  -3.092  -0.516  1.00  0.00     0.219 HD
ENDBRANCH  36  38
ENDBRANCH  19  36
ENDBRANCH  11  13
ENDBRANCH   1   9
TORSDOF 10
ENDMDL
MODEL 3
REMARK VINA RESULT: -7.325995489      1.877      2.385
REMARK  10 active torsions:
REMARK  status: ('A' for Active; 'I' for Inactive)
REMARK       I    between atoms: C2_2  and  N1_4 
REMARK    1  A    between atoms: N1_4  and  C3_6 
REMARK    2  A    between atoms: C3_6  and  C5_9 
REMARK       I    between atoms: C5_9  and  N3_11 
REMARK    3  A    between atoms: N3_11  and  C6_13 
REMARK    4  A    between atoms: C9_18  and  C10_19 
REMARK    5  A    between atoms: C10_19  and  N4_20 
REMARK       I    between atoms: N4_20  and  C11_22 
REMARK    6  A    between atoms: C11_22  and  C12_24 
REMARK    7  A    between atoms: C12_24  and  C13_26 
REMARK    8  A    between atoms: C15_29  and  N5_30 
REMARK    9  A    between atoms: C16_35  and  C17_36 
REMARK   10  A    between atoms: C17_36  and  O6_38 
ROOT
HETATM    1  C3  UNL     1      52.342   5.336  -2.424  1.00  0.00     0.284 C 
HETATM    2  C4  UNL     1      52.668   4.463  -3.572  1.00  0.00     0.094 C 
HETATM    3  N2  UNL     1      52.923   3.785  -4.474  1.00  0.00    -0.195 NA
ENDROOT
BRANCH   1   4
HETATM    4  N1  UNL     1      51.241   6.210  -2.734  1.00  0.00    -0.337 N 
HETATM    5  C2  UNL     1      51.185   7.525  -2.216  1.00  0.00     0.215 C 
HETATM    6  C1  UNL     1      50.069   8.456  -2.518  1.00  0.00     0.117 C 
HETATM    7  O1  UNL     1      52.106   7.942  -1.468  1.00  0.00    -0.274 OA
ATOM      8  H1  UNL     1      50.490   5.876  -3.338  1.00  0.00     0.164 HD
ENDBRANCH   1   4
BRANCH   1   9
HETATM    9  C5  UNL     1      52.035   4.404  -1.283  1.00  0.00     0.255 C 
HETATM   10  O2  UNL     1      52.342   4.831  -0.143  1.00  0.00    -0.270 OA
HETATM   11  N3  UNL     1      51.436   3.138  -1.524  1.00  0.00    -0.342 N 
ATOM     12  H3  UNL     1      51.213   2.857  -2.478  1.00  0.00     0.163 HD
BRANCH  11  13
HETATM   13  C6  UNL     1      51.143   2.253  -0.436  1.00  0.00     0.203 C 
HETATM   14  C7  UNL     1      52.057   1.104  -0.473  1.00  0.00     0.213 C 
HETATM   15  O3  UNL     1      53.063   1.088   0.171  1.00  0.00    -0.283 OA
HETATM   16  S1  UNL     1      51.598  -0.255  -1.514  1.00  0.00    -0.086 SA
HETATM   17  C8  UNL     1      50.125   0.274  -2.404  1.00  0.00     0.118 C 
HETATM   18  C9  UNL     1      49.223   1.000  -1.395  1.00  0.00    -0.040 C 
HETATM   19  C16 UNL     1      49.679   1.861  -0.532  1.00  0.00     0.025 C 
BRANCH  18  20
HETATM   20  C10 UNL     1      47.771   0.717  -1.559  1.00  0.00     0.158 C 
BRANCH  20  21
HETATM   21  N4  UNL     1      47.454   0.706  -2.971  1.00  0.00    -0.350 N 
HETATM   22  C11 UNL     1      46.782  -0.446  -3.526  1.00  0.00     0.294 C 
HETATM   23  O4  UNL     1      46.528  -1.352  -2.721  1.00  0.00    -0.264 OA
ATOM     24  H4  UNL     1      47.702   1.498  -3.565  1.00  0.00     0.163 HD
BRANCH  22  25
HETATM   25  C12 UNL     1      46.447  -0.506  -4.909  1.00  0.00     0.266 C 
HETATM   26  O5  UNL     1      45.409  -1.204  -5.198  1.00  0.00    -0.280 OA
BRANCH  25  27
HETATM   27  C13 UNL     1      47.216   0.171  -5.961  1.00  0.00     0.097 A 
HETATM   28  C14 UNL     1      48.289  -0.524  -6.537  1.00  0.00     0.087 A 
HETATM   29  S2  UNL     1      48.881   0.595  -7.670  1.00  0.00    -0.064 SA
HETATM   30  C15 UNL     1      47.787   1.856  -7.384  1.00  0.00     0.142 A 
HETATM   31  N6  UNL     1      47.000   1.365  -6.417  1.00  0.00    -0.333 N 
ATOM     32  H6  UNL     1      46.236   1.928  -6.042  1.00  0.00     0.168 HD
BRANCH  30  33
HETATM   33  N5  UNL     1      47.703   3.046  -7.953  1.00  0.00    -0.380 N 
ATOM     34  H52 UNL     1      47.779   3.954  -7.495  1.00  0.00     0.158 HD
ATOM     35  H51 UNL     1      47.551   3.290  -8.932  1.00  0.00     0.158 HD
ENDBRANCH  30  33
ENDBRANCH  25  27
ENDBRANCH  22  25
ENDBRANCH  20  21
ENDBRANCH  18  20
BRANCH  19  36
HETATM   36  C17 UNL     1      48.851   2.455   0.492  1.00  0.00     0.158 C 
HETATM   37  N7  UNL     1      47.485   2.295   0.738  1.00  0.00    -0.074 NA
BRANCH  36  38
HETATM   38  O6  UNL     1      49.487   3.258   1.308  1.00  0.00    -0.348 OA
ATOM     39  H6  UNL     1      48.943   3.645   1.984  1.00  0.00     0.219 HD
ENDBRANCH  36  38
ENDBRANCH  19  36
ENDBRANCH  11  13
ENDBRANCH   1   9
TORSDOF 10
ENDMDL
MODEL 4
REMARK VINA RESULT: -7.314357804      2.998      4.837
REMARK  10 active torsions:
REMARK  status: ('A' for Active; 'I' for Inactive)
REMARK       I    between atoms: C2_2  and  N1_4 
REMARK    1  A    between atoms: N1_4  and  C3_6 
REMARK    2  A    between atoms: C3_6  and  C5_9 
REMARK       I    between atoms: C5_9  and  N3_11 
REMARK    3  A    between atoms: N3_11  and  C6_13 
REMARK    4  A    between atoms: C9_18  and  C10_19 
REMARK    5  A    between atoms: C10_19  and  N4_20 
REMARK       I    between atoms: N4_20  and  C11_22 
REMARK    6  A    between atoms: C11_22  and  C12_24 
REMARK    7  A    between atoms: C12_24  and  C13_26 
REMARK    8  A    between atoms: C15_29  and  N5_30 
REMARK    9  A    between atoms: C16_35  and  C17_36 
REMARK   10  A    between atoms: C17_36  and  O6_38 
ROOT
HETATM    1  C3  UNL     1      51.338   2.497  -0.307  1.00  0.00     0.284 C 
HETATM    2  C4  UNL     1      51.714   3.674  -1.120  1.00  0.00     0.094 C 
HETATM    3  N2  UNL     1      52.004   4.598  -1.752  1.00  0.00    -0.195 NA
ENDROOT
BRANCH   1   4
HETATM    4  N1  UNL     1      49.941   2.187  -0.462  1.00  0.00    -0.337 N 
HETATM    5  C2  UNL     1      49.008   2.499   0.554  1.00  0.00     0.215 C 
HETATM    6  C1  UNL     1      47.559   2.199   0.428  1.00  0.00     0.117 C 
HETATM    7  O1  UNL     1      49.398   3.053   1.612  1.00  0.00    -0.274 OA
ATOM      8  H1  UNL     1      49.619   1.735  -1.319  1.00  0.00     0.164 HD
ENDBRANCH   1   4
BRANCH   1   9
HETATM    9  C5  UNL     1      52.232   1.382  -0.776  1.00  0.00     0.255 C 
HETATM   10  O2  UNL     1      53.097   1.003   0.053  1.00  0.00    -0.270 OA
HETATM   11  N3  UNL     1      52.074   0.822  -2.072  1.00  0.00    -0.342 N 
ATOM     12  H3  UNL     1      51.348   1.181  -2.692  1.00  0.00     0.163 HD
BRANCH  11  13
HETATM   13  C6  UNL     1      52.925  -0.241  -2.515  1.00  0.00     0.203 C 
HETATM   14  C7  UNL     1      53.936   0.287  -3.440  1.00  0.00     0.213 C 
HETATM   15  O3  UNL     1      55.023   0.604  -3.058  1.00  0.00    -0.283 OA
HETATM   16  S1  UNL     1      53.471   0.430  -5.143  1.00  0.00    -0.086 SA
HETATM   17  C8  UNL     1      51.722   0.007  -5.220  1.00  0.00     0.118 C 
HETATM   18  C9  UNL     1      51.513  -1.215  -4.314  1.00  0.00    -0.040 C 
HETATM   19  C16 UNL     1      52.050  -1.317  -3.132  1.00  0.00     0.025 C 
BRANCH  18  20
HETATM   20  C10 UNL     1      50.559  -2.222  -4.855  1.00  0.00     0.158 C 
BRANCH  20  21
HETATM   21  N4  UNL     1      49.540  -1.534  -5.619  1.00  0.00    -0.350 N 
HETATM   22  C11 UNL     1      48.186  -1.513  -5.115  1.00  0.00     0.294 C 
HETATM   23  O4  UNL     1      48.010  -2.103  -4.041  1.00  0.00    -0.264 OA
ATOM     24  H4  UNL     1      49.774  -1.073  -6.499  1.00  0.00     0.163 HD
BRANCH  22  25
HETATM   25  C12 UNL     1      47.147  -0.850  -5.829  1.00  0.00     0.266 C 
HETATM   26  O5  UNL     1      45.961  -1.293  -5.618  1.00  0.00    -0.280 OA
BRANCH  25  27
HETATM   27  C13 UNL     1      47.381   0.268  -6.752  1.00  0.00     0.097 A 
HETATM   28  C14 UNL     1      47.576  -0.033  -8.108  1.00  0.00     0.087 A 
HETATM   29  S2  UNL     1      47.805   1.504  -8.793  1.00  0.00    -0.064 SA
HETATM   30  C15 UNL     1      47.650   2.438  -7.389  1.00  0.00     0.142 A 
HETATM   31  N6  UNL     1      47.427   1.524  -6.435  1.00  0.00    -0.333 N 
ATOM     32  H6  UNL     1      47.294   1.814  -5.466  1.00  0.00     0.168 HD
BRANCH  30  33
HETATM   33  N5  UNL     1      47.727   3.749  -7.234  1.00  0.00    -0.380 N 
ATOM     34  H52 UNL     1      46.978   4.428  -7.365  1.00  0.00     0.158 HD
ATOM     35  H51 UNL     1      48.521   4.327  -6.960  1.00  0.00     0.158 HD
ENDBRANCH  30  33
ENDBRANCH  25  27
ENDBRANCH  22  25
ENDBRANCH  20  21
ENDBRANCH  18  20
BRANCH  19  36
HETATM   36  C17 UNL     1      51.948  -2.515  -2.329  1.00  0.00     0.158 C 
HETATM   37  N7  UNL     1      52.244  -3.839  -2.661  1.00  0.00    -0.074 NA
BRANCH  36  38
HETATM   38  O6  UNL     1      51.519  -2.315  -1.108  1.00  0.00    -0.348 OA
ATOM     39  H6  UNL     1      51.777  -2.984  -0.485  1.00  0.00     0.219 HD
ENDBRANCH  36  38
ENDBRANCH  19  36
ENDBRANCH  11  13
ENDBRANCH   1   9
TORSDOF 10
ENDMDL
MODEL 5
REMARK VINA RESULT: -7.242813235      1.153      2.075
REMARK  10 active torsions:
REMARK  status: ('A' for Active; 'I' for Inactive)
REMARK       I    between atoms: C2_2  and  N1_4 
REMARK    1  A    between atoms: N1_4  and  C3_6 
REMARK    2  A    between atoms: C3_6  and  C5_9 
REMARK       I    between atoms: C5_9  and  N3_11 
REMARK    3  A    between atoms: N3_11  and  C6_13 
REMARK    4  A    between atoms: C9_18  and  C10_19 
REMARK    5  A    between atoms: C10_19  and  N4_20 
REMARK       I    between atoms: N4_20  and  C11_22 
REMARK    6  A    between atoms: C11_22  and  C12_24 
REMARK    7  A    between atoms: C12_24  and  C13_26 
REMARK    8  A    between atoms: C15_29  and  N5_30 
REMARK    9  A    between atoms: C16_35  and  C17_36 
REMARK   10  A    between atoms: C17_36  and  O6_38 
ROOT
HETATM    1  C3  UNL     1      52.263   5.380  -2.378  1.00  0.00     0.284 C 
HETATM    2  C4  UNL     1      51.581   6.640  -2.010  1.00  0.00     0.094 C 
HETATM    3  N2  UNL     1      51.050   7.627  -1.727  1.00  0.00    -0.195 NA
ENDROOT
BRANCH   1   4
HETATM    4  N1  UNL     1      53.670   5.597  -2.589  1.00  0.00    -0.337 N 
HETATM    5  C2  UNL     1      54.466   4.630  -3.246  1.00  0.00     0.215 C 
HETATM    6  C1  UNL     1      55.920   4.820  -3.486  1.00  0.00     0.117 C 
HETATM    7  O1  UNL     1      53.944   3.561  -3.652  1.00  0.00    -0.274 OA
ATOM      8  H1  UNL     1      54.100   6.461  -2.258  1.00  0.00     0.164 HD
ENDBRANCH   1   4
BRANCH   1   9
HETATM    9  C5  UNL     1      51.988   4.428  -1.246  1.00  0.00     0.255 C 
HETATM   10  O2  UNL     1      52.327   4.834  -0.107  1.00  0.00    -0.270 OA
HETATM   11  N3  UNL     1      51.382   3.166  -1.493  1.00  0.00    -0.342 N 
ATOM     12  H3  UNL     1      51.133   2.903  -2.446  1.00  0.00     0.163 HD
BRANCH  11  13
HETATM   13  C6  UNL     1      51.119   2.262  -0.413  1.00  0.00     0.203 C 
HETATM   14  C7  UNL     1      52.031   1.113  -0.497  1.00  0.00     0.213 C 
HETATM   15  O3  UNL     1      53.055   1.086   0.118  1.00  0.00    -0.283 OA
HETATM   16  S1  UNL     1      51.542  -0.226  -1.548  1.00  0.00    -0.086 SA
HETATM   17  C8  UNL     1      50.044   0.319  -2.388  1.00  0.00     0.118 C 
HETATM   18  C9  UNL     1      49.172   1.026  -1.340  1.00  0.00    -0.040 C 
HETATM   19  C16 UNL     1      49.653   1.871  -0.475  1.00  0.00     0.025 C 
BRANCH  18  20
HETATM   20  C10 UNL     1      47.716   0.746  -1.468  1.00  0.00     0.158 C 
BRANCH  20  21
HETATM   21  N4  UNL     1      47.399   0.554  -2.867  1.00  0.00    -0.350 N 
HETATM   22  C11 UNL     1      46.844  -0.712  -3.288  1.00  0.00     0.294 C 
HETATM   23  O4  UNL     1      46.683  -1.547  -2.389  1.00  0.00    -0.264 OA
ATOM     24  H4  UNL     1      47.564   1.299  -3.544  1.00  0.00     0.163 HD
BRANCH  22  25
HETATM   25  C12 UNL     1      46.514  -0.952  -4.653  1.00  0.00     0.266 C 
HETATM   26  O5  UNL     1      45.837  -0.025  -5.229  1.00  0.00    -0.280 OA
BRANCH  25  27
HETATM   27  C13 UNL     1      46.904  -2.165  -5.382  1.00  0.00     0.097 A 
HETATM   28  C14 UNL     1      47.147  -2.051  -6.758  1.00  0.00     0.087 A 
HETATM   29  S2  UNL     1      47.555  -3.643  -7.189  1.00  0.00    -0.064 SA
HETATM   30  C15 UNL     1      47.409  -4.368  -5.665  1.00  0.00     0.142 A 
HETATM   31  N6  UNL     1      47.047  -3.349  -4.874  1.00  0.00    -0.333 N 
ATOM     32  H6  UNL     1      46.885  -3.504  -3.878  1.00  0.00     0.168 HD
BRANCH  30  33
HETATM   33  N5  UNL     1      47.596  -5.627  -5.308  1.00  0.00    -0.380 N 
ATOM     34  H52 UNL     1      48.081  -5.965  -4.478  1.00  0.00     0.158 HD
ATOM     35  H51 UNL     1      47.301  -6.486  -5.772  1.00  0.00     0.158 HD
ENDBRANCH  30  33
ENDBRANCH  25  27
ENDBRANCH  22  25
ENDBRANCH  20  21
ENDBRANCH  18  20
BRANCH  19  36
HETATM   36  C17 UNL     1      48.855   2.447   0.583  1.00  0.00     0.158 C 
HETATM   37  N7  UNL     1      47.466   2.526   0.710  1.00  0.00    -0.074 NA
BRANCH  36  38
HETATM   38  O6  UNL     1      49.547   2.965   1.567  1.00  0.00    -0.348 OA
ATOM     39  H6  UNL     1      50.320   2.469   1.809  1.00  0.00     0.219 HD
ENDBRANCH  36  38
ENDBRANCH  19  36
ENDBRANCH  11  13
ENDBRANCH   1   9
TORSDOF 10
ENDMDL
