MODEL 1
REMARK VINA RESULT: -5.898317018      0.000      0.000
REMARK  11 active torsions:
REMARK  status: ('A' for Active; 'I' for Inactive)
REMARK    1  A    between atoms: S1_2  and  C2_3 
REMARK    2  A    between atoms: C2_3  and  C3_4 
REMARK    3  A    between atoms: C3_4  and  C4_5 
REMARK    4  A    between atoms: C4_5  and  N1_6 
REMARK    5  A    between atoms: C4_5  and  C5_10 
REMARK       I    between atoms: C5_10  and  N2_12 
REMARK    6  A    between atoms: N2_12  and  N3_14 
REMARK    7  A    between atoms: C6_16  and  C7_17 
REMARK    8  A    between atoms: C7_17  and  C8_18 
REMARK       I    between atoms: C8_18  and  N4_20 
REMARK    9  A    between atoms: N4_20  and  C9_22 
REMARK   10  A    between atoms: C9_22  and  C10_23 
REMARK   11  A    between atoms: C9_22  and  C12_26 
ROOT
HETATM    1  C7  UNL     1      51.563   0.841  -3.127  1.00  0.00     0.164 C 
HETATM    2  C13 UNL     1      52.645   1.249  -2.138  1.00  0.00     0.153 C 
HETATM    3  C14 UNL     1      53.950   1.405  -2.778  1.00  0.00     0.069 C 
HETATM    4  N6  UNL     1      54.976   1.542  -3.299  1.00  0.00    -0.197 NA
HETATM    5  C15 UNL     1      52.292   2.517  -1.433  1.00  0.00     0.140 C 
HETATM    6  N7  UNL     1      51.873   3.579  -2.289  1.00  0.00    -0.379 N 
ATOM      7  H7  UNL     1      51.722   4.528  -1.948  1.00  0.00     0.157 HD
HETATM    8  C16 UNL     1      51.680   3.215  -3.662  1.00  0.00     0.384 C 
HETATM    9  N8  UNL     1      50.702   4.047  -4.346  1.00  0.00    -0.035 N 
ATOM     10  H81 UNL     1      51.046   4.974  -4.597  1.00  0.00     0.281 HD
ATOM     11  H82 UNL     1      49.938   4.368  -3.750  1.00  0.00     0.281 HD
HETATM   12  C17 UNL     1      50.271   3.241  -5.486  1.00  0.00     0.261 C 
HETATM   13  C18 UNL     1      50.888   1.850  -5.253  1.00  0.00     0.106 C 
HETATM   14  C19 UNL     1      52.020   1.703  -6.198  1.00  0.00     0.034 C 
HETATM   15  N9  UNL     1      51.168   1.924  -3.884  1.00  0.00    -0.342 N 
ENDROOT
BRANCH   1  16
HETATM   16  C6  UNL     1      52.039  -0.346  -3.896  1.00  0.00     0.122 C 
HETATM   17  N3  UNL     1      51.364  -1.428  -3.986  1.00  0.00    -0.310 N 
ATOM     18  H3  UNL     1      50.467  -1.452  -3.502  1.00  0.00     0.185 HD
BRANCH  17  19
HETATM   19  N2  UNL     1      51.728  -2.561  -4.670  1.00  0.00    -0.269 N 
HETATM   20  C5  UNL     1      52.183  -3.722  -4.015  1.00  0.00     0.266 C 
HETATM   21  O1  UNL     1      52.267  -3.746  -2.768  1.00  0.00    -0.269 OA
ATOM     22  H2  UNL     1      51.667  -2.562  -5.688  1.00  0.00     0.190 HD
BRANCH  20  23
HETATM   23  C4  UNL     1      52.579  -4.961  -4.758  1.00  0.00     0.277 C 
BRANCH  23  24
HETATM   24  C3  UNL     1      51.493  -5.431  -5.655  1.00  0.00     0.053 C 
BRANCH  24  25
HETATM   25  C2  UNL     1      50.272  -5.885  -4.951  1.00  0.00     0.076 C 
BRANCH  25  26
HETATM   26  S1  UNL     1      48.712  -5.267  -5.536  1.00  0.00    -0.173 SA
HETATM   27  C1  UNL     1      48.213  -3.662  -4.941  1.00  0.00     0.089 C 
ENDBRANCH  25  26
ENDBRANCH  24  25
ENDBRANCH  23  24
BRANCH  23  28
HETATM   28  N1  UNL     1      52.854  -6.020  -3.786  1.00  0.00    -0.066 N 
ATOM     29  H13 UNL     1      53.491  -6.731  -4.147  1.00  0.00     0.275 HD
ATOM     30  H12 UNL     1      53.433  -5.701  -3.008  1.00  0.00     0.275 HD
ATOM     31  H11 UNL     1      51.962  -6.408  -3.480  1.00  0.00     0.275 HD
ENDBRANCH  23  28
ENDBRANCH  20  23
ENDBRANCH  17  19
ENDBRANCH   1  16
BRANCH   1  32
HETATM   32  C8  UNL     1      50.427   0.338  -2.312  1.00  0.00     0.254 C 
HETATM   33  O2  UNL     1      50.704  -0.535  -1.420  1.00  0.00    -0.270 OA
HETATM   34  N4  UNL     1      49.101   0.753  -2.462  1.00  0.00    -0.339 N 
ATOM     35  H4  UNL     1      48.879   1.448  -3.174  1.00  0.00     0.163 HD
BRANCH  34  36
HETATM   36  C9  UNL     1      48.034   0.229  -1.639  1.00  0.00     0.243 C 
BRANCH  36  37
HETATM   37  C10 UNL     1      47.217   1.322  -1.039  1.00  0.00     0.154 C 
HETATM   38  C11 UNL     1      47.593   2.099   0.143  1.00  0.00     0.093 C 
HETATM   39  O3  UNL     1      46.148   1.578  -1.594  1.00  0.00    -0.296 OA
ENDBRANCH  36  37
BRANCH  36  40
HETATM   40  C12 UNL     1      47.118  -0.641  -2.414  1.00  0.00     0.261 C 
HETATM   41  N5  UNL     1      46.927  -0.393  -3.784  1.00  0.00    -0.060 NA
HETATM   42  O4  UNL     1      46.509  -1.593  -1.875  1.00  0.00    -0.274 OA
ENDBRANCH  36  40
ENDBRANCH  34  36
ENDBRANCH   1  32
TORSDOF 11
ENDMDL
MODEL 2
REMARK VINA RESULT: -5.737288813      2.816      4.867
REMARK  11 active torsions:
REMARK  status: ('A' for Active; 'I' for Inactive)
REMARK    1  A    between atoms: S1_2  and  C2_3 
REMARK    2  A    between atoms: C2_3  and  C3_4 
REMARK    3  A    between atoms: C3_4  and  C4_5 
REMARK    4  A    between atoms: C4_5  and  N1_6 
REMARK    5  A    between atoms: C4_5  and  C5_10 
REMARK       I    between atoms: C5_10  and  N2_12 
REMARK    6  A    between atoms: N2_12  and  N3_14 
REMARK    7  A    between atoms: C6_16  and  C7_17 
REMARK    8  A    between atoms: C7_17  and  C8_18 
REMARK       I    between atoms: C8_18  and  N4_20 
REMARK    9  A    between atoms: N4_20  and  C9_22 
REMARK   10  A    between atoms: C9_22  and  C10_23 
REMARK   11  A    between atoms: C9_22  and  C12_26 
ROOT
HETATM    1  C7  UNL     1      49.632  -0.617  -5.385  1.00  0.00     0.164 C 
HETATM    2  C13 UNL     1      49.716   0.178  -6.680  1.00  0.00     0.153 C 
HETATM    3  C14 UNL     1      49.197  -0.570  -7.823  1.00  0.00     0.069 C 
HETATM    4  N6  UNL     1      48.769  -1.166  -8.720  1.00  0.00    -0.197 NA
HETATM    5  C15 UNL     1      48.985   1.476  -6.573  1.00  0.00     0.140 C 
HETATM    6  N7  UNL     1      47.661   1.373  -6.051  1.00  0.00    -0.379 N 
ATOM      7  H7  UNL     1      47.016   2.163  -6.041  1.00  0.00     0.157 HD
HETATM    8  C16 UNL     1      47.304   0.082  -5.543  1.00  0.00     0.384 C 
HETATM    9  N8  UNL     1      46.292   0.134  -4.498  1.00  0.00    -0.035 N 
ATOM     10  H81 UNL     1      45.347   0.306  -4.842  1.00  0.00     0.281 HD
ATOM     11  H82 UNL     1      46.349   0.961  -3.904  1.00  0.00     0.281 HD
HETATM   12  C17 UNL     1      46.446  -1.129  -3.778  1.00  0.00     0.261 C 
HETATM   13  C18 UNL     1      47.737  -1.757  -4.337  1.00  0.00     0.106 C 
HETATM   14  C19 UNL     1      47.337  -2.874  -5.226  1.00  0.00     0.034 C 
HETATM   15  N9  UNL     1      48.338  -0.631  -4.910  1.00  0.00    -0.342 N 
ENDROOT
BRANCH   1  16
HETATM   16  C6  UNL     1      50.256  -1.956  -5.604  1.00  0.00     0.122 C 
HETATM   17  N3  UNL     1      51.106  -2.464  -4.796  1.00  0.00    -0.310 N 
ATOM     18  H3  UNL     1      51.349  -1.908  -3.976  1.00  0.00     0.185 HD
BRANCH  17  19
HETATM   19  N2  UNL     1      51.723  -3.683  -4.922  1.00  0.00    -0.269 N 
HETATM   20  C5  UNL     1      52.333  -4.334  -3.832  1.00  0.00     0.266 C 
HETATM   21  O1  UNL     1      52.325  -3.804  -2.700  1.00  0.00    -0.269 OA
ATOM     22  H2  UNL     1      51.741  -4.133  -5.837  1.00  0.00     0.190 HD
BRANCH  20  23
HETATM   23  C4  UNL     1      53.006  -5.666  -3.967  1.00  0.00     0.277 C 
BRANCH  23  24
HETATM   24  C3  UNL     1      54.173  -5.598  -4.883  1.00  0.00     0.053 C 
BRANCH  24  25
HETATM   25  C2  UNL     1      55.121  -6.728  -4.752  1.00  0.00     0.076 C 
BRANCH  25  26
HETATM   26  S1  UNL     1      55.731  -7.100  -3.126  1.00  0.00    -0.173 SA
HETATM   27  C1  UNL     1      55.444  -8.753  -2.522  1.00  0.00     0.089 C 
ENDBRANCH  25  26
ENDBRANCH  24  25
ENDBRANCH  23  24
BRANCH  23  28
HETATM   28  N1  UNL     1      52.046  -6.619  -4.525  1.00  0.00    -0.066 N 
ATOM     29  H13 UNL     1      52.295  -7.589  -4.332  1.00  0.00     0.275 HD
ATOM     30  H12 UNL     1      51.150  -6.608  -4.038  1.00  0.00     0.275 HD
ATOM     31  H11 UNL     1      51.954  -6.427  -5.523  1.00  0.00     0.275 HD
ENDBRANCH  23  28
ENDBRANCH  20  23
ENDBRANCH  17  19
ENDBRANCH   1  16
BRANCH   1  32
HETATM   32  C8  UNL     1      50.531   0.069  -4.420  1.00  0.00     0.254 C 
HETATM   33  O2  UNL     1      51.725   0.301  -4.814  1.00  0.00    -0.270 OA
HETATM   34  N4  UNL     1      50.154   0.466  -3.134  1.00  0.00    -0.339 N 
ATOM     35  H4  UNL     1      49.203   0.280  -2.819  1.00  0.00     0.163 HD
BRANCH  34  36
HETATM   36  C9  UNL     1      51.071   1.132  -2.236  1.00  0.00     0.243 C 
BRANCH  36  37
HETATM   37  C10 UNL     1      50.374   2.143  -1.392  1.00  0.00     0.154 C 
HETATM   38  C11 UNL     1      49.396   1.836  -0.348  1.00  0.00     0.093 C 
HETATM   39  O3  UNL     1      50.657   3.324  -1.602  1.00  0.00    -0.296 OA
ENDBRANCH  36  37
BRANCH  36  40
HETATM   40  C12 UNL     1      51.743   0.175  -1.326  1.00  0.00     0.261 C 
HETATM   41  N5  UNL     1      52.868   0.595  -0.595  1.00  0.00    -0.060 NA
HETATM   42  O4  UNL     1      51.333  -1.001  -1.194  1.00  0.00    -0.274 OA
ENDBRANCH  36  40
ENDBRANCH  34  36
ENDBRANCH   1  32
TORSDOF 11
ENDMDL
MODEL 3
REMARK VINA RESULT: -5.719301043      3.271      5.917
REMARK  11 active torsions:
REMARK  status: ('A' for Active; 'I' for Inactive)
REMARK    1  A    between atoms: S1_2  and  C2_3 
REMARK    2  A    between atoms: C2_3  and  C3_4 
REMARK    3  A    between atoms: C3_4  and  C4_5 
REMARK    4  A    between atoms: C4_5  and  N1_6 
REMARK    5  A    between atoms: C4_5  and  C5_10 
REMARK       I    between atoms: C5_10  and  N2_12 
REMARK    6  A    between atoms: N2_12  and  N3_14 
REMARK    7  A    between atoms: C6_16  and  C7_17 
REMARK    8  A    between atoms: C7_17  and  C8_18 
REMARK       I    between atoms: C8_18  and  N4_20 
REMARK    9  A    between atoms: N4_20  and  C9_22 
REMARK   10  A    between atoms: C9_22  and  C10_23 
REMARK   11  A    between atoms: C9_22  and  C12_26 
ROOT
HETATM    1  C7  UNL     1      50.893   0.937  -2.696  1.00  0.00     0.164 C 
HETATM    2  C13 UNL     1      52.183   0.197  -3.016  1.00  0.00     0.153 C 
HETATM    3  C14 UNL     1      53.235   1.097  -3.483  1.00  0.00     0.069 C 
HETATM    4  N6  UNL     1      54.067   1.822  -3.838  1.00  0.00    -0.197 NA
HETATM    5  C15 UNL     1      52.683  -0.566  -1.833  1.00  0.00     0.140 C 
HETATM    6  N7  UNL     1      52.741   0.183  -0.620  1.00  0.00    -0.379 N 
ATOM      7  H7  UNL     1      53.176  -0.182   0.227  1.00  0.00     0.157 HD
HETATM    8  C16 UNL     1      52.144   1.485  -0.678  1.00  0.00     0.384 C 
HETATM    9  N8  UNL     1      51.646   1.948   0.608  1.00  0.00    -0.035 N 
ATOM     10  H81 UNL     1      52.376   2.266   1.247  1.00  0.00     0.281 HD
ATOM     11  H82 UNL     1      51.286   1.205   1.208  1.00  0.00     0.281 HD
HETATM   12  C17 UNL     1      50.660   2.972   0.271  1.00  0.00     0.261 C 
HETATM   13  C18 UNL     1      50.482   2.873  -1.256  1.00  0.00     0.106 C 
HETATM   14  C19 UNL     1      51.177   4.036  -1.859  1.00  0.00     0.034 C 
HETATM   15  N9  UNL     1      50.999   1.594  -1.488  1.00  0.00    -0.342 N 
ENDROOT
BRANCH   1  16
HETATM   16  C6  UNL     1      50.526   1.788  -3.866  1.00  0.00     0.122 C 
HETATM   17  N3  UNL     1      49.328   1.887  -4.301  1.00  0.00    -0.310 N 
ATOM     18  H3  UNL     1      48.614   1.351  -3.809  1.00  0.00     0.185 HD
BRANCH  17  19
HETATM   19  N2  UNL     1      48.908   2.645  -5.366  1.00  0.00    -0.269 N 
HETATM   20  C5  UNL     1      48.668   2.088  -6.637  1.00  0.00     0.266 C 
HETATM   21  O1  UNL     1      48.837   0.865  -6.828  1.00  0.00    -0.269 OA
ATOM     22  H2  UNL     1      48.764   3.646  -5.231  1.00  0.00     0.190 HD
BRANCH  20  23
HETATM   23  C4  UNL     1      48.208   2.912  -7.801  1.00  0.00     0.277 C 
BRANCH  23  24
HETATM   24  C3  UNL     1      49.236   3.902  -8.209  1.00  0.00     0.053 C 
BRANCH  24  25
HETATM   25  C2  UNL     1      48.894   5.307  -7.890  1.00  0.00     0.076 C 
BRANCH  25  26
HETATM   26  S1  UNL     1      49.825   6.104  -6.604  1.00  0.00    -0.173 SA
HETATM   27  C1  UNL     1      49.357   7.775  -6.195  1.00  0.00     0.089 C 
ENDBRANCH  25  26
ENDBRANCH  24  25
ENDBRANCH  23  24
BRANCH  23  28
HETATM   28  N1  UNL     1      47.004   3.646  -7.405  1.00  0.00    -0.066 N 
ATOM     29  H13 UNL     1      46.550   3.244  -6.585  1.00  0.00     0.275 HD
ATOM     30  H12 UNL     1      47.213   4.562  -7.009  1.00  0.00     0.275 HD
ATOM     31  H11 UNL     1      46.385   3.697  -8.213  1.00  0.00     0.275 HD
ENDBRANCH  23  28
ENDBRANCH  20  23
ENDBRANCH  17  19
ENDBRANCH   1  16
BRANCH   1  32
HETATM   32  C8  UNL     1      49.828  -0.099  -2.629  1.00  0.00     0.254 C 
HETATM   33  O2  UNL     1      49.293  -0.296  -1.484  1.00  0.00    -0.270 OA
HETATM   34  N4  UNL     1      49.388  -0.853  -3.720  1.00  0.00    -0.339 N 
ATOM     35  H4  UNL     1      49.816  -0.697  -4.632  1.00  0.00     0.163 HD
BRANCH  34  36
HETATM   36  C9  UNL     1      48.347  -1.848  -3.597  1.00  0.00     0.243 C 
BRANCH  36  37
HETATM   37  C10 UNL     1      46.992  -1.227  -3.601  1.00  0.00     0.154 C 
HETATM   38  C11 UNL     1      46.357  -0.603  -4.762  1.00  0.00     0.093 C 
HETATM   39  O3  UNL     1      46.373  -1.251  -2.535  1.00  0.00    -0.296 OA
ENDBRANCH  36  37
BRANCH  36  40
HETATM   40  C12 UNL     1      48.392  -2.832  -4.703  1.00  0.00     0.261 C 
HETATM   41  N5  UNL     1      49.309  -2.647  -5.753  1.00  0.00    -0.060 NA
HETATM   42  O4  UNL     1      47.631  -3.827  -4.726  1.00  0.00    -0.274 OA
ENDBRANCH  36  40
ENDBRANCH  34  36
ENDBRANCH   1  32
TORSDOF 11
ENDMDL
MODEL 4
REMARK VINA RESULT: -5.715460588      1.544      2.020
REMARK  11 active torsions:
REMARK  status: ('A' for Active; 'I' for Inactive)
REMARK    1  A    between atoms: S1_2  and  C2_3 
REMARK    2  A    between atoms: C2_3  and  C3_4 
REMARK    3  A    between atoms: C3_4  and  C4_5 
REMARK    4  A    between atoms: C4_5  and  N1_6 
REMARK    5  A    between atoms: C4_5  and  C5_10 
REMARK       I    between atoms: C5_10  and  N2_12 
REMARK    6  A    between atoms: N2_12  and  N3_14 
REMARK    7  A    between atoms: C6_16  and  C7_17 
REMARK    8  A    between atoms: C7_17  and  C8_18 
REMARK       I    between atoms: C8_18  and  N4_20 
REMARK    9  A    between atoms: N4_20  and  C9_22 
REMARK   10  A    between atoms: C9_22  and  C10_23 
REMARK   11  A    between atoms: C9_22  and  C12_26 
ROOT
HETATM    1  C7  UNL     1      51.508   0.919  -3.048  1.00  0.00     0.164 C 
HETATM    2  C13 UNL     1      52.514   1.526  -2.081  1.00  0.00     0.153 C 
HETATM    3  C14 UNL     1      53.832   1.695  -2.689  1.00  0.00     0.069 C 
HETATM    4  N6  UNL     1      54.869   1.840  -3.185  1.00  0.00    -0.197 NA
HETATM    5  C15 UNL     1      52.044   2.844  -1.559  1.00  0.00     0.140 C 
HETATM    6  N7  UNL     1      51.593   3.755  -2.559  1.00  0.00    -0.379 N 
ATOM      7  H7  UNL     1      51.362   4.726  -2.349  1.00  0.00     0.157 HD
HETATM    8  C16 UNL     1      51.487   3.209  -3.880  1.00  0.00     0.384 C 
HETATM    9  N8  UNL     1      50.486   3.874  -4.700  1.00  0.00    -0.035 N 
ATOM     10  H81 UNL     1      50.778   4.784  -5.055  1.00  0.00     0.281 HD
ATOM     11  H82 UNL     1      49.676   4.210  -4.178  1.00  0.00     0.281 HD
HETATM   12  C17 UNL     1      50.163   2.901  -5.742  1.00  0.00     0.261 C 
HETATM   13  C18 UNL     1      50.862   1.599  -5.309  1.00  0.00     0.106 C 
HETATM   14  C19 UNL     1      52.043   1.417  -6.186  1.00  0.00     0.034 C 
HETATM   15  N9  UNL     1      51.074   1.866  -3.952  1.00  0.00    -0.342 N 
ENDROOT
BRANCH   1  16
HETATM   16  C6  UNL     1      52.098  -0.318  -3.639  1.00  0.00     0.122 C 
HETATM   17  N3  UNL     1      51.437  -1.404  -3.773  1.00  0.00    -0.310 N 
ATOM     18  H3  UNL     1      50.469  -1.396  -3.454  1.00  0.00     0.185 HD
BRANCH  17  19
HETATM   19  N2  UNL     1      51.903  -2.581  -4.305  1.00  0.00    -0.269 N 
HETATM   20  C5  UNL     1      52.283  -3.672  -3.499  1.00  0.00     0.266 C 
HETATM   21  O1  UNL     1      52.205  -3.590  -2.255  1.00  0.00    -0.269 OA
ATOM     22  H2  UNL     1      51.975  -2.668  -5.319  1.00  0.00     0.190 HD
BRANCH  20  23
HETATM   23  C4  UNL     1      52.790  -4.958  -4.077  1.00  0.00     0.277 C 
BRANCH  23  24
HETATM   24  C3  UNL     1      53.224  -4.790  -5.487  1.00  0.00     0.053 C 
BRANCH  24  25
HETATM   25  C2  UNL     1      54.596  -5.273  -5.766  1.00  0.00     0.076 C 
BRANCH  25  26
HETATM   26  S1  UNL     1      55.282  -6.478  -4.656  1.00  0.00    -0.173 SA
HETATM   27  C1  UNL     1      54.669  -8.146  -4.807  1.00  0.00     0.089 C 
ENDBRANCH  25  26
ENDBRANCH  24  25
ENDBRANCH  23  24
BRANCH  23  28
HETATM   28  N1  UNL     1      51.705  -5.940  -4.051  1.00  0.00    -0.066 N 
ATOM     29  H13 UNL     1      51.362  -6.124  -3.108  1.00  0.00     0.275 HD
ATOM     30  H12 UNL     1      50.836  -5.578  -4.444  1.00  0.00     0.275 HD
ATOM     31  H11 UNL     1      52.030  -6.783  -4.523  1.00  0.00     0.275 HD
ENDBRANCH  23  28
ENDBRANCH  20  23
ENDBRANCH  17  19
ENDBRANCH   1  16
BRANCH   1  32
HETATM   32  C8  UNL     1      50.373   0.440  -2.216  1.00  0.00     0.254 C 
HETATM   33  O2  UNL     1      50.661  -0.352  -1.255  1.00  0.00    -0.270 OA
HETATM   34  N4  UNL     1      49.037   0.797  -2.420  1.00  0.00    -0.339 N 
ATOM     35  H4  UNL     1      48.807   1.428  -3.187  1.00  0.00     0.163 HD
BRANCH  34  36
HETATM   36  C9  UNL     1      47.972   0.301  -1.578  1.00  0.00     0.243 C 
BRANCH  36  37
HETATM   37  C10 UNL     1      47.155   1.413  -1.015  1.00  0.00     0.154 C 
HETATM   38  C11 UNL     1      47.500   2.190   0.176  1.00  0.00     0.093 C 
HETATM   39  O3  UNL     1      46.113   1.687  -1.613  1.00  0.00    -0.296 OA
ENDBRANCH  36  37
BRANCH  36  40
HETATM   40  C12 UNL     1      47.056  -0.597  -2.320  1.00  0.00     0.261 C 
HETATM   41  N5  UNL     1      46.907  -0.434  -3.709  1.00  0.00    -0.060 NA
HETATM   42  O4  UNL     1      46.410  -1.498  -1.738  1.00  0.00    -0.274 OA
ENDBRANCH  36  40
ENDBRANCH  34  36
ENDBRANCH   1  32
TORSDOF 11
ENDMDL
MODEL 5
REMARK VINA RESULT: -5.662820609      3.136      5.670
REMARK  11 active torsions:
REMARK  status: ('A' for Active; 'I' for Inactive)
REMARK    1  A    between atoms: S1_2  and  C2_3 
REMARK    2  A    between atoms: C2_3  and  C3_4 
REMARK    3  A    between atoms: C3_4  and  C4_5 
REMARK    4  A    between atoms: C4_5  and  N1_6 
REMARK    5  A    between atoms: C4_5  and  C5_10 
REMARK       I    between atoms: C5_10  and  N2_12 
REMARK    6  A    between atoms: N2_12  and  N3_14 
REMARK    7  A    between atoms: C6_16  and  C7_17 
REMARK    8  A    between atoms: C7_17  and  C8_18 
REMARK       I    between atoms: C8_18  and  N4_20 
REMARK    9  A    between atoms: N4_20  and  C9_22 
REMARK   10  A    between atoms: C9_22  and  C10_23 
REMARK   11  A    between atoms: C9_22  and  C12_26 
ROOT
HETATM    1  C7  UNL     1      50.930   0.921  -2.690  1.00  0.00     0.164 C 
HETATM    2  C13 UNL     1      52.198   0.163  -3.052  1.00  0.00     0.153 C 
HETATM    3  C14 UNL     1      53.262   1.052  -3.515  1.00  0.00     0.069 C 
HETATM    4  N6  UNL     1      54.103   1.768  -3.865  1.00  0.00    -0.197 NA
HETATM    5  C15 UNL     1      52.701  -0.642  -1.899  1.00  0.00     0.140 C 
HETATM    6  N7  UNL     1      52.796   0.073  -0.668  1.00  0.00    -0.379 N 
ATOM      7  H7  UNL     1      53.238  -0.324   0.161  1.00  0.00     0.157 HD
HETATM    8  C16 UNL     1      52.227   1.389  -0.682  1.00  0.00     0.384 C 
HETATM    9  N8  UNL     1      51.762   1.828   0.625  1.00  0.00    -0.035 N 
ATOM     10  H81 UNL     1      52.510   2.113   1.259  1.00  0.00     0.281 HD
ATOM     11  H82 UNL     1      51.397   1.077   1.212  1.00  0.00     0.281 HD
HETATM   12  C17 UNL     1      50.793   2.882   0.332  1.00  0.00     0.261 C 
HETATM   13  C18 UNL     1      50.587   2.828  -1.193  1.00  0.00     0.106 C 
HETATM   14  C19 UNL     1      51.297   3.990  -1.778  1.00  0.00     0.034 C 
HETATM   15  N9  UNL     1      51.071   1.544  -1.467  1.00  0.00    -0.342 N 
ENDROOT
BRANCH   1  16
HETATM   16  C6  UNL     1      50.562   1.812  -3.831  1.00  0.00     0.122 C 
HETATM   17  N3  UNL     1      49.355   1.976  -4.218  1.00  0.00    -0.310 N 
ATOM     18  H3  UNL     1      48.634   1.466  -3.709  1.00  0.00     0.185 HD
BRANCH  17  19
HETATM   19  N2  UNL     1      48.933   2.773  -5.253  1.00  0.00    -0.269 N 
HETATM   20  C5  UNL     1      48.595   2.249  -6.516  1.00  0.00     0.266 C 
HETATM   21  O1  UNL     1      48.674   1.020  -6.727  1.00  0.00    -0.269 OA
ATOM     22  H2  UNL     1      48.862   3.780  -5.102  1.00  0.00     0.190 HD
BRANCH  20  23
HETATM   23  C4  UNL     1      48.132   3.116  -7.647  1.00  0.00     0.277 C 
BRANCH  23  24
HETATM   24  C3  UNL     1      48.817   4.433  -7.641  1.00  0.00     0.053 C 
BRANCH  24  25
HETATM   25  C2  UNL     1      50.111   4.454  -8.362  1.00  0.00     0.076 C 
BRANCH  25  26
HETATM   26  S1  UNL     1      51.593   4.476  -7.383  1.00  0.00    -0.173 SA
HETATM   27  C1  UNL     1      52.301   2.893  -6.966  1.00  0.00     0.089 C 
ENDBRANCH  25  26
ENDBRANCH  24  25
ENDBRANCH  23  24
BRANCH  23  28
HETATM   28  N1  UNL     1      46.695   3.352  -7.496  1.00  0.00    -0.066 N 
ATOM     29  H13 UNL     1      46.475   3.946  -6.697  1.00  0.00     0.275 HD
ATOM     30  H12 UNL     1      46.316   3.957  -8.225  1.00  0.00     0.275 HD
ATOM     31  H11 UNL     1      46.229   2.446  -7.454  1.00  0.00     0.275 HD
ENDBRANCH  23  28
ENDBRANCH  20  23
ENDBRANCH  17  19
ENDBRANCH   1  16
BRANCH   1  32
HETATM   32  C8  UNL     1      49.844  -0.092  -2.631  1.00  0.00     0.254 C 
HETATM   33  O2  UNL     1      49.313  -0.297  -1.486  1.00  0.00    -0.270 OA
HETATM   34  N4  UNL     1      49.380  -0.820  -3.731  1.00  0.00    -0.339 N 
ATOM     35  H4  UNL     1      49.805  -0.658  -4.644  1.00  0.00     0.163 HD
BRANCH  34  36
HETATM   36  C9  UNL     1      48.319  -1.794  -3.615  1.00  0.00     0.243 C 
BRANCH  36  37
HETATM   37  C10 UNL     1      46.977  -1.145  -3.605  1.00  0.00     0.154 C 
HETATM   38  C11 UNL     1      46.344  -0.507  -4.760  1.00  0.00     0.093 C 
HETATM   39  O3  UNL     1      46.368  -1.157  -2.534  1.00  0.00    -0.296 OA
ENDBRANCH  36  37
BRANCH  36  40
HETATM   40  C12 UNL     1      48.339  -2.765  -4.735  1.00  0.00     0.261 C 
HETATM   41  N5  UNL     1      49.222  -2.559  -5.809  1.00  0.00    -0.060 NA
HETATM   42  O4  UNL     1      47.585  -3.765  -4.746  1.00  0.00    -0.274 OA
ENDBRANCH  36  40
ENDBRANCH  34  36
ENDBRANCH   1  32
TORSDOF 11
ENDMDL
