MODEL 1
REMARK VINA RESULT: -6.152962317      0.000      0.000
REMARK  16 active torsions:
REMARK  status: ('A' for Active; 'I' for Inactive)
REMARK    1  A    between atoms: O1_2  and  C2_3 
REMARK       I    between atoms: C2_3  and  N1_5 
REMARK    2  A    between atoms: N1_5  and  C3_6 
REMARK    3  A    between atoms: C3_6  and  C4_7 
REMARK    4  A    between atoms: C3_6  and  C11_14 
REMARK    5  A    between atoms: C4_7  and  C5_8 
REMARK       I    between atoms: C11_14  and  N2_16 
REMARK    6  A    between atoms: N2_16  and  C12_18 
REMARK    7  A    between atoms: C12_18  and  C14_20 
REMARK    8  A    between atoms: C14_20  and  O4_21 
REMARK    9  A    between atoms: C14_20  and  N3_23 
REMARK   10  A    between atoms: N3_23  and  C15_25 
REMARK   11  A    between atoms: C15_25  and  O5_26 
REMARK   12  A    between atoms: C15_25  and  C16_28 
REMARK   13  A    between atoms: C16_28  and  O6_29 
REMARK   14  A    between atoms: C16_28  and  C17_31 
REMARK       I    between atoms: C17_31  and  N4_33 
REMARK   15  A    between atoms: N4_33  and  C18_35 
REMARK   16  A    between atoms: N7_41  and  N8_42 
ROOT
HETATM    1  C14 UNL     1      49.997   2.384  -0.026  1.00  0.00     0.140 C 
ENDROOT
BRANCH   1   2
HETATM    2  C12 UNL     1      48.772   1.615  -0.083  1.00  0.00     0.155 C 
HETATM    3  C13 UNL     1      47.570   2.486   0.348  1.00  0.00     0.041 C 
BRANCH   2   4
HETATM    4  N2  UNL     1      48.511   1.291  -1.532  1.00  0.00    -0.347 N 
HETATM    5  C11 UNL     1      49.055   0.119  -2.051  1.00  0.00     0.254 C 
HETATM    6  O3  UNL     1      49.762  -0.648  -1.306  1.00  0.00    -0.270 OA
ATOM      7  H2  UNL     1      47.951   1.912  -2.115  1.00  0.00     0.163 HD
BRANCH   5   8
HETATM    8  C3  UNL     1      48.871  -0.349  -3.468  1.00  0.00     0.265 C 
BRANCH   8   9
HETATM    9  N1  UNL     1      49.327   0.599  -4.352  1.00  0.00    -0.375 NA
HETATM   10  C2  UNL     1      49.776   1.535  -5.226  1.00  0.00     0.435 C 
HETATM   11  O2  UNL     1      50.926   2.009  -5.318  1.00  0.00    -0.221 OA
BRANCH  10  12
HETATM   12  O1  UNL     1      48.845   2.063  -6.171  1.00  0.00    -0.298 OA
HETATM   13  C1  UNL     1      48.998   3.366  -6.650  1.00  0.00     0.216 C 
ENDBRANCH  10  12
ENDBRANCH   8   9
BRANCH   8  14
HETATM   14  C4  UNL     1      47.358  -0.608  -3.571  1.00  0.00     0.088 C 
BRANCH  14  15
HETATM   15  C5  UNL     1      47.051  -1.656  -4.563  1.00  0.00    -0.055 A 
HETATM   16  C6  UNL     1      46.158  -1.516  -5.603  1.00  0.00     0.007 A 
HETATM   17  C7  UNL     1      45.886  -2.526  -6.501  1.00  0.00     0.001 A 
HETATM   18  C8  UNL     1      46.564  -3.722  -6.316  1.00  0.00     0.000 A 
HETATM   19  C9  UNL     1      47.466  -3.907  -5.293  1.00  0.00     0.001 A 
HETATM   20  C10 UNL     1      47.716  -2.877  -4.410  1.00  0.00     0.007 A 
ENDBRANCH  14  15
ENDBRANCH   8  14
ENDBRANCH   5   8
ENDBRANCH   2   4
ENDBRANCH   1   2
BRANCH   1  21
HETATM   21  O4  UNL     1      49.793   3.690  -0.072  1.00  0.00    -0.348 OA
ATOM     22  H4  UNL     1      48.903   3.920  -0.312  1.00  0.00     0.219 HD
ENDBRANCH   1  21
BRANCH   1  23
HETATM   23  N3  UNL     1      51.323   2.035   0.072  1.00  0.00    -0.321 N 
ATOM     24  H3  UNL     1      51.700   2.220   1.001  1.00  0.00     0.169 HD
BRANCH  23  25
HETATM   25  C15 UNL     1      52.276   1.493  -0.780  1.00  0.00     0.156 C 
BRANCH  25  26
HETATM   26  O5  UNL     1      52.736   0.285  -0.359  1.00  0.00    -0.347 OA
ATOM     27  H5  UNL     1      52.050  -0.269  -0.005  1.00  0.00     0.219 HD
ENDBRANCH  25  26
BRANCH  25  28
HETATM   28  C16 UNL     1      52.924   1.887  -2.018  1.00  0.00     0.285 C 
BRANCH  28  29
HETATM   29  O6  UNL     1      52.232   2.719  -2.849  1.00  0.00    -0.378 OA
ATOM     30  H6  UNL     1      52.422   2.663  -3.777  1.00  0.00     0.211 HD
ENDBRANCH  28  29
BRANCH  28  31
HETATM   31  C17 UNL     1      53.361   0.657  -2.813  1.00  0.00     0.272 C 
HETATM   32  O7  UNL     1      54.584   0.337  -2.778  1.00  0.00    -0.269 OA
HETATM   33  N4  UNL     1      52.457  -0.066  -3.540  1.00  0.00    -0.154 N 
ATOM     34  H4  UNL     1      51.913   0.477  -4.210  1.00  0.00     0.187 HD
BRANCH  33  35
HETATM   35  C18 UNL     1      52.189  -1.297  -3.514  1.00  0.00     0.722 A 
HETATM   36  N5  UNL     1      52.426  -2.049  -2.385  1.00  0.00    -0.183 N 
HETATM   37  C19 UNL     1      52.044  -3.278  -2.654  1.00  0.00     0.217 A 
ATOM     38  H5  UNL     1      52.823  -1.715  -1.506  1.00  0.00     0.185 HD
HETATM   39  N6  UNL     1      51.585  -3.312  -3.894  1.00  0.00    -0.260 N 
HETATM   40  N7  UNL     1      51.674  -2.095  -4.426  1.00  0.00    -0.026 N 
ATOM     41  H6  UNL     1      51.221  -4.139  -4.367  1.00  0.00     0.190 HD
BRANCH  40  42
HETATM   42  N8  UNL     1      51.259  -1.858  -5.746  1.00  0.00    -0.309 N 
ATOM     43  H82 UNL     1      50.602  -1.107  -5.958  1.00  0.00     0.179 HD
ATOM     44  H81 UNL     1      51.492  -2.323  -6.623  1.00  0.00     0.179 HD
ENDBRANCH  40  42
ENDBRANCH  33  35
ENDBRANCH  28  31
ENDBRANCH  25  28
ENDBRANCH  23  25
ENDBRANCH   1  23
TORSDOF 16
ENDMDL
MODEL 2
REMARK VINA RESULT: -5.986590240      3.372      6.187
REMARK  16 active torsions:
REMARK  status: ('A' for Active; 'I' for Inactive)
REMARK    1  A    between atoms: O1_2  and  C2_3 
REMARK       I    between atoms: C2_3  and  N1_5 
REMARK    2  A    between atoms: N1_5  and  C3_6 
REMARK    3  A    between atoms: C3_6  and  C4_7 
REMARK    4  A    between atoms: C3_6  and  C11_14 
REMARK    5  A    between atoms: C4_7  and  C5_8 
REMARK       I    between atoms: C11_14  and  N2_16 
REMARK    6  A    between atoms: N2_16  and  C12_18 
REMARK    7  A    between atoms: C12_18  and  C14_20 
REMARK    8  A    between atoms: C14_20  and  O4_21 
REMARK    9  A    between atoms: C14_20  and  N3_23 
REMARK   10  A    between atoms: N3_23  and  C15_25 
REMARK   11  A    between atoms: C15_25  and  O5_26 
REMARK   12  A    between atoms: C15_25  and  C16_28 
REMARK   13  A    between atoms: C16_28  and  O6_29 
REMARK   14  A    between atoms: C16_28  and  C17_31 
REMARK       I    between atoms: C17_31  and  N4_33 
REMARK   15  A    between atoms: N4_33  and  C18_35 
REMARK   16  A    between atoms: N7_41  and  N8_42 
ROOT
HETATM    1  C14 UNL     1      53.330  -1.173  -4.438  1.00  0.00     0.140 C 
ENDROOT
BRANCH   1   2
HETATM    2  C12 UNL     1      52.830  -0.819  -3.127  1.00  0.00     0.155 C 
HETATM    3  C13 UNL     1      53.445   0.519  -2.660  1.00  0.00     0.041 C 
BRANCH   2   4
HETATM    4  N2  UNL     1      51.356  -0.535  -3.270  1.00  0.00    -0.347 N 
HETATM    5  C11 UNL     1      50.479  -1.145  -2.377  1.00  0.00     0.254 C 
HETATM    6  O3  UNL     1      50.929  -1.931  -1.469  1.00  0.00    -0.270 OA
ATOM      7  H2  UNL     1      51.011   0.088  -4.000  1.00  0.00     0.163 HD
BRANCH   5   8
HETATM    8  C3  UNL     1      48.988  -0.950  -2.381  1.00  0.00     0.265 C 
BRANCH   8   9
HETATM    9  N1  UNL     1      48.402  -1.732  -3.345  1.00  0.00    -0.375 NA
HETATM   10  C2  UNL     1      47.821  -2.504  -4.298  1.00  0.00     0.435 C 
HETATM   11  O2  UNL     1      48.219  -3.596  -4.748  1.00  0.00    -0.221 OA
BRANCH  10  12
HETATM   12  O1  UNL     1      46.601  -2.039  -4.877  1.00  0.00    -0.298 OA
HETATM   13  C1  UNL     1      46.413  -0.674  -5.109  1.00  0.00     0.216 C 
ENDBRANCH  10  12
ENDBRANCH   8   9
BRANCH   8  14
HETATM   14  C4  UNL     1      48.822   0.560  -2.629  1.00  0.00     0.088 C 
BRANCH  14  15
HETATM   15  C5  UNL     1      48.633   1.301  -1.367  1.00  0.00    -0.055 A 
HETATM   16  C6  UNL     1      49.656   1.772  -0.573  1.00  0.00     0.007 A 
HETATM   17  C7  UNL     1      49.438   2.448   0.609  1.00  0.00     0.001 A 
HETATM   18  C8  UNL     1      48.116   2.645   0.979  1.00  0.00     0.000 A 
HETATM   19  C9  UNL     1      47.063   2.195   0.216  1.00  0.00     0.001 A 
HETATM   20  C10 UNL     1      47.312   1.521  -0.961  1.00  0.00     0.007 A 
ENDBRANCH  14  15
ENDBRANCH   8  14
ENDBRANCH   5   8
ENDBRANCH   2   4
ENDBRANCH   1   2
BRANCH   1  21
HETATM   21  O4  UNL     1      54.249  -0.334  -4.887  1.00  0.00    -0.348 OA
ATOM     22  H4  UNL     1      54.981  -0.772  -5.305  1.00  0.00     0.219 HD
ENDBRANCH   1  21
BRANCH   1  23
HETATM   23  N3  UNL     1      53.051  -2.202  -5.306  1.00  0.00    -0.321 N 
ATOM     24  H3  UNL     1      53.470  -2.054  -6.224  1.00  0.00     0.169 HD
BRANCH  23  25
HETATM   25  C15 UNL     1      52.341  -3.393  -5.243  1.00  0.00     0.156 C 
BRANCH  25  26
HETATM   26  O5  UNL     1      52.221  -4.002  -6.452  1.00  0.00    -0.347 OA
ATOM     27  H5  UNL     1      51.400  -4.470  -6.550  1.00  0.00     0.219 HD
ENDBRANCH  25  26
BRANCH  25  28
HETATM   28  C16 UNL     1      51.676  -4.167  -4.209  1.00  0.00     0.285 C 
BRANCH  28  29
HETATM   29  O6  UNL     1      52.288  -4.239  -2.992  1.00  0.00    -0.378 OA
ATOM     30  H6  UNL     1      52.403  -5.102  -2.613  1.00  0.00     0.211 HD
ENDBRANCH  28  29
BRANCH  28  31
HETATM   31  C17 UNL     1      51.393  -5.587  -4.697  1.00  0.00     0.272 C 
HETATM   32  O7  UNL     1      52.336  -6.427  -4.645  1.00  0.00    -0.269 OA
HETATM   33  N4  UNL     1      50.159  -5.931  -5.176  1.00  0.00    -0.154 N 
ATOM     34  H4  UNL     1      49.812  -5.340  -5.931  1.00  0.00     0.187 HD
BRANCH  33  35
HETATM   35  C18 UNL     1      49.383  -6.862  -4.833  1.00  0.00     0.722 A 
HETATM   36  N5  UNL     1      49.850  -7.949  -4.127  1.00  0.00    -0.183 N 
HETATM   37  C19 UNL     1      48.821  -8.738  -3.910  1.00  0.00     0.217 A 
ATOM     38  H5  UNL     1      50.813  -8.111  -3.830  1.00  0.00     0.185 HD
HETATM   39  N6  UNL     1      47.747  -8.185  -4.449  1.00  0.00    -0.260 N 
HETATM   40  N7  UNL     1      48.090  -7.031  -5.019  1.00  0.00    -0.026 N 
ATOM     41  H6  UNL     1      46.807  -8.579  -4.432  1.00  0.00     0.190 HD
BRANCH  40  42
HETATM   42  N8  UNL     1      47.132  -6.243  -5.675  1.00  0.00    -0.309 N 
ATOM     43  H82 UNL     1      46.910  -6.404  -6.657  1.00  0.00     0.179 HD
ATOM     44  H81 UNL     1      46.559  -5.464  -5.350  1.00  0.00     0.179 HD
ENDBRANCH  40  42
ENDBRANCH  33  35
ENDBRANCH  28  31
ENDBRANCH  25  28
ENDBRANCH  23  25
ENDBRANCH   1  23
TORSDOF 16
ENDMDL
MODEL 3
REMARK VINA RESULT: -5.924556081      3.333      6.770
REMARK  16 active torsions:
REMARK  status: ('A' for Active; 'I' for Inactive)
REMARK    1  A    between atoms: O1_2  and  C2_3 
REMARK       I    between atoms: C2_3  and  N1_5 
REMARK    2  A    between atoms: N1_5  and  C3_6 
REMARK    3  A    between atoms: C3_6  and  C4_7 
REMARK    4  A    between atoms: C3_6  and  C11_14 
REMARK    5  A    between atoms: C4_7  and  C5_8 
REMARK       I    between atoms: C11_14  and  N2_16 
REMARK    6  A    between atoms: N2_16  and  C12_18 
REMARK    7  A    between atoms: C12_18  and  C14_20 
REMARK    8  A    between atoms: C14_20  and  O4_21 
REMARK    9  A    between atoms: C14_20  and  N3_23 
REMARK   10  A    between atoms: N3_23  and  C15_25 
REMARK   11  A    between atoms: C15_25  and  O5_26 
REMARK   12  A    between atoms: C15_25  and  C16_28 
REMARK   13  A    between atoms: C16_28  and  O6_29 
REMARK   14  A    between atoms: C16_28  and  C17_31 
REMARK       I    between atoms: C17_31  and  N4_33 
REMARK   15  A    between atoms: N4_33  and  C18_35 
REMARK   16  A    between atoms: N7_41  and  N8_42 
ROOT
HETATM    1  C14 UNL     1      50.199  -1.583  -2.417  1.00  0.00     0.140 C 
ENDROOT
BRANCH   1   2
HETATM    2  C12 UNL     1      51.423  -1.757  -3.169  1.00  0.00     0.155 C 
HETATM    3  C13 UNL     1      52.596  -1.043  -2.458  1.00  0.00     0.041 C 
BRANCH   2   4
HETATM    4  N2  UNL     1      51.778  -3.221  -3.118  1.00  0.00    -0.347 N 
HETATM    5  C11 UNL     1      51.264  -4.057  -4.107  1.00  0.00     0.254 C 
HETATM    6  O3  UNL     1      50.505  -3.578  -5.023  1.00  0.00    -0.270 OA
ATOM      7  H2  UNL     1      52.378  -3.590  -2.381  1.00  0.00     0.163 HD
BRANCH   5   8
HETATM    8  C3  UNL     1      51.539  -5.532  -4.202  1.00  0.00     0.265 C 
BRANCH   8   9
HETATM    9  N1  UNL     1      52.890  -5.773  -4.182  1.00  0.00    -0.375 NA
HETATM   10  C2  UNL     1      54.227  -6.012  -4.162  1.00  0.00     0.435 C 
HETATM   11  O2  UNL     1      55.082  -5.655  -4.995  1.00  0.00    -0.221 OA
BRANCH  10  12
HETATM   12  O1  UNL     1      54.750  -6.760  -3.064  1.00  0.00    -0.298 OA
HETATM   13  C1  UNL     1      56.098  -7.127  -3.048  1.00  0.00     0.216 C 
ENDBRANCH  10  12
ENDBRANCH   8   9
BRANCH   8  14
HETATM   14  C4  UNL     1      50.860  -5.943  -5.520  1.00  0.00     0.088 C 
BRANCH  14  15
HETATM   15  C5  UNL     1      49.661  -6.768  -5.281  1.00  0.00    -0.055 A 
HETATM   16  C6  UNL     1      48.458  -6.612  -5.937  1.00  0.00     0.007 A 
HETATM   17  C7  UNL     1      47.353  -7.394  -5.673  1.00  0.00     0.001 A 
HETATM   18  C8  UNL     1      47.500  -8.371  -4.700  1.00  0.00     0.000 A 
HETATM   19  C9  UNL     1      48.682  -8.565  -4.023  1.00  0.00     0.001 A 
HETATM   20  C10 UNL     1      49.770  -7.766  -4.307  1.00  0.00     0.007 A 
ENDBRANCH  14  15
ENDBRANCH   8  14
ENDBRANCH   5   8
ENDBRANCH   2   4
ENDBRANCH   1   2
BRANCH   1  21
HETATM   21  O4  UNL     1      50.388  -1.007  -1.242  1.00  0.00    -0.348 OA
ATOM     22  H4  UNL     1      49.671  -1.152  -0.636  1.00  0.00     0.219 HD
ENDBRANCH   1  21
BRANCH   1  23
HETATM   23  N3  UNL     1      48.884  -1.888  -2.678  1.00  0.00    -0.321 N 
ATOM     24  H3  UNL     1      48.777  -2.827  -3.061  1.00  0.00     0.169 HD
BRANCH  23  25
HETATM   25  C15 UNL     1      47.666  -1.235  -2.549  1.00  0.00     0.156 C 
BRANCH  25  26
HETATM   26  O5  UNL     1      46.745  -1.963  -1.864  1.00  0.00    -0.347 OA
ATOM     27  H5  UNL     1      45.861  -1.842  -2.190  1.00  0.00     0.219 HD
ENDBRANCH  25  26
BRANCH  25  28
HETATM   28  C16 UNL     1      47.106   0.039  -2.967  1.00  0.00     0.285 C 
BRANCH  28  29
HETATM   29  O6  UNL     1      47.636   0.617  -4.083  1.00  0.00    -0.378 OA
ATOM     30  H6  UNL     1      47.689   0.083  -4.866  1.00  0.00     0.211 HD
ENDBRANCH  28  29
BRANCH  28  31
HETATM   31  C17 UNL     1      47.155   1.051  -1.823  1.00  0.00     0.272 C 
HETATM   32  O7  UNL     1      46.213   1.034  -0.980  1.00  0.00    -0.269 OA
HETATM   33  N4  UNL     1      48.184   1.946  -1.722  1.00  0.00    -0.154 N 
ATOM     34  H4  UNL     1      48.344   2.511  -2.555  1.00  0.00     0.187 HD
BRANCH  33  35
HETATM   35  C18 UNL     1      48.966   2.183  -0.763  1.00  0.00     0.722 A 
HETATM   36  N5  UNL     1      50.329   2.038  -0.909  1.00  0.00    -0.183 N 
HETATM   37  C19 UNL     1      50.875   2.360   0.243  1.00  0.00     0.217 A 
ATOM     38  H5  UNL     1      50.820   1.738  -1.751  1.00  0.00     0.185 HD
HETATM   39  N6  UNL     1      49.911   2.695   1.085  1.00  0.00    -0.260 N 
HETATM   40  N7  UNL     1      48.735   2.585   0.469  1.00  0.00    -0.026 N 
ATOM     41  H6  UNL     1      50.047   2.989   2.052  1.00  0.00     0.190 HD
BRANCH  40  42
HETATM   42  N8  UNL     1      47.542   2.875   1.147  1.00  0.00    -0.309 N 
ATOM     43  H82 UNL     1      46.727   3.223   0.642  1.00  0.00     0.179 HD
ATOM     44  H81 UNL     1      47.290   2.811   2.134  1.00  0.00     0.179 HD
ENDBRANCH  40  42
ENDBRANCH  33  35
ENDBRANCH  28  31
ENDBRANCH  25  28
ENDBRANCH  23  25
ENDBRANCH   1  23
TORSDOF 16
ENDMDL
MODEL 4
REMARK VINA RESULT: -5.924336628      2.622      5.483
REMARK  16 active torsions:
REMARK  status: ('A' for Active; 'I' for Inactive)
REMARK    1  A    between atoms: O1_2  and  C2_3 
REMARK       I    between atoms: C2_3  and  N1_5 
REMARK    2  A    between atoms: N1_5  and  C3_6 
REMARK    3  A    between atoms: C3_6  and  C4_7 
REMARK    4  A    between atoms: C3_6  and  C11_14 
REMARK    5  A    between atoms: C4_7  and  C5_8 
REMARK       I    between atoms: C11_14  and  N2_16 
REMARK    6  A    between atoms: N2_16  and  C12_18 
REMARK    7  A    between atoms: C12_18  and  C14_20 
REMARK    8  A    between atoms: C14_20  and  O4_21 
REMARK    9  A    between atoms: C14_20  and  N3_23 
REMARK   10  A    between atoms: N3_23  and  C15_25 
REMARK   11  A    between atoms: C15_25  and  O5_26 
REMARK   12  A    between atoms: C15_25  and  C16_28 
REMARK   13  A    between atoms: C16_28  and  O6_29 
REMARK   14  A    between atoms: C16_28  and  C17_31 
REMARK       I    between atoms: C17_31  and  N4_33 
REMARK   15  A    between atoms: N4_33  and  C18_35 
REMARK   16  A    between atoms: N7_41  and  N8_42 
ROOT
HETATM    1  C14 UNL     1      48.201   0.518  -5.635  1.00  0.00     0.140 C 
ENDROOT
BRANCH   1   2
HETATM    2  C12 UNL     1      48.954  -0.322  -6.542  1.00  0.00     0.155 C 
HETATM    3  C13 UNL     1      50.106   0.481  -7.187  1.00  0.00     0.041 C 
BRANCH   2   4
HETATM    4  N2  UNL     1      49.639  -1.378  -5.712  1.00  0.00    -0.347 N 
HETATM    5  C11 UNL     1      48.988  -2.596  -5.530  1.00  0.00     0.254 C 
HETATM    6  O3  UNL     1      47.835  -2.794  -6.055  1.00  0.00    -0.270 OA
ATOM      7  H2  UNL     1      50.553  -1.206  -5.296  1.00  0.00     0.163 HD
BRANCH   5   8
HETATM    8  C3  UNL     1      49.546  -3.750  -4.745  1.00  0.00     0.265 C 
BRANCH   8   9
HETATM    9  N1  UNL     1      50.710  -3.386  -4.115  1.00  0.00    -0.375 NA
HETATM   10  C2  UNL     1      51.862  -3.025  -3.492  1.00  0.00     0.435 C 
HETATM   11  O2  UNL     1      52.317  -3.454  -2.414  1.00  0.00    -0.221 OA
BRANCH  10  12
HETATM   12  O1  UNL     1      52.676  -2.036  -4.123  1.00  0.00    -0.298 OA
HETATM   13  C1  UNL     1      53.158  -2.250  -5.417  1.00  0.00     0.216 C 
ENDBRANCH  10  12
ENDBRANCH   8   9
BRANCH   8  14
HETATM   14  C4  UNL     1      49.739  -4.849  -5.804  1.00  0.00     0.088 C 
BRANCH  14  15
HETATM   15  C5  UNL     1      49.085  -6.110  -5.406  1.00  0.00    -0.055 A 
HETATM   16  C6  UNL     1      47.803  -6.475  -5.759  1.00  0.00     0.007 A 
HETATM   17  C7  UNL     1      47.220  -7.656  -5.354  1.00  0.00     0.001 A 
HETATM   18  C8  UNL     1      47.992  -8.489  -4.557  1.00  0.00     0.000 A 
HETATM   19  C9  UNL     1      49.276  -8.168  -4.182  1.00  0.00     0.001 A 
HETATM   20  C10 UNL     1      49.832  -6.978  -4.602  1.00  0.00     0.007 A 
ENDBRANCH  14  15
ENDBRANCH   8  14
ENDBRANCH   5   8
ENDBRANCH   2   4
ENDBRANCH   1   2
BRANCH   1  21
HETATM   21  O4  UNL     1      48.589   1.782  -5.655  1.00  0.00    -0.348 OA
ATOM     22  H4  UNL     1      49.502   1.895  -5.421  1.00  0.00     0.219 HD
ENDBRANCH   1  21
BRANCH   1  23
HETATM   23  N3  UNL     1      47.164   0.272  -4.767  1.00  0.00    -0.321 N 
ATOM     24  H3  UNL     1      46.255   0.406  -5.208  1.00  0.00     0.169 HD
BRANCH  23  25
HETATM   25  C15 UNL     1      47.048  -0.113  -3.438  1.00  0.00     0.156 C 
BRANCH  25  26
HETATM   26  O5  UNL     1      46.368   0.791  -2.683  1.00  0.00    -0.347 OA
ATOM     27  H5  UNL     1      46.556   1.690  -2.926  1.00  0.00     0.219 HD
ENDBRANCH  25  26
BRANCH  25  28
HETATM   28  C16 UNL     1      47.475  -1.241  -2.629  1.00  0.00     0.285 C 
BRANCH  28  29
HETATM   29  O6  UNL     1      46.619  -1.671  -1.657  1.00  0.00    -0.378 OA
ATOM     30  H6  UNL     1      46.953  -1.706  -0.769  1.00  0.00     0.211 HD
ENDBRANCH  28  29
BRANCH  28  31
HETATM   31  C17 UNL     1      48.836  -0.965  -1.993  1.00  0.00     0.272 C 
HETATM   32  O7  UNL     1      49.390  -1.905  -1.354  1.00  0.00    -0.269 OA
HETATM   33  N4  UNL     1      49.430   0.261  -2.111  1.00  0.00    -0.154 N 
ATOM     34  H4  UNL     1      48.855   1.047  -1.808  1.00  0.00     0.187 HD
BRANCH  33  35
HETATM   35  C18 UNL     1      50.574   0.574  -2.535  1.00  0.00     0.722 A 
HETATM   36  N5  UNL     1      50.722   1.427  -3.607  1.00  0.00    -0.183 N 
HETATM   37  C19 UNL     1      52.014   1.570  -3.809  1.00  0.00     0.217 A 
ATOM     38  H5  UNL     1      49.972   1.864  -4.143  1.00  0.00     0.185 HD
HETATM   39  N6  UNL     1      52.662   0.846  -2.911  1.00  0.00    -0.260 N 
HETATM   40  N7  UNL     1      51.778   0.231  -2.126  1.00  0.00    -0.026 N 
ATOM     41  H6  UNL     1      53.676   0.770  -2.833  1.00  0.00     0.190 HD
BRANCH  40  42
HETATM   42  N8  UNL     1      52.205  -0.613  -1.090  1.00  0.00    -0.309 N 
ATOM     43  H82 UNL     1      52.461  -0.231  -0.180  1.00  0.00     0.179 HD
ATOM     44  H81 UNL     1      52.333  -1.624  -1.049  1.00  0.00     0.179 HD
ENDBRANCH  40  42
ENDBRANCH  33  35
ENDBRANCH  28  31
ENDBRANCH  25  28
ENDBRANCH  23  25
ENDBRANCH   1  23
TORSDOF 16
ENDMDL
MODEL 5
REMARK VINA RESULT: -5.905479781      2.587      6.267
REMARK  16 active torsions:
REMARK  status: ('A' for Active; 'I' for Inactive)
REMARK    1  A    between atoms: O1_2  and  C2_3 
REMARK       I    between atoms: C2_3  and  N1_5 
REMARK    2  A    between atoms: N1_5  and  C3_6 
REMARK    3  A    between atoms: C3_6  and  C4_7 
REMARK    4  A    between atoms: C3_6  and  C11_14 
REMARK    5  A    between atoms: C4_7  and  C5_8 
REMARK       I    between atoms: C11_14  and  N2_16 
REMARK    6  A    between atoms: N2_16  and  C12_18 
REMARK    7  A    between atoms: C12_18  and  C14_20 
REMARK    8  A    between atoms: C14_20  and  O4_21 
REMARK    9  A    between atoms: C14_20  and  N3_23 
REMARK   10  A    between atoms: N3_23  and  C15_25 
REMARK   11  A    between atoms: C15_25  and  O5_26 
REMARK   12  A    between atoms: C15_25  and  C16_28 
REMARK   13  A    between atoms: C16_28  and  O6_29 
REMARK   14  A    between atoms: C16_28  and  C17_31 
REMARK       I    between atoms: C17_31  and  N4_33 
REMARK   15  A    between atoms: N4_33  and  C18_35 
REMARK   16  A    between atoms: N7_41  and  N8_42 
ROOT
HETATM    1  C14 UNL     1      46.522  -0.324  -5.563  1.00  0.00     0.140 C 
ENDROOT
BRANCH   1   2
HETATM    2  C12 UNL     1      47.802   0.239  -5.935  1.00  0.00     0.155 C 
HETATM    3  C13 UNL     1      47.602   1.481  -6.832  1.00  0.00     0.041 C 
BRANCH   2   4
HETATM    4  N2  UNL     1      48.443   0.771  -4.679  1.00  0.00    -0.347 N 
HETATM    5  C11 UNL     1      49.664   0.232  -4.284  1.00  0.00     0.254 C 
HETATM    6  O3  UNL     1      50.212  -0.696  -4.979  1.00  0.00    -0.270 OA
ATOM      7  H2  UNL     1      47.994   1.506  -4.133  1.00  0.00     0.163 HD
BRANCH   5   8
HETATM    8  C3  UNL     1      50.433   0.667  -3.068  1.00  0.00     0.265 C 
BRANCH   8   9
HETATM    9  N1  UNL     1      51.756   0.317  -3.182  1.00  0.00    -0.375 NA
HETATM   10  C2  UNL     1      53.064  -0.030  -3.296  1.00  0.00     0.435 C 
HETATM   11  O2  UNL     1      54.048   0.500  -2.744  1.00  0.00    -0.221 OA
BRANCH  10  12
HETATM   12  O1  UNL     1      53.386  -1.134  -4.142  1.00  0.00    -0.298 OA
HETATM   13  C1  UNL     1      53.788  -0.909  -5.461  1.00  0.00     0.216 C 
ENDBRANCH  10  12
ENDBRANCH   8   9
BRANCH   8  14
HETATM   14  C4  UNL     1      49.708  -0.040  -1.909  1.00  0.00     0.088 C 
BRANCH  14  15
HETATM   15  C5  UNL     1      49.003   0.921  -1.040  1.00  0.00    -0.055 A 
HETATM   16  C6  UNL     1      49.617   1.763  -0.138  1.00  0.00     0.007 A 
HETATM   17  C7  UNL     1      48.920   2.637   0.668  1.00  0.00     0.001 A 
HETATM   18  C8  UNL     1      47.540   2.641   0.534  1.00  0.00     0.000 A 
HETATM   19  C9  UNL     1      46.883   1.821  -0.355  1.00  0.00     0.001 A 
HETATM   20  C10 UNL     1      47.608   0.956  -1.147  1.00  0.00     0.007 A 
ENDBRANCH  14  15
ENDBRANCH   8  14
ENDBRANCH   5   8
ENDBRANCH   2   4
ENDBRANCH   1   2
BRANCH   1  21
HETATM   21  O4  UNL     1      45.729   0.544  -4.958  1.00  0.00    -0.348 OA
ATOM     22  H4  UNL     1      45.908   1.445  -5.202  1.00  0.00     0.219 HD
ENDBRANCH   1  21
BRANCH   1  23
HETATM   23  N3  UNL     1      45.963  -1.571  -5.715  1.00  0.00    -0.321 N 
ATOM     24  H3  UNL     1      45.080  -1.658  -5.212  1.00  0.00     0.169 HD
BRANCH  23  25
HETATM   25  C15 UNL     1      46.301  -2.740  -6.383  1.00  0.00     0.156 C 
BRANCH  25  26
HETATM   26  O5  UNL     1      45.572  -2.932  -7.515  1.00  0.00    -0.347 OA
ATOM     27  H5  UNL     1      46.104  -3.193  -8.257  1.00  0.00     0.219 HD
ENDBRANCH  25  26
BRANCH  25  28
HETATM   28  C16 UNL     1      47.238  -3.831  -6.185  1.00  0.00     0.285 C 
BRANCH  28  29
HETATM   29  O6  UNL     1      46.717  -5.053  -5.874  1.00  0.00    -0.378 OA
ATOM     30  H6  UNL     1      47.213  -5.817  -6.139  1.00  0.00     0.211 HD
ENDBRANCH  28  29
BRANCH  28  31
HETATM   31  C17 UNL     1      48.280  -3.462  -5.130  1.00  0.00     0.272 C 
HETATM   32  O7  UNL     1      47.865  -3.026  -4.018  1.00  0.00    -0.269 OA
HETATM   33  N4  UNL     1      49.617  -3.596  -5.387  1.00  0.00    -0.154 N 
ATOM     34  H4  UNL     1      49.942  -3.120  -6.228  1.00  0.00     0.187 HD
BRANCH  33  35
HETATM   35  C18 UNL     1      50.510  -4.215  -4.750  1.00  0.00     0.722 A 
HETATM   36  N5  UNL     1      51.517  -3.533  -4.101  1.00  0.00    -0.183 N 
HETATM   37  C19 UNL     1      52.283  -4.435  -3.527  1.00  0.00     0.217 A 
ATOM     38  H5  UNL     1      51.643  -2.521  -4.072  1.00  0.00     0.185 HD
HETATM   39  N6  UNL     1      51.793  -5.634  -3.794  1.00  0.00    -0.260 N 
HETATM   40  N7  UNL     1      50.702  -5.502  -4.547  1.00  0.00    -0.026 N 
ATOM     41  H6  UNL     1      52.187  -6.519  -3.474  1.00  0.00     0.190 HD
BRANCH  40  42
HETATM   42  N8  UNL     1      49.990  -6.630  -4.981  1.00  0.00    -0.309 N 
ATOM     43  H82 UNL     1      49.223  -7.008  -4.425  1.00  0.00     0.179 HD
ATOM     44  H81 UNL     1      50.088  -7.214  -5.812  1.00  0.00     0.179 HD
ENDBRANCH  40  42
ENDBRANCH  33  35
ENDBRANCH  28  31
ENDBRANCH  25  28
ENDBRANCH  23  25
ENDBRANCH   1  23
TORSDOF 16
ENDMDL
