MODEL 1
REMARK VINA RESULT: -6.357409635      0.000      0.000
REMARK  13 active torsions:
REMARK  status: ('A' for Active; 'I' for Inactive)
REMARK    1  A    between atoms: C2_2  and  C3_4 
REMARK    2  A    between atoms: C3_4  and  N1_5 
REMARK    3  A    between atoms: C3_4  and  C10_23 
REMARK    4  A    between atoms: N1_5  and  C4_7 
REMARK    5  A    between atoms: C4_7  and  S1_8 
REMARK    6  A    between atoms: C4_7  and  C5_14 
REMARK    7  A    between atoms: S1_8  and  N2_9 
REMARK    8  A    between atoms: N2_9  and  N3_10 
REMARK       I    between atoms: C10_23  and  N5_25 
REMARK    9  A    between atoms: N5_25  and  C11_27 
REMARK   10  A    between atoms: C11_27  and  C12_28 
REMARK   11  A    between atoms: C11_27  and  C15_33 
REMARK   12  A    between atoms: C12_28  and  C13_29 
REMARK   13  A    between atoms: C13_29  and  C14_30 
ROOT
HETATM    1  N1  UNL     1      49.264  -2.650  -3.804  1.00  0.00    -0.366 N 
ATOM      2  H1  UNL     1      49.025  -3.309  -3.063  1.00  0.00     0.161 HD
ENDROOT
BRANCH   1   3
HETATM    3  C3  UNL     1      48.770  -1.305  -3.644  1.00  0.00     0.244 C 
BRANCH   3   4
HETATM    4  C2  UNL     1      47.276  -1.295  -3.646  1.00  0.00     0.154 C 
HETATM    5  C1  UNL     1      46.447  -1.304  -4.866  1.00  0.00     0.093 C 
HETATM    6  O1  UNL     1      46.715  -1.278  -2.553  1.00  0.00    -0.296 OA
ENDBRANCH   3   4
BRANCH   3   7
HETATM    7  C10 UNL     1      49.345  -0.742  -2.405  1.00  0.00     0.248 C 
HETATM    8  O3  UNL     1      49.668  -1.523  -1.478  1.00  0.00    -0.271 OA
HETATM    9  N5  UNL     1      49.548   0.642  -2.224  1.00  0.00    -0.344 N 
ATOM     10  H5  UNL     1      49.294   1.290  -2.971  1.00  0.00     0.163 HD
BRANCH   9  11
HETATM   11  C11 UNL     1      50.113   1.158  -0.989  1.00  0.00     0.186 C 
BRANCH  11  12
HETATM   12  C12 UNL     1      49.497   2.458  -0.580  1.00  0.00     0.046 C 
BRANCH  12  13
HETATM   13  C13 UNL     1      48.697   2.377   0.678  1.00  0.00     0.116 C 
BRANCH  13  14
HETATM   14  C14 UNL     1      47.261   2.278   0.331  1.00  0.00     0.172 C 
HETATM   15  O4  UNL     1      46.384   2.644   1.151  1.00  0.00    -0.648 OA
HETATM   16  O5  UNL     1      46.908   1.775  -0.909  1.00  0.00    -0.648 OA
ENDBRANCH  13  14
ENDBRANCH  12  13
ENDBRANCH  11  12
BRANCH  11  17
HETATM   17  C15 UNL     1      51.581   1.358  -1.108  1.00  0.00     0.196 C 
HETATM   18  O6  UNL     1      52.200   1.320  -2.202  1.00  0.00    -0.646 OA
HETATM   19  O7  UNL     1      52.328   1.599   0.035  1.00  0.00    -0.646 OA
ENDBRANCH  11  17
ENDBRANCH   9  11
ENDBRANCH   3   7
ENDBRANCH   1   3
BRANCH   1  20
HETATM   20  C4  UNL     1      50.040  -3.162  -4.867  1.00  0.00     0.084 C 
BRANCH  20  21
HETATM   21  S1  UNL     1      49.470  -3.629  -6.290  1.00  0.00     0.007 SA
BRANCH  21  22
HETATM   22  N2  UNL     1      48.022  -4.618  -6.475  1.00  0.00    -0.096 NA
HETATM   23  S2  UNL     1      48.398  -6.168  -7.160  1.00  0.00     0.043 SA
BRANCH  22  24
HETATM   24  N3  UNL     1      47.356  -4.774  -5.247  1.00  0.00    -0.343 NA
ATOM     25  H32 UNL     1      47.668  -4.066  -4.581  1.00  0.00     0.172 HD
ATOM     26  H31 UNL     1      46.343  -4.746  -5.373  1.00  0.00     0.172 HD
ENDBRANCH  22  24
ENDBRANCH  21  22
ENDBRANCH  20  21
BRANCH  20  27
HETATM   27  C5  UNL     1      51.545  -3.224  -4.659  1.00  0.00     0.199 C 
HETATM   28  S3  UNL     1      52.269  -4.299  -5.927  1.00  0.00    -0.117 SA
HETATM   29  C6  UNL     1      52.510  -5.801  -4.896  1.00  0.00     0.075 C 
HETATM   30  C7  UNL     1      51.902  -6.998  -5.550  1.00  0.00     0.050 C 
HETATM   31  C8  UNL     1      53.971  -6.030  -4.623  1.00  0.00     0.050 C 
HETATM   32  N4  UNL     1      51.820  -5.398  -3.694  1.00  0.00    -0.342 N 
HETATM   33  C9  UNL     1      51.861  -4.024  -3.441  1.00  0.00     0.239 C 
ATOM     34  H4  UNL     1      51.343  -6.059  -3.081  1.00  0.00     0.164 HD
HETATM   35  O2  UNL     1      52.125  -3.426  -2.339  1.00  0.00    -0.272 OA
ENDBRANCH  20  27
ENDBRANCH   1  20
TORSDOF 13
ENDMDL
MODEL 2
REMARK VINA RESULT: -6.260642563      2.323      4.224
REMARK  13 active torsions:
REMARK  status: ('A' for Active; 'I' for Inactive)
REMARK    1  A    between atoms: C2_2  and  C3_4 
REMARK    2  A    between atoms: C3_4  and  N1_5 
REMARK    3  A    between atoms: C3_4  and  C10_23 
REMARK    4  A    between atoms: N1_5  and  C4_7 
REMARK    5  A    between atoms: C4_7  and  S1_8 
REMARK    6  A    between atoms: C4_7  and  C5_14 
REMARK    7  A    between atoms: S1_8  and  N2_9 
REMARK    8  A    between atoms: N2_9  and  N3_10 
REMARK       I    between atoms: C10_23  and  N5_25 
REMARK    9  A    between atoms: N5_25  and  C11_27 
REMARK   10  A    between atoms: C11_27  and  C12_28 
REMARK   11  A    between atoms: C11_27  and  C15_33 
REMARK   12  A    between atoms: C12_28  and  C13_29 
REMARK   13  A    between atoms: C13_29  and  C14_30 
ROOT
HETATM    1  N1  UNL     1      50.315  -0.250  -4.294  1.00  0.00    -0.366 N 
ATOM      2  H1  UNL     1      51.033   0.361  -4.684  1.00  0.00     0.161 HD
ENDROOT
BRANCH   1   3
HETATM    3  C3  UNL     1      50.263  -0.334  -2.856  1.00  0.00     0.244 C 
BRANCH   3   4
HETATM    4  C2  UNL     1      51.633  -0.525  -2.294  1.00  0.00     0.154 C 
HETATM    5  C1  UNL     1      52.874  -0.455  -3.091  1.00  0.00     0.093 C 
HETATM    6  O1  UNL     1      51.720  -0.754  -1.090  1.00  0.00    -0.296 OA
ENDBRANCH   3   4
BRANCH   3   7
HETATM    7  C10 UNL     1      49.598   0.881  -2.342  1.00  0.00     0.248 C 
HETATM    8  O3  UNL     1      49.366   1.826  -3.135  1.00  0.00    -0.271 OA
HETATM    9  N5  UNL     1      49.212   1.021  -0.993  1.00  0.00    -0.344 N 
ATOM     10  H5  UNL     1      49.390   0.260  -0.337  1.00  0.00     0.163 HD
BRANCH   9  11
HETATM   11  C11 UNL     1      48.563   2.234  -0.524  1.00  0.00     0.186 C 
BRANCH  11  12
HETATM   12  C12 UNL     1      49.291   2.864   0.621  1.00  0.00     0.046 C 
BRANCH  12  13
HETATM   13  C13 UNL     1      50.747   2.540   0.661  1.00  0.00     0.116 C 
BRANCH  13  14
HETATM   14  C14 UNL     1      51.440   3.300  -0.404  1.00  0.00     0.172 C 
HETATM   15  O4  UNL     1      51.088   4.473  -0.680  1.00  0.00    -0.648 OA
HETATM   16  O5  UNL     1      52.479   2.691  -1.088  1.00  0.00    -0.648 OA
ENDBRANCH  13  14
ENDBRANCH  12  13
ENDBRANCH  11  12
BRANCH  11  17
HETATM   17  C15 UNL     1      47.165   1.969  -0.095  1.00  0.00     0.196 C 
HETATM   18  O6  UNL     1      46.639   2.494   0.919  1.00  0.00    -0.646 OA
HETATM   19  O7  UNL     1      46.381   1.100  -0.838  1.00  0.00    -0.646 OA
ENDBRANCH  11  17
ENDBRANCH   9  11
ENDBRANCH   3   7
ENDBRANCH   1   3
BRANCH   1  20
HETATM   20  C4  UNL     1      49.489  -0.915  -5.226  1.00  0.00     0.084 C 
BRANCH  20  21
HETATM   21  S1  UNL     1      47.926  -0.633  -5.447  1.00  0.00     0.007 SA
BRANCH  21  22
HETATM   22  N2  UNL     1      46.717  -0.848  -4.183  1.00  0.00    -0.096 NA
HETATM   23  S2  UNL     1      47.245  -1.994  -2.990  1.00  0.00     0.043 SA
BRANCH  22  24
HETATM   24  N3  UNL     1      46.397   0.379  -3.574  1.00  0.00    -0.343 NA
ATOM     25  H32 UNL     1      46.736   1.156  -4.142  1.00  0.00     0.172 HD
ATOM     26  H31 UNL     1      45.394   0.453  -3.402  1.00  0.00     0.172 HD
ENDBRANCH  22  24
ENDBRANCH  21  22
ENDBRANCH  20  21
BRANCH  20  27
HETATM   27  C5  UNL     1      50.152  -1.944  -6.129  1.00  0.00     0.199 C 
HETATM   28  S3  UNL     1      48.883  -2.711  -7.173  1.00  0.00    -0.117 SA
HETATM   29  C6  UNL     1      48.700  -4.291  -6.250  1.00  0.00     0.075 C 
HETATM   30  C7  UNL     1      47.266  -4.552  -5.923  1.00  0.00     0.050 C 
HETATM   31  C8  UNL     1      49.282  -5.434  -7.033  1.00  0.00     0.050 C 
HETATM   32  N4  UNL     1      49.505  -4.001  -5.089  1.00  0.00    -0.342 N 
HETATM   33  C9  UNL     1      50.572  -3.131  -5.330  1.00  0.00     0.239 C 
ATOM     34  H4  UNL     1      49.313  -4.398  -4.169  1.00  0.00     0.164 HD
HETATM   35  O2  UNL     1      51.792  -3.245  -4.957  1.00  0.00    -0.272 OA
ENDBRANCH  20  27
ENDBRANCH   1  20
TORSDOF 13
ENDMDL
MODEL 3
REMARK VINA RESULT: -6.235910743      2.080      3.631
REMARK  13 active torsions:
REMARK  status: ('A' for Active; 'I' for Inactive)
REMARK    1  A    between atoms: C2_2  and  C3_4 
REMARK    2  A    between atoms: C3_4  and  N1_5 
REMARK    3  A    between atoms: C3_4  and  C10_23 
REMARK    4  A    between atoms: N1_5  and  C4_7 
REMARK    5  A    between atoms: C4_7  and  S1_8 
REMARK    6  A    between atoms: C4_7  and  C5_14 
REMARK    7  A    between atoms: S1_8  and  N2_9 
REMARK    8  A    between atoms: N2_9  and  N3_10 
REMARK       I    between atoms: C10_23  and  N5_25 
REMARK    9  A    between atoms: N5_25  and  C11_27 
REMARK   10  A    between atoms: C11_27  and  C12_28 
REMARK   11  A    between atoms: C11_27  and  C15_33 
REMARK   12  A    between atoms: C12_28  and  C13_29 
REMARK   13  A    between atoms: C13_29  and  C14_30 
ROOT
HETATM    1  N1  UNL     1      50.642  -2.751  -4.548  1.00  0.00    -0.366 N 
ATOM      2  H1  UNL     1      51.284  -2.217  -5.133  1.00  0.00     0.161 HD
ENDROOT
BRANCH   1   3
HETATM    3  C3  UNL     1      50.575  -2.366  -3.160  1.00  0.00     0.244 C 
BRANCH   3   4
HETATM    4  C2  UNL     1      51.947  -2.289  -2.574  1.00  0.00     0.154 C 
HETATM    5  C1  UNL     1      52.753  -1.055  -2.508  1.00  0.00     0.093 C 
HETATM    6  O1  UNL     1      52.422  -3.328  -2.120  1.00  0.00    -0.296 OA
ENDBRANCH   3   4
BRANCH   3   7
HETATM    7  C10 UNL     1      49.840  -1.088  -3.066  1.00  0.00     0.248 C 
HETATM    8  O3  UNL     1      49.636  -0.428  -4.114  1.00  0.00    -0.271 OA
HETATM    9  N5  UNL     1      49.355  -0.581  -1.843  1.00  0.00    -0.344 N 
ATOM     10  H5  UNL     1      49.509  -1.108  -0.983  1.00  0.00     0.163 HD
BRANCH   9  11
HETATM   11  C11 UNL     1      48.639   0.683  -1.790  1.00  0.00     0.186 C 
BRANCH  11  12
HETATM   12  C12 UNL     1      49.033   1.513  -0.609  1.00  0.00     0.046 C 
BRANCH  12  13
HETATM   13  C13 UNL     1      50.508   1.635  -0.424  1.00  0.00     0.116 C 
BRANCH  13  14
HETATM   14  C14 UNL     1      50.793   2.815   0.424  1.00  0.00     0.172 C 
HETATM   15  O4  UNL     1      51.708   3.615   0.113  1.00  0.00    -0.648 OA
HETATM   16  O5  UNL     1      50.031   3.016   1.563  1.00  0.00    -0.648 OA
ENDBRANCH  13  14
ENDBRANCH  12  13
ENDBRANCH  11  12
BRANCH  11  17
HETATM   17  C15 UNL     1      47.169   0.470  -1.738  1.00  0.00     0.196 C 
HETATM   18  O6  UNL     1      46.614  -0.616  -2.044  1.00  0.00    -0.646 OA
HETATM   19  O7  UNL     1      46.347   1.511  -1.334  1.00  0.00    -0.646 OA
ENDBRANCH  11  17
ENDBRANCH   9  11
ENDBRANCH   3   7
ENDBRANCH   1   3
BRANCH   1  20
HETATM   20  C4  UNL     1      49.922  -3.782  -5.191  1.00  0.00     0.084 C 
BRANCH  20  21
HETATM   21  S1  UNL     1      48.326  -3.856  -5.323  1.00  0.00     0.007 SA
BRANCH  21  22
HETATM   22  N2  UNL     1      47.337  -2.504  -5.871  1.00  0.00    -0.096 NA
HETATM   23  S2  UNL     1      45.988  -3.051  -6.818  1.00  0.00     0.043 SA
BRANCH  22  24
HETATM   24  N3  UNL     1      46.892  -1.730  -4.785  1.00  0.00    -0.343 NA
ATOM     25  H32 UNL     1      47.491  -0.913  -4.662  1.00  0.00     0.172 HD
ATOM     26  H31 UNL     1      45.915  -1.461  -4.903  1.00  0.00     0.172 HD
ENDBRANCH  22  24
ENDBRANCH  21  22
ENDBRANCH  20  21
BRANCH  20  27
HETATM   27  C5  UNL     1      50.734  -4.881  -5.858  1.00  0.00     0.199 C 
HETATM   28  S3  UNL     1      49.600  -6.149  -6.486  1.00  0.00    -0.117 SA
HETATM   29  C6  UNL     1      49.831  -7.395  -5.154  1.00  0.00     0.075 C 
HETATM   30  C7  UNL     1      48.516  -7.821  -4.589  1.00  0.00     0.050 C 
HETATM   31  C8  UNL     1      50.598  -8.583  -5.665  1.00  0.00     0.050 C 
HETATM   32  N4  UNL     1      50.628  -6.631  -4.226  1.00  0.00    -0.342 N 
HETATM   33  C9  UNL     1      51.458  -5.680  -4.827  1.00  0.00     0.239 C 
ATOM     34  H4  UNL     1      50.590  -6.771  -3.217  1.00  0.00     0.164 HD
HETATM   35  O2  UNL     1      52.696  -5.443  -4.595  1.00  0.00    -0.272 OA
ENDBRANCH  20  27
ENDBRANCH   1  20
TORSDOF 13
ENDMDL
MODEL 4
REMARK VINA RESULT: -6.193488082      1.091      1.238
REMARK  13 active torsions:
REMARK  status: ('A' for Active; 'I' for Inactive)
REMARK    1  A    between atoms: C2_2  and  C3_4 
REMARK    2  A    between atoms: C3_4  and  N1_5 
REMARK    3  A    between atoms: C3_4  and  C10_23 
REMARK    4  A    between atoms: N1_5  and  C4_7 
REMARK    5  A    between atoms: C4_7  and  S1_8 
REMARK    6  A    between atoms: C4_7  and  C5_14 
REMARK    7  A    between atoms: S1_8  and  N2_9 
REMARK    8  A    between atoms: N2_9  and  N3_10 
REMARK       I    between atoms: C10_23  and  N5_25 
REMARK    9  A    between atoms: N5_25  and  C11_27 
REMARK   10  A    between atoms: C11_27  and  C12_28 
REMARK   11  A    between atoms: C11_27  and  C15_33 
REMARK   12  A    between atoms: C12_28  and  C13_29 
REMARK   13  A    between atoms: C13_29  and  C14_30 
ROOT
HETATM    1  N1  UNL     1      49.355  -2.977  -4.020  1.00  0.00    -0.366 N 
ATOM      2  H1  UNL     1      48.873  -3.582  -3.355  1.00  0.00     0.161 HD
ENDROOT
BRANCH   1   3
HETATM    3  C3  UNL     1      49.124  -1.562  -3.878  1.00  0.00     0.244 C 
BRANCH   3   4
HETATM    4  C2  UNL     1      47.672  -1.252  -4.038  1.00  0.00     0.154 C 
HETATM    5  C1  UNL     1      46.979  -0.143  -3.355  1.00  0.00     0.093 C 
HETATM    6  O1  UNL     1      47.024  -1.974  -4.792  1.00  0.00    -0.296 OA
ENDBRANCH   3   4
BRANCH   3   7
HETATM    7  C10 UNL     1      49.660  -1.132  -2.570  1.00  0.00     0.248 C 
HETATM    8  O3  UNL     1      49.355  -1.788  -1.545  1.00  0.00    -0.271 OA
HETATM    9  N5  UNL     1      50.505  -0.011  -2.429  1.00  0.00    -0.344 N 
ATOM     10  H5  UNL     1      50.766   0.530  -3.253  1.00  0.00     0.163 HD
BRANCH   9  11
HETATM   11  C11 UNL     1      51.009   0.383  -1.124  1.00  0.00     0.186 C 
BRANCH  11  12
HETATM   12  C12 UNL     1      50.498   1.722  -0.696  1.00  0.00     0.046 C 
BRANCH  12  13
HETATM   13  C13 UNL     1      49.009   1.811  -0.648  1.00  0.00     0.116 C 
BRANCH  13  14
HETATM   14  C14 UNL     1      48.605   2.469   0.615  1.00  0.00     0.172 C 
HETATM   15  O4  UNL     1      49.469   2.970   1.375  1.00  0.00    -0.648 OA
HETATM   16  O5  UNL     1      47.260   2.520   0.940  1.00  0.00    -0.648 OA
ENDBRANCH  13  14
ENDBRANCH  12  13
ENDBRANCH  11  12
BRANCH  11  17
HETATM   17  C15 UNL     1      52.495   0.428  -1.110  1.00  0.00     0.196 C 
HETATM   18  O6  UNL     1      53.215  -0.146  -1.965  1.00  0.00    -0.646 OA
HETATM   19  O7  UNL     1      53.142   1.135  -0.108  1.00  0.00    -0.646 OA
ENDBRANCH  11  17
ENDBRANCH   9  11
ENDBRANCH   3   7
ENDBRANCH   1   3
BRANCH   1  20
HETATM   20  C4  UNL     1      50.171  -3.626  -4.974  1.00  0.00     0.084 C 
BRANCH  20  21
HETATM   21  S1  UNL     1      49.642  -4.415  -6.264  1.00  0.00     0.007 SA
BRANCH  21  22
HETATM   22  N2  UNL     1      48.237  -5.478  -6.238  1.00  0.00    -0.096 NA
HETATM   23  S2  UNL     1      48.561  -6.934  -5.349  1.00  0.00     0.043 SA
BRANCH  22  24
HETATM   24  N3  UNL     1      47.113  -4.821  -5.707  1.00  0.00    -0.343 NA
ATOM     25  H32 UNL     1      46.946  -3.945  -6.203  1.00  0.00     0.172 HD
ATOM     26  H31 UNL     1      46.290  -5.424  -5.729  1.00  0.00     0.172 HD
ENDBRANCH  22  24
ENDBRANCH  21  22
ENDBRANCH  20  21
BRANCH  20  27
HETATM   27  C5  UNL     1      51.676  -3.518  -4.784  1.00  0.00     0.199 C 
HETATM   28  S3  UNL     1      52.497  -4.580  -6.004  1.00  0.00    -0.117 SA
HETATM   29  C6  UNL     1      52.904  -5.990  -4.897  1.00  0.00     0.075 C 
HETATM   30  C7  UNL     1      52.420  -7.278  -5.477  1.00  0.00     0.050 C 
HETATM   31  C8  UNL     1      54.383  -6.050  -4.634  1.00  0.00     0.050 C 
HETATM   32  N4  UNL     1      52.187  -5.596  -3.709  1.00  0.00    -0.342 N 
HETATM   33  C9  UNL     1      52.085  -4.214  -3.530  1.00  0.00     0.239 C 
ATOM     34  H4  UNL     1      51.788  -6.269  -3.055  1.00  0.00     0.164 HD
HETATM   35  O2  UNL     1      52.295  -3.532  -2.465  1.00  0.00    -0.272 OA
ENDBRANCH  20  27
ENDBRANCH   1  20
TORSDOF 13
ENDMDL
MODEL 5
REMARK VINA RESULT: -6.185552385      1.827      2.325
REMARK  13 active torsions:
REMARK  status: ('A' for Active; 'I' for Inactive)
REMARK    1  A    between atoms: C2_2  and  C3_4 
REMARK    2  A    between atoms: C3_4  and  N1_5 
REMARK    3  A    between atoms: C3_4  and  C10_23 
REMARK    4  A    between atoms: N1_5  and  C4_7 
REMARK    5  A    between atoms: C4_7  and  S1_8 
REMARK    6  A    between atoms: C4_7  and  C5_14 
REMARK    7  A    between atoms: S1_8  and  N2_9 
REMARK    8  A    between atoms: N2_9  and  N3_10 
REMARK       I    between atoms: C10_23  and  N5_25 
REMARK    9  A    between atoms: N5_25  and  C11_27 
REMARK   10  A    between atoms: C11_27  and  C12_28 
REMARK   11  A    between atoms: C11_27  and  C15_33 
REMARK   12  A    between atoms: C12_28  and  C13_29 
REMARK   13  A    between atoms: C13_29  and  C14_30 
ROOT
HETATM    1  N1  UNL     1      50.181  -2.651  -3.631  1.00  0.00    -0.366 N 
ATOM      2  H1  UNL     1      49.672  -2.883  -2.778  1.00  0.00     0.161 HD
ENDROOT
BRANCH   1   3
HETATM    3  C3  UNL     1      50.995  -1.462  -3.583  1.00  0.00     0.244 C 
BRANCH   3   4
HETATM    4  C2  UNL     1      50.594  -0.511  -4.663  1.00  0.00     0.154 C 
HETATM    5  C1  UNL     1      51.439  -0.168  -5.823  1.00  0.00     0.093 C 
HETATM    6  O1  UNL     1      49.486   0.012  -4.567  1.00  0.00    -0.296 OA
ENDBRANCH   3   4
BRANCH   3   7
HETATM    7  C10 UNL     1      50.882  -0.875  -2.232  1.00  0.00     0.248 C 
HETATM    8  O3  UNL     1      50.955  -1.632  -1.234  1.00  0.00    -0.271 OA
HETATM    9  N5  UNL     1      50.696   0.507  -2.019  1.00  0.00    -0.344 N 
ATOM     10  H5  UNL     1      50.639   1.137  -2.820  1.00  0.00     0.163 HD
BRANCH   9  11
HETATM   11  C11 UNL     1      50.586   1.046  -0.674  1.00  0.00     0.186 C 
BRANCH  11  12
HETATM   12  C12 UNL     1      49.347   1.865  -0.488  1.00  0.00     0.046 C 
BRANCH  12  13
HETATM   13  C13 UNL     1      48.444   1.870  -1.676  1.00  0.00     0.116 C 
BRANCH  13  14
HETATM   14  C14 UNL     1      47.358   0.887  -1.462  1.00  0.00     0.172 C 
HETATM   15  O4  UNL     1      46.302   1.226  -0.875  1.00  0.00    -0.648 OA
HETATM   16  O5  UNL     1      47.532  -0.408  -1.921  1.00  0.00    -0.648 OA
ENDBRANCH  13  14
ENDBRANCH  12  13
ENDBRANCH  11  12
BRANCH  11  17
HETATM   17  C15 UNL     1      51.757   1.895  -0.334  1.00  0.00     0.196 C 
HETATM   18  O6  UNL     1      51.669   3.113  -0.032  1.00  0.00    -0.646 OA
HETATM   19  O7  UNL     1      53.026   1.336  -0.343  1.00  0.00    -0.646 OA
ENDBRANCH  11  17
ENDBRANCH   9  11
ENDBRANCH   3   7
ENDBRANCH   1   3
BRANCH   1  20
HETATM   20  C4  UNL     1      50.004  -3.530  -4.722  1.00  0.00     0.084 C 
BRANCH  20  21
HETATM   21  S1  UNL     1      48.631  -3.756  -5.518  1.00  0.00     0.007 SA
BRANCH  21  22
HETATM   22  N2  UNL     1      47.462  -2.471  -5.815  1.00  0.00    -0.096 NA
HETATM   23  S2  UNL     1      46.048  -3.076  -6.620  1.00  0.00     0.043 SA
BRANCH  22  24
HETATM   24  N3  UNL     1      47.105  -1.826  -4.618  1.00  0.00    -0.343 NA
ATOM     25  H32 UNL     1      47.892  -1.284  -4.258  1.00  0.00     0.172 HD
ATOM     26  H31 UNL     1      46.279  -1.241  -4.748  1.00  0.00     0.172 HD
ENDBRANCH  22  24
ENDBRANCH  21  22
ENDBRANCH  20  21
BRANCH  20  27
HETATM   27  C5  UNL     1      51.232  -4.283  -5.210  1.00  0.00     0.199 C 
HETATM   28  S3  UNL     1      50.712  -5.528  -6.421  1.00  0.00    -0.117 SA
HETATM   29  C6  UNL     1      50.786  -7.007  -5.331  1.00  0.00     0.075 C 
HETATM   30  C7  UNL     1      49.503  -7.769  -5.381  1.00  0.00     0.050 C 
HETATM   31  C8  UNL     1      51.943  -7.889  -5.710  1.00  0.00     0.050 C 
HETATM   32  N4  UNL     1      51.021  -6.371  -4.057  1.00  0.00    -0.342 N 
HETATM   33  C9  UNL     1      51.746  -5.178  -4.134  1.00  0.00     0.239 C 
ATOM     34  H4  UNL     1      50.687  -6.759  -3.175  1.00  0.00     0.164 HD
HETATM   35  O2  UNL     1      52.740  -4.804  -3.418  1.00  0.00    -0.272 OA
ENDBRANCH  20  27
ENDBRANCH   1  20
TORSDOF 13
ENDMDL
