MODEL 1
REMARK VINA RESULT: -7.847076262      0.000      0.000
REMARK  14 active torsions:
REMARK  status: ('A' for Active; 'I' for Inactive)
REMARK    1  A    between atoms: C2_2  and  N1_3 
REMARK    2  A    between atoms: C2_2  and  C11_18 
REMARK    3  A    between atoms: N1_3  and  C3_5 
REMARK    4  A    between atoms: C3_5  and  C5_7 
REMARK    5  A    between atoms: C5_7  and  N2_9 
REMARK       I    between atoms: C11_18  and  N4_20 
REMARK    6  A    between atoms: N4_20  and  C12_22 
REMARK    7  A    between atoms: C12_22  and  O4_23 
REMARK    8  A    between atoms: C12_22  and  C13_25 
REMARK       I    between atoms: C13_25  and  N5_27 
REMARK    9  A    between atoms: N5_27  and  C14_29 
REMARK   10  A    between atoms: C14_29  and  O6_30 
REMARK   11  A    between atoms: C14_29  and  C15_32 
REMARK   12  A    between atoms: C18_35  and  C19_36 
REMARK   13  A    between atoms: C19_36  and  C20_37 
REMARK       I    between atoms: C20_37  and  N6_39 
REMARK   14  A    between atoms: N6_39  and  N7_41 
ROOT
HETATM    1  C12 UNL     1      46.435  -0.752  -4.217  1.00  0.00     0.212 C 
ENDROOT
BRANCH   1   2
HETATM    2  N4  UNL     1      46.554  -1.809  -5.096  1.00  0.00    -0.301 N 
HETATM    3  C11 UNL     1      47.427  -2.890  -5.161  1.00  0.00     0.245 C 
HETATM    4  O3  UNL     1      48.347  -3.091  -4.362  1.00  0.00    -0.271 OA
ATOM      5  H4  UNL     1      45.866  -1.794  -5.848  1.00  0.00     0.171 HD
BRANCH   3   6
HETATM    6  C2  UNL     1      47.272  -3.920  -6.272  1.00  0.00     0.166 C 
HETATM    7  C1  UNL     1      46.049  -3.502  -7.028  1.00  0.00     0.042 C 
BRANCH   6   8
HETATM    8  N1  UNL     1      47.400  -5.229  -5.855  1.00  0.00    -0.404 N 
ATOM      9  H1  UNL     1      46.682  -5.584  -5.225  1.00  0.00     0.154 HD
BRANCH   8  10
HETATM   10  C3  UNL     1      48.418  -6.109  -6.212  1.00  0.00     0.097 C 
HETATM   11  C4  UNL     1      49.446  -5.422  -7.093  1.00  0.00     0.034 C 
BRANCH  10  12
HETATM   12  C5  UNL     1      49.093  -6.616  -4.923  1.00  0.00     0.129 C 
HETATM   13  C6  UNL     1      50.429  -5.965  -4.688  1.00  0.00     0.036 C 
BRANCH  12  14
HETATM   14  N2  UNL     1      49.152  -8.055  -4.848  1.00  0.00    -0.248 N 
HETATM   15  N3  UNL     1      50.266  -8.750  -4.972  1.00  0.00    -0.306 N 
HETATM   16  C7  UNL     1      50.351 -10.093  -4.899  1.00  0.00     0.111 A 
ATOM     17  H3  UNL     1      51.129  -8.232  -5.136  1.00  0.00     0.186 HD
HETATM   18  C8  UNL     1      49.227 -10.862  -4.679  1.00  0.00     0.079 A 
HETATM   19  C9  UNL     1      48.024 -10.167  -4.543  1.00  0.00     0.242 A 
HETATM   20  O1  UNL     1      46.979 -10.834  -4.343  1.00  0.00    -0.282 OA
HETATM   21  C10 UNL     1      48.027  -8.795  -4.631  1.00  0.00     0.312 A 
HETATM   22  O2  UNL     1      46.939  -8.195  -4.505  1.00  0.00    -0.262 OA
ENDBRANCH  12  14
ENDBRANCH  10  12
ENDBRANCH   8  10
ENDBRANCH   6   8
ENDBRANCH   3   6
ENDBRANCH   1   2
BRANCH   1  23
HETATM   23  O4  UNL     1      45.804   0.298  -4.701  1.00  0.00    -0.342 OA
ATOM     24  H4  UNL     1      46.369   0.965  -5.072  1.00  0.00     0.219 HD
ENDBRANCH   1  23
BRANCH   1  25
HETATM   25  C13 UNL     1      46.890  -0.621  -2.849  1.00  0.00     0.294 C 
HETATM   26  O5  UNL     1      46.546  -1.396  -1.949  1.00  0.00    -0.264 OA
HETATM   27  N5  UNL     1      47.783   0.466  -2.528  1.00  0.00    -0.327 N 
ATOM     28  H5  UNL     1      48.081   1.111  -3.260  1.00  0.00     0.165 HD
BRANCH  27  29
HETATM   29  C14 UNL     1      48.257   0.646  -1.173  1.00  0.00     0.229 C 
BRANCH  29  30
HETATM   30  O6  UNL     1      49.604   0.237  -1.144  1.00  0.00    -0.376 OA
ATOM     31  H6  UNL     1      49.990   0.479  -1.978  1.00  0.00     0.212 HD
ENDBRANCH  29  30
BRANCH  29  32
HETATM   32  C15 UNL     1      48.219   2.107  -0.769  1.00  0.00     0.067 A 
HETATM   33  C16 UNL     1      47.418   2.553   0.375  1.00  0.00     0.047 A 
HETATM   34  C17 UNL     1      48.871   2.526   0.510  1.00  0.00    -0.074 A 
HETATM   35  C18 UNL     1      50.011   2.703   1.169  1.00  0.00    -0.014 C 
BRANCH  35  36
HETATM   36  C19 UNL     1      51.332   2.429   0.569  1.00  0.00     0.132 C 
BRANCH  36  37
HETATM   37  C20 UNL     1      51.561   3.336  -0.578  1.00  0.00     0.238 C 
HETATM   38  O7  UNL     1      51.881   4.540  -0.354  1.00  0.00    -0.272 OA
HETATM   39  N6  UNL     1      51.421   2.851  -1.890  1.00  0.00    -0.276 N 
ATOM     40  H6  UNL     1      51.163   1.879  -2.061  1.00  0.00     0.189 HD
BRANCH  39  41
HETATM   41  N7  UNL     1      51.647   3.735  -2.959  1.00  0.00    -0.343 N 
ATOM     42  H72 UNL     1      51.929   4.697  -2.770  1.00  0.00     0.176 HD
ATOM     43  H71 UNL     1      51.522   3.389  -3.911  1.00  0.00     0.176 HD
ENDBRANCH  39  41
ENDBRANCH  36  37
ENDBRANCH  35  36
ENDBRANCH  29  32
ENDBRANCH  27  29
ENDBRANCH   1  25
TORSDOF 14
ENDMDL
MODEL 2
REMARK VINA RESULT: -7.837298318      3.006      5.025
REMARK  14 active torsions:
REMARK  status: ('A' for Active; 'I' for Inactive)
REMARK    1  A    between atoms: C2_2  and  N1_3 
REMARK    2  A    between atoms: C2_2  and  C11_18 
REMARK    3  A    between atoms: N1_3  and  C3_5 
REMARK    4  A    between atoms: C3_5  and  C5_7 
REMARK    5  A    between atoms: C5_7  and  N2_9 
REMARK       I    between atoms: C11_18  and  N4_20 
REMARK    6  A    between atoms: N4_20  and  C12_22 
REMARK    7  A    between atoms: C12_22  and  O4_23 
REMARK    8  A    between atoms: C12_22  and  C13_25 
REMARK       I    between atoms: C13_25  and  N5_27 
REMARK    9  A    between atoms: N5_27  and  C14_29 
REMARK   10  A    between atoms: C14_29  and  O6_30 
REMARK   11  A    between atoms: C14_29  and  C15_32 
REMARK   12  A    between atoms: C18_35  and  C19_36 
REMARK   13  A    between atoms: C19_36  and  C20_37 
REMARK       I    between atoms: C20_37  and  N6_39 
REMARK   14  A    between atoms: N6_39  and  N7_41 
ROOT
HETATM    1  C12 UNL     1      50.350  -1.079  -2.363  1.00  0.00     0.212 C 
ENDROOT
BRANCH   1   2
HETATM    2  N4  UNL     1      50.472  -2.183  -3.181  1.00  0.00    -0.301 N 
HETATM    3  C11 UNL     1      51.355  -3.258  -3.193  1.00  0.00     0.245 C 
HETATM    4  O3  UNL     1      52.285  -3.403  -2.394  1.00  0.00    -0.271 OA
ATOM      5  H4  UNL     1      49.777  -2.218  -3.926  1.00  0.00     0.171 HD
BRANCH   3   6
HETATM    6  C2  UNL     1      51.200  -4.351  -4.242  1.00  0.00     0.166 C 
HETATM    7  C1  UNL     1      52.322  -5.308  -3.981  1.00  0.00     0.042 C 
BRANCH   6   8
HETATM    8  N1  UNL     1      50.989  -3.882  -5.522  1.00  0.00    -0.404 N 
ATOM      9  H1  UNL     1      51.650  -3.191  -5.875  1.00  0.00     0.154 HD
BRANCH   8  10
HETATM   10  C3  UNL     1      49.959  -4.264  -6.377  1.00  0.00     0.097 C 
HETATM   11  C4  UNL     1      50.188  -5.667  -6.910  1.00  0.00     0.034 C 
BRANCH  10  12
HETATM   12  C5  UNL     1      48.635  -4.215  -5.590  1.00  0.00     0.129 C 
HETATM   13  C6  UNL     1      47.716  -5.349  -5.957  1.00  0.00     0.036 C 
BRANCH  12  14
HETATM   14  N2  UNL     1      47.989  -2.928  -5.657  1.00  0.00    -0.248 N 
HETATM   15  N3  UNL     1      47.862  -2.229  -6.768  1.00  0.00    -0.306 N 
HETATM   16  C7  UNL     1      47.256  -1.028  -6.859  1.00  0.00     0.111 A 
ATOM     17  H3  UNL     1      48.252  -2.626  -7.622  1.00  0.00     0.186 HD
HETATM   18  C8  UNL     1      46.705  -0.427  -5.747  1.00  0.00     0.079 A 
HETATM   19  C9  UNL     1      46.817  -1.132  -4.548  1.00  0.00     0.242 A 
HETATM   20  O1  UNL     1      46.328  -0.616  -3.514  1.00  0.00    -0.282 OA
HETATM   21  C10 UNL     1      47.451  -2.352  -4.543  1.00  0.00     0.312 A 
HETATM   22  O2  UNL     1      47.539  -2.965  -3.459  1.00  0.00    -0.262 OA
ENDBRANCH  12  14
ENDBRANCH  10  12
ENDBRANCH   8  10
ENDBRANCH   6   8
ENDBRANCH   3   6
ENDBRANCH   1   2
BRANCH   1  23
HETATM   23  O4  UNL     1      51.008  -1.161  -1.225  1.00  0.00    -0.342 OA
ATOM     24  H4  UNL     1      51.101  -0.338  -0.759  1.00  0.00     0.219 HD
ENDBRANCH   1  23
BRANCH   1  25
HETATM   25  C13 UNL     1      49.617   0.154  -2.563  1.00  0.00     0.294 C 
HETATM   26  O5  UNL     1      49.794   0.889  -3.542  1.00  0.00    -0.264 OA
HETATM   27  N5  UNL     1      48.642   0.537  -1.572  1.00  0.00    -0.327 N 
ATOM     28  H5  UNL     1      48.480  -0.061  -0.762  1.00  0.00     0.165 HD
BRANCH  27  29
HETATM   29  C14 UNL     1      47.892   1.765  -1.722  1.00  0.00     0.229 C 
BRANCH  29  30
HETATM   30  O6  UNL     1      46.525   1.425  -1.699  1.00  0.00    -0.376 OA
ATOM     31  H6  UNL     1      46.050   2.189  -1.390  1.00  0.00     0.212 HD
ENDBRANCH  29  30
BRANCH  29  32
HETATM   32  C15 UNL     1      48.143   2.706  -0.559  1.00  0.00     0.067 A 
HETATM   33  C16 UNL     1      47.964   2.259   0.826  1.00  0.00     0.047 A 
HETATM   34  C17 UNL     1      49.321   2.465   0.330  1.00  0.00    -0.074 A 
HETATM   35  C18 UNL     1      50.645   2.478   0.448  1.00  0.00    -0.014 C 
BRANCH  35  36
HETATM   36  C19 UNL     1      51.541   2.868  -0.659  1.00  0.00     0.132 C 
BRANCH  36  37
HETATM   37  C20 UNL     1      52.429   1.737  -1.010  1.00  0.00     0.238 C 
HETATM   38  O7  UNL     1      52.933   1.042  -0.080  1.00  0.00    -0.272 OA
HETATM   39  N6  UNL     1      52.696   1.453  -2.360  1.00  0.00    -0.276 N 
ATOM     40  H6  UNL     1      52.285   2.019  -3.103  1.00  0.00     0.189 HD
BRANCH  39  41
HETATM   41  N7  UNL     1      53.540   0.371  -2.663  1.00  0.00    -0.343 N 
ATOM     42  H72 UNL     1      53.137  -0.537  -2.896  1.00  0.00     0.176 HD
ATOM     43  H71 UNL     1      54.549   0.521  -2.643  1.00  0.00     0.176 HD
ENDBRANCH  39  41
ENDBRANCH  36  37
ENDBRANCH  35  36
ENDBRANCH  29  32
ENDBRANCH  27  29
ENDBRANCH   1  25
TORSDOF 14
ENDMDL
MODEL 3
REMARK VINA RESULT: -7.835461934      2.837      3.719
REMARK  14 active torsions:
REMARK  status: ('A' for Active; 'I' for Inactive)
REMARK    1  A    between atoms: C2_2  and  N1_3 
REMARK    2  A    between atoms: C2_2  and  C11_18 
REMARK    3  A    between atoms: N1_3  and  C3_5 
REMARK    4  A    between atoms: C3_5  and  C5_7 
REMARK    5  A    between atoms: C5_7  and  N2_9 
REMARK       I    between atoms: C11_18  and  N4_20 
REMARK    6  A    between atoms: N4_20  and  C12_22 
REMARK    7  A    between atoms: C12_22  and  O4_23 
REMARK    8  A    between atoms: C12_22  and  C13_25 
REMARK       I    between atoms: C13_25  and  N5_27 
REMARK    9  A    between atoms: N5_27  and  C14_29 
REMARK   10  A    between atoms: C14_29  and  O6_30 
REMARK   11  A    between atoms: C14_29  and  C15_32 
REMARK   12  A    between atoms: C18_35  and  C19_36 
REMARK   13  A    between atoms: C19_36  and  C20_37 
REMARK       I    between atoms: C20_37  and  N6_39 
REMARK   14  A    between atoms: N6_39  and  N7_41 
ROOT
HETATM    1  C12 UNL     1      46.727  -1.612  -4.252  1.00  0.00     0.212 C 
ENDROOT
BRANCH   1   2
HETATM    2  N4  UNL     1      47.192  -2.667  -5.008  1.00  0.00    -0.301 N 
HETATM    3  C11 UNL     1      46.658  -3.367  -6.085  1.00  0.00     0.245 C 
HETATM    4  O3  UNL     1      45.550  -3.141  -6.581  1.00  0.00    -0.271 OA
ATOM      5  H4  UNL     1      48.112  -3.002  -4.721  1.00  0.00     0.171 HD
BRANCH   3   6
HETATM    6  C2  UNL     1      47.458  -4.493  -6.727  1.00  0.00     0.166 C 
HETATM    7  C1  UNL     1      47.956  -5.322  -5.584  1.00  0.00     0.042 C 
BRANCH   6   8
HETATM    8  N1  UNL     1      48.341  -4.077  -7.701  1.00  0.00    -0.404 N 
ATOM      9  H1  UNL     1      47.988  -3.417  -8.394  1.00  0.00     0.154 HD
BRANCH   8  10
HETATM   10  C3  UNL     1      49.670  -4.473  -7.829  1.00  0.00     0.097 C 
HETATM   11  C4  UNL     1      50.020  -4.740  -9.281  1.00  0.00     0.034 C 
BRANCH  10  12
HETATM   12  C5  UNL     1      50.565  -3.347  -7.276  1.00  0.00     0.129 C 
HETATM   13  C6  UNL     1      51.630  -2.936  -8.257  1.00  0.00     0.036 C 
BRANCH  12  14
HETATM   14  N2  UNL     1      51.094  -3.640  -5.968  1.00  0.00    -0.248 N 
HETATM   15  N3  UNL     1      51.897  -4.655  -5.713  1.00  0.00    -0.306 N 
HETATM   16  C7  UNL     1      52.413  -4.947  -4.501  1.00  0.00     0.111 A 
ATOM     17  H3  UNL     1      52.148  -5.265  -6.491  1.00  0.00     0.186 HD
HETATM   18  C8  UNL     1      52.119  -4.169  -3.402  1.00  0.00     0.079 A 
HETATM   19  C9  UNL     1      51.270  -3.083  -3.625  1.00  0.00     0.242 A 
HETATM   20  O1  UNL     1      50.980  -2.353  -2.647  1.00  0.00    -0.282 OA
HETATM   21  C10 UNL     1      50.789  -2.857  -4.893  1.00  0.00     0.312 A 
HETATM   22  O2  UNL     1      50.032  -1.880  -5.069  1.00  0.00    -0.262 OA
ENDBRANCH  12  14
ENDBRANCH  10  12
ENDBRANCH   8  10
ENDBRANCH   6   8
ENDBRANCH   3   6
ENDBRANCH   1   2
BRANCH   1  23
HETATM   23  O4  UNL     1      45.762  -0.913  -4.816  1.00  0.00    -0.342 OA
ATOM     24  H4  UNL     1      44.953  -0.880  -4.319  1.00  0.00     0.219 HD
ENDBRANCH   1  23
BRANCH   1  25
HETATM   25  C13 UNL     1      47.129  -1.157  -2.937  1.00  0.00     0.294 C 
HETATM   26  O5  UNL     1      46.473  -1.390  -1.916  1.00  0.00    -0.264 OA
HETATM   27  N5  UNL     1      48.349  -0.396  -2.822  1.00  0.00    -0.327 N 
ATOM     28  H5  UNL     1      48.905  -0.200  -3.655  1.00  0.00     0.165 HD
BRANCH  27  29
HETATM   29  C14 UNL     1      48.788   0.090  -1.532  1.00  0.00     0.229 C 
BRANCH  29  30
HETATM   30  O6  UNL     1      50.196   0.052  -1.528  1.00  0.00    -0.376 OA
ATOM     31  H6  UNL     1      50.484   0.370  -0.680  1.00  0.00     0.212 HD
ENDBRANCH  29  30
BRANCH  29  32
HETATM   32  C15 UNL     1      48.374   1.533  -1.321  1.00  0.00     0.067 A 
HETATM   33  C16 UNL     1      47.243   1.875  -0.453  1.00  0.00     0.047 A 
HETATM   34  C17 UNL     1      48.594   2.165   0.016  1.00  0.00    -0.074 A 
HETATM   35  C18 UNL     1      49.478   2.624   0.896  1.00  0.00    -0.014 C 
BRANCH  35  36
HETATM   36  C19 UNL     1      50.935   2.597   0.653  1.00  0.00     0.132 C 
BRANCH  36  37
HETATM   37  C20 UNL     1      51.244   3.283  -0.621  1.00  0.00     0.238 C 
HETATM   38  O7  UNL     1      50.940   4.505  -0.750  1.00  0.00    -0.272 OA
HETATM   39  N6  UNL     1      51.867   2.573  -1.662  1.00  0.00    -0.276 N 
ATOM     40  H6  UNL     1      52.109   1.588  -1.550  1.00  0.00     0.189 HD
BRANCH  39  41
HETATM   41  N7  UNL     1      52.151   3.252  -2.860  1.00  0.00    -0.343 N 
ATOM     42  H72 UNL     1      53.023   3.773  -2.952  1.00  0.00     0.176 HD
ATOM     43  H71 UNL     1      51.470   3.206  -3.618  1.00  0.00     0.176 HD
ENDBRANCH  39  41
ENDBRANCH  36  37
ENDBRANCH  35  36
ENDBRANCH  29  32
ENDBRANCH  27  29
ENDBRANCH   1  25
TORSDOF 14
ENDMDL
MODEL 4
REMARK VINA RESULT: -7.818886785      2.663      4.130
REMARK  14 active torsions:
REMARK  status: ('A' for Active; 'I' for Inactive)
REMARK    1  A    between atoms: C2_2  and  N1_3 
REMARK    2  A    between atoms: C2_2  and  C11_18 
REMARK    3  A    between atoms: N1_3  and  C3_5 
REMARK    4  A    between atoms: C3_5  and  C5_7 
REMARK    5  A    between atoms: C5_7  and  N2_9 
REMARK       I    between atoms: C11_18  and  N4_20 
REMARK    6  A    between atoms: N4_20  and  C12_22 
REMARK    7  A    between atoms: C12_22  and  O4_23 
REMARK    8  A    between atoms: C12_22  and  C13_25 
REMARK       I    between atoms: C13_25  and  N5_27 
REMARK    9  A    between atoms: N5_27  and  C14_29 
REMARK   10  A    between atoms: C14_29  and  O6_30 
REMARK   11  A    between atoms: C14_29  and  C15_32 
REMARK   12  A    between atoms: C18_35  and  C19_36 
REMARK   13  A    between atoms: C19_36  and  C20_37 
REMARK       I    between atoms: C20_37  and  N6_39 
REMARK   14  A    between atoms: N6_39  and  N7_41 
ROOT
HETATM    1  C12 UNL     1      46.687  -1.145  -4.402  1.00  0.00     0.212 C 
ENDROOT
BRANCH   1   2
HETATM    2  N4  UNL     1      47.371  -1.861  -5.361  1.00  0.00    -0.301 N 
HETATM    3  C11 UNL     1      46.956  -2.709  -6.384  1.00  0.00     0.245 C 
HETATM    4  O3  UNL     1      45.778  -3.001  -6.611  1.00  0.00    -0.271 OA
ATOM      5  H4  UNL     1      48.383  -1.748  -5.311  1.00  0.00     0.171 HD
BRANCH   3   6
HETATM    6  C2  UNL     1      47.989  -3.338  -7.309  1.00  0.00     0.166 C 
HETATM    7  C1  UNL     1      47.470  -3.107  -8.694  1.00  0.00     0.042 C 
BRANCH   6   8
HETATM    8  N1  UNL     1      48.389  -4.605  -6.934  1.00  0.00    -0.404 N 
ATOM      9  H1  UNL     1      47.931  -5.389  -7.398  1.00  0.00     0.154 HD
BRANCH   8  10
HETATM   10  C3  UNL     1      49.357  -4.913  -5.982  1.00  0.00     0.097 C 
HETATM   11  C4  UNL     1      49.784  -6.365  -6.094  1.00  0.00     0.034 C 
BRANCH  10  12
HETATM   12  C5  UNL     1      50.571  -3.994  -6.214  1.00  0.00     0.129 C 
HETATM   13  C6  UNL     1      51.679  -4.694  -6.954  1.00  0.00     0.036 C 
BRANCH  12  14
HETATM   14  N2  UNL     1      51.026  -3.349  -5.007  1.00  0.00    -0.248 N 
HETATM   15  N3  UNL     1      51.614  -3.986  -4.013  1.00  0.00    -0.306 N 
HETATM   16  C7  UNL     1      52.055  -3.407  -2.878  1.00  0.00     0.111 A 
ATOM     17  H3  UNL     1      51.744  -4.993  -4.109  1.00  0.00     0.186 HD
HETATM   18  C8  UNL     1      51.915  -2.051  -2.675  1.00  0.00     0.079 A 
HETATM   19  C9  UNL     1      51.297  -1.336  -3.703  1.00  0.00     0.242 A 
HETATM   20  O1  UNL     1      51.151  -0.098  -3.553  1.00  0.00    -0.282 OA
HETATM   21  C10 UNL     1      50.876  -2.005  -4.828  1.00  0.00     0.312 A 
HETATM   22  O2  UNL     1      50.327  -1.345  -5.733  1.00  0.00    -0.262 OA
ENDBRANCH  12  14
ENDBRANCH  10  12
ENDBRANCH   8  10
ENDBRANCH   6   8
ENDBRANCH   3   6
ENDBRANCH   1   2
BRANCH   1  23
HETATM   23  O4  UNL     1      45.561  -0.601  -4.819  1.00  0.00    -0.342 OA
ATOM     24  H4  UNL     1      45.097  -0.097  -4.161  1.00  0.00     0.219 HD
ENDBRANCH   1  23
BRANCH   1  25
HETATM   25  C13 UNL     1      47.010  -0.902  -3.011  1.00  0.00     0.294 C 
HETATM   26  O5  UNL     1      46.476  -1.516  -2.080  1.00  0.00    -0.264 OA
HETATM   27  N5  UNL     1      47.997   0.104  -2.705  1.00  0.00    -0.327 N 
ATOM     28  H5  UNL     1      48.451   0.616  -3.462  1.00  0.00     0.165 HD
BRANCH  27  29
HETATM   29  C14 UNL     1      48.347   0.391  -1.331  1.00  0.00     0.229 C 
BRANCH  29  30
HETATM   30  O6  UNL     1      49.729   0.161  -1.195  1.00  0.00    -0.376 OA
ATOM     31  H6  UNL     1      50.131   0.990  -0.962  1.00  0.00     0.212 HD
ENDBRANCH  29  30
BRANCH  29  32
HETATM   32  C15 UNL     1      48.095   1.848  -0.995  1.00  0.00     0.067 A 
HETATM   33  C16 UNL     1      47.138   2.227   0.049  1.00  0.00     0.047 A 
HETATM   34  C17 UNL     1      48.564   2.383   0.321  1.00  0.00    -0.074 A 
HETATM   35  C18 UNL     1      49.604   2.719   1.076  1.00  0.00    -0.014 C 
BRANCH  35  36
HETATM   36  C19 UNL     1      51.001   2.590   0.614  1.00  0.00     0.132 C 
BRANCH  36  37
HETATM   37  C20 UNL     1      51.147   3.209  -0.722  1.00  0.00     0.238 C 
HETATM   38  O7  UNL     1      50.949   4.453  -0.847  1.00  0.00    -0.272 OA
HETATM   39  N6  UNL     1      51.502   2.413  -1.824  1.00  0.00    -0.276 N 
ATOM     40  H6  UNL     1      51.659   1.411  -1.715  1.00  0.00     0.189 HD
BRANCH  39  41
HETATM   41  N7  UNL     1      51.636   3.029  -3.081  1.00  0.00    -0.343 N 
ATOM     42  H72 UNL     1      52.549   3.063  -3.534  1.00  0.00     0.176 HD
ATOM     43  H71 UNL     1      50.806   3.434  -3.515  1.00  0.00     0.176 HD
ENDBRANCH  39  41
ENDBRANCH  36  37
ENDBRANCH  35  36
ENDBRANCH  29  32
ENDBRANCH  27  29
ENDBRANCH   1  25
TORSDOF 14
ENDMDL
MODEL 5
REMARK VINA RESULT: -7.787873941      2.469      9.477
REMARK  14 active torsions:
REMARK  status: ('A' for Active; 'I' for Inactive)
REMARK    1  A    between atoms: C2_2  and  N1_3 
REMARK    2  A    between atoms: C2_2  and  C11_18 
REMARK    3  A    between atoms: N1_3  and  C3_5 
REMARK    4  A    between atoms: C3_5  and  C5_7 
REMARK    5  A    between atoms: C5_7  and  N2_9 
REMARK       I    between atoms: C11_18  and  N4_20 
REMARK    6  A    between atoms: N4_20  and  C12_22 
REMARK    7  A    between atoms: C12_22  and  O4_23 
REMARK    8  A    between atoms: C12_22  and  C13_25 
REMARK       I    between atoms: C13_25  and  N5_27 
REMARK    9  A    between atoms: N5_27  and  C14_29 
REMARK   10  A    between atoms: C14_29  and  O6_30 
REMARK   11  A    between atoms: C14_29  and  C15_32 
REMARK   12  A    between atoms: C18_35  and  C19_36 
REMARK   13  A    between atoms: C19_36  and  C20_37 
REMARK       I    between atoms: C20_37  and  N6_39 
REMARK   14  A    between atoms: N6_39  and  N7_41 
ROOT
HETATM    1  C12 UNL     1      47.293   0.532  -2.026  1.00  0.00     0.212 C 
ENDROOT
BRANCH   1   2
HETATM    2  N4  UNL     1      48.226   1.256  -1.314  1.00  0.00    -0.301 N 
HETATM    3  C11 UNL     1      49.529   0.982  -0.911  1.00  0.00     0.245 C 
HETATM    4  O3  UNL     1      50.119  -0.079  -1.138  1.00  0.00    -0.271 OA
ATOM      5  H4  UNL     1      47.895   2.176  -1.025  1.00  0.00     0.171 HD
BRANCH   3   6
HETATM    6  C2  UNL     1      50.317   2.031  -0.139  1.00  0.00     0.166 C 
HETATM    7  C1  UNL     1      49.304   2.745   0.701  1.00  0.00     0.042 C 
BRANCH   6   8
HETATM    8  N1  UNL     1      51.197   2.761  -0.911  1.00  0.00    -0.404 N 
ATOM      9  H1  UNL     1      52.182   2.723  -0.650  1.00  0.00     0.154 HD
BRANCH   8  10
HETATM   10  C3  UNL     1      50.866   3.546  -2.013  1.00  0.00     0.097 C 
HETATM   11  C4  UNL     1      51.332   4.978  -1.819  1.00  0.00     0.034 C 
BRANCH  10  12
HETATM   12  C5  UNL     1      51.545   2.942  -3.257  1.00  0.00     0.129 C 
HETATM   13  C6  UNL     1      52.825   3.652  -3.606  1.00  0.00     0.036 C 
BRANCH  12  14
HETATM   14  N2  UNL     1      50.651   2.819  -4.381  1.00  0.00    -0.248 N 
HETATM   15  N3  UNL     1      50.223   3.844  -5.093  1.00  0.00    -0.306 N 
HETATM   16  C7  UNL     1      49.393   3.757  -6.153  1.00  0.00     0.111 A 
ATOM     17  H3  UNL     1      50.544   4.773  -4.821  1.00  0.00     0.186 HD
HETATM   18  C8  UNL     1      48.917   2.535  -6.579  1.00  0.00     0.079 A 
HETATM   19  C9  UNL     1      49.344   1.421  -5.853  1.00  0.00     0.242 A 
HETATM   20  O1  UNL     1      48.930   0.292  -6.212  1.00  0.00    -0.282 OA
HETATM   21  C10 UNL     1      50.191   1.599  -4.785  1.00  0.00     0.312 A 
HETATM   22  O2  UNL     1      50.560   0.589  -4.152  1.00  0.00    -0.262 OA
ENDBRANCH  12  14
ENDBRANCH  10  12
ENDBRANCH   8  10
ENDBRANCH   6   8
ENDBRANCH   3   6
ENDBRANCH   1   2
BRANCH   1  23
HETATM   23  O4  UNL     1      46.212   1.206  -2.363  1.00  0.00    -0.342 OA
ATOM     24  H4  UNL     1      45.667   1.473  -1.632  1.00  0.00     0.219 HD
ENDBRANCH   1  23
BRANCH   1  25
HETATM   25  C13 UNL     1      47.319  -0.849  -2.463  1.00  0.00     0.294 C 
HETATM   26  O5  UNL     1      46.595  -1.723  -1.972  1.00  0.00    -0.264 OA
HETATM   27  N5  UNL     1      48.233  -1.215  -3.517  1.00  0.00    -0.327 N 
ATOM     28  H5  UNL     1      48.833  -0.504  -3.938  1.00  0.00     0.165 HD
BRANCH  27  29
HETATM   29  C14 UNL     1      48.303  -2.583  -3.981  1.00  0.00     0.229 C 
BRANCH  29  30
HETATM   30  O6  UNL     1      47.237  -2.775  -4.880  1.00  0.00    -0.376 OA
ATOM     31  H6  UNL     1      47.094  -3.712  -4.952  1.00  0.00     0.212 HD
ENDBRANCH  29  30
BRANCH  29  32
HETATM   32  C15 UNL     1      49.589  -2.838  -4.744  1.00  0.00     0.067 A 
HETATM   33  C16 UNL     1      50.868  -2.978  -4.041  1.00  0.00     0.047 A 
HETATM   34  C17 UNL     1      50.257  -4.170  -4.621  1.00  0.00    -0.074 A 
HETATM   35  C18 UNL     1      50.207  -5.467  -4.904  1.00  0.00    -0.014 C 
BRANCH  35  36
HETATM   36  C19 UNL     1      49.097  -6.077  -5.663  1.00  0.00     0.132 C 
BRANCH  36  37
HETATM   37  C20 UNL     1      48.518  -7.201  -4.892  1.00  0.00     0.238 C 
HETATM   38  O7  UNL     1      49.291  -7.947  -4.222  1.00  0.00    -0.272 OA
HETATM   39  N6  UNL     1      47.131  -7.420  -4.914  1.00  0.00    -0.276 N 
ATOM     40  H6  UNL     1      46.516  -6.814  -5.457  1.00  0.00     0.189 HD
BRANCH  39  41
HETATM   41  N7  UNL     1      46.610  -8.493  -4.170  1.00  0.00    -0.343 N 
ATOM     42  H72 UNL     1      46.789  -8.549  -3.168  1.00  0.00     0.176 HD
ATOM     43  H71 UNL     1      46.058  -9.200  -4.657  1.00  0.00     0.176 HD
ENDBRANCH  39  41
ENDBRANCH  36  37
ENDBRANCH  35  36
ENDBRANCH  29  32
ENDBRANCH  27  29
ENDBRANCH   1  25
TORSDOF 14
ENDMDL
