MODEL 1
REMARK VINA RESULT: -6.762344433      0.000      0.000
REMARK  7 active torsions:
REMARK  status: ('A' for Active; 'I' for Inactive)
REMARK    1  A    between atoms: C2_2  and  O2_4 
REMARK    2  A    between atoms: O2_4  and  C3_5 
REMARK    3  A    between atoms: C3_5  and  C6_8 
REMARK    4  A    between atoms: C6_8  and  O4_10 
REMARK    5  A    between atoms: O4_10  and  C7_11 
REMARK    6  A    between atoms: C11_15  and  O5_16 
REMARK    7  A    between atoms: C12_18  and  O6_19 
ROOT
HETATM    1  C7  UNL     1      13.717   5.493  28.676  1.00  0.00     0.163 C 
HETATM    2  C8  UNL     1      14.369   4.753  27.527  1.00  0.00     0.035 C 
HETATM    3  C9  UNL     1      14.370   3.284  27.839  1.00  0.00     0.005 C 
HETATM    4  C10 UNL     1      14.735   3.071  29.286  1.00  0.00     0.034 C 
HETATM    5  C11 UNL     1      15.505   4.238  29.864  1.00  0.00     0.149 C 
HETATM    6  C12 UNL     1      14.729   5.527  29.816  1.00  0.00     0.176 C 
ENDROOT
BRANCH   1   7
HETATM    7  O4  UNL     1      13.387   6.821  28.304  1.00  0.00    -0.311 OA
BRANCH   7   8
HETATM    8  C6  UNL     1      13.972   7.472  27.240  1.00  0.00     0.294 C 
HETATM    9  O3  UNL     1      15.214   7.630  27.202  1.00  0.00    -0.262 OA
BRANCH   8  10
HETATM   10  C3  UNL     1      13.159   8.000  26.117  1.00  0.00     0.150 C 
HETATM   11  C4  UNL     1      11.782   8.316  26.725  1.00  0.00     0.057 C 
HETATM   12  C5  UNL     1      12.926   6.937  25.080  1.00  0.00     0.057 C 
BRANCH  10  13
HETATM   13  O2  UNL     1      13.641   9.200  25.613  1.00  0.00    -0.301 OA
BRANCH  13  14
HETATM   14  C2  UNL     1      13.210   9.861  24.479  1.00  0.00     0.256 C 
HETATM   15  C1  UNL     1      12.090  10.848  24.520  1.00  0.00     0.126 C 
HETATM   16  O1  UNL     1      13.814   9.587  23.407  1.00  0.00    -0.266 OA
ENDBRANCH  13  14
ENDBRANCH  10  13
ENDBRANCH   8  10
ENDBRANCH   7   8
ENDBRANCH   1   7
BRANCH   6  17
HETATM   17  O6  UNL     1      14.092   5.779  31.030  1.00  0.00    -0.390 OA
ATOM     18  H6  UNL     1      14.730   5.887  31.726  1.00  0.00     0.210 HD
ENDBRANCH   6  17
BRANCH   5  19
HETATM   19  O5  UNL     1      15.762   3.936  31.199  1.00  0.00    -0.393 OA
ATOM     20  H5  UNL     1      16.568   4.381  31.434  1.00  0.00     0.210 HD
ENDBRANCH   5  19
TORSDOF 7
ENDMDL
MODEL 2
REMARK VINA RESULT: -6.673491723      2.958      6.813
REMARK  7 active torsions:
REMARK  status: ('A' for Active; 'I' for Inactive)
REMARK    1  A    between atoms: C2_2  and  O2_4 
REMARK    2  A    between atoms: O2_4  and  C3_5 
REMARK    3  A    between atoms: C3_5  and  C6_8 
REMARK    4  A    between atoms: C6_8  and  O4_10 
REMARK    5  A    between atoms: O4_10  and  C7_11 
REMARK    6  A    between atoms: C11_15  and  O5_16 
REMARK    7  A    between atoms: C12_18  and  O6_19 
ROOT
HETATM    1  C7  UNL     1      10.274   9.704  26.623  1.00  0.00     0.163 C 
HETATM    2  C8  UNL     1      10.498  10.159  25.196  1.00  0.00     0.035 C 
HETATM    3  C9  UNL     1      10.471  11.659  25.158  1.00  0.00     0.005 C 
HETATM    4  C10 UNL     1       9.355  12.171  26.034  1.00  0.00     0.034 C 
HETATM    5  C11 UNL     1       8.275  11.135  26.254  1.00  0.00     0.149 C 
HETATM    6  C12 UNL     1       8.790   9.889  26.922  1.00  0.00     0.176 C 
ENDROOT
BRANCH   1   7
HETATM    7  O4  UNL     1      10.616   8.337  26.782  1.00  0.00    -0.311 OA
BRANCH   7   8
HETATM    8  C6  UNL     1      11.661   7.910  27.572  1.00  0.00     0.294 C 
HETATM    9  O3  UNL     1      11.484   7.701  28.794  1.00  0.00    -0.262 OA
BRANCH   8  10
HETATM   10  C3  UNL     1      13.015   7.687  27.007  1.00  0.00     0.150 C 
HETATM   11  C4  UNL     1      13.661   9.081  26.939  1.00  0.00     0.057 C 
HETATM   12  C5  UNL     1      12.927   7.194  25.590  1.00  0.00     0.057 C 
BRANCH  10  13
HETATM   13  O2  UNL     1      13.831   6.925  27.832  1.00  0.00    -0.301 OA
BRANCH  13  14
HETATM   14  C2  UNL     1      14.779   5.999  27.441  1.00  0.00     0.256 C 
HETATM   15  C1  UNL     1      14.490   4.535  27.425  1.00  0.00     0.126 C 
HETATM   16  O1  UNL     1      15.900   6.458  27.097  1.00  0.00    -0.266 OA
ENDBRANCH  13  14
ENDBRANCH  10  13
ENDBRANCH   8  10
ENDBRANCH   7   8
ENDBRANCH   1   7
BRANCH   6  17
HETATM   17  O6  UNL     1       8.568   9.925  28.298  1.00  0.00    -0.390 OA
ATOM     18  H6  UNL     1       8.172  10.750  28.552  1.00  0.00     0.210 HD
ENDBRANCH   6  17
BRANCH   5  19
HETATM   19  O5  UNL     1       7.320  11.712  27.089  1.00  0.00    -0.393 OA
ATOM     20  H5  UNL     1       6.578  11.119  27.114  1.00  0.00     0.210 HD
ENDBRANCH   5  19
TORSDOF 7
ENDMDL
MODEL 3
REMARK VINA RESULT: -6.588836777      1.679      6.647
REMARK  7 active torsions:
REMARK  status: ('A' for Active; 'I' for Inactive)
REMARK    1  A    between atoms: C2_2  and  O2_4 
REMARK    2  A    between atoms: O2_4  and  C3_5 
REMARK    3  A    between atoms: C3_5  and  C6_8 
REMARK    4  A    between atoms: C6_8  and  O4_10 
REMARK    5  A    between atoms: O4_10  and  C7_11 
REMARK    6  A    between atoms: C11_15  and  O5_16 
REMARK    7  A    between atoms: C12_18  and  O6_19 
ROOT
HETATM    1  C7  UNL     1      12.764   8.452  25.893  1.00  0.00     0.163 C 
HETATM    2  C8  UNL     1      11.882   8.916  27.033  1.00  0.00     0.035 C 
HETATM    3  C9  UNL     1      10.542   9.304  26.478  1.00  0.00     0.005 C 
HETATM    4  C10 UNL     1      10.726  10.075  25.196  1.00  0.00     0.034 C 
HETATM    5  C11 UNL     1      12.095  10.711  25.097  1.00  0.00     0.149 C 
HETATM    6  C12 UNL     1      13.210   9.701  25.139  1.00  0.00     0.176 C 
ENDROOT
BRANCH   1   7
HETATM    7  O4  UNL     1      13.907   7.767  26.379  1.00  0.00    -0.311 OA
BRANCH   7   8
HETATM    8  C6  UNL     1      14.024   6.394  26.364  1.00  0.00     0.294 C 
HETATM    9  O3  UNL     1      13.819   5.755  25.307  1.00  0.00    -0.262 OA
BRANCH   8  10
HETATM   10  C3  UNL     1      14.391   5.638  27.586  1.00  0.00     0.150 C 
HETATM   11  C4  UNL     1      13.328   6.015  28.632  1.00  0.00     0.057 C 
HETATM   12  C5  UNL     1      15.707   6.115  28.134  1.00  0.00     0.057 C 
BRANCH  10  13
HETATM   13  O2  UNL     1      14.300   4.263  27.424  1.00  0.00    -0.301 OA
BRANCH  13  14
HETATM   14  C2  UNL     1      14.912   3.291  28.191  1.00  0.00     0.256 C 
HETATM   15  C1  UNL     1      16.140   2.579  27.729  1.00  0.00     0.126 C 
HETATM   16  O1  UNL     1      14.379   3.038  29.304  1.00  0.00    -0.266 OA
ENDBRANCH  13  14
ENDBRANCH  10  13
ENDBRANCH   8  10
ENDBRANCH   7   8
ENDBRANCH   1   7
BRANCH   6  17
HETATM   17  O6  UNL     1      13.640   9.370  23.854  1.00  0.00    -0.390 OA
ATOM     18  H6  UNL     1      14.085  10.107  23.451  1.00  0.00     0.210 HD
ENDBRANCH   6  17
BRANCH   5  19
HETATM   19  O5  UNL     1      12.152  11.370  23.872  1.00  0.00    -0.393 OA
ATOM     20  H5  UNL     1      13.002  11.179  23.492  1.00  0.00     0.210 HD
ENDBRANCH   5  19
TORSDOF 7
ENDMDL
MODEL 4
REMARK VINA RESULT: -6.549373179      2.628      6.480
REMARK  7 active torsions:
REMARK  status: ('A' for Active; 'I' for Inactive)
REMARK    1  A    between atoms: C2_2  and  O2_4 
REMARK    2  A    between atoms: O2_4  and  C3_5 
REMARK    3  A    between atoms: C3_5  and  C6_8 
REMARK    4  A    between atoms: C6_8  and  O4_10 
REMARK    5  A    between atoms: O4_10  and  C7_11 
REMARK    6  A    between atoms: C11_15  and  O5_16 
REMARK    7  A    between atoms: C12_18  and  O6_19 
ROOT
HETATM    1  C7  UNL     1      11.200   9.322  26.738  1.00  0.00     0.163 C 
HETATM    2  C8  UNL     1      11.936   9.341  25.415  1.00  0.00     0.035 C 
HETATM    3  C9  UNL     1      11.918  10.741  24.874  1.00  0.00     0.005 C 
HETATM    4  C10 UNL     1      10.554  11.349  25.081  1.00  0.00     0.034 C 
HETATM    5  C11 UNL     1       9.474  10.302  25.241  1.00  0.00     0.149 C 
HETATM    6  C12 UNL     1       9.711   9.398  26.421  1.00  0.00     0.176 C 
ENDROOT
BRANCH   1   7
HETATM    7  O4  UNL     1      11.465   8.126  27.452  1.00  0.00    -0.311 OA
BRANCH   7   8
HETATM    8  C6  UNL     1      11.814   8.106  28.785  1.00  0.00     0.294 C 
HETATM    9  O3  UNL     1      11.071   8.640  29.640  1.00  0.00    -0.262 OA
BRANCH   8  10
HETATM   10  C3  UNL     1      13.068   7.459  29.245  1.00  0.00     0.150 C 
HETATM   11  C4  UNL     1      12.627   6.400  30.269  1.00  0.00     0.057 C 
HETATM   12  C5  UNL     1      13.928   8.437  29.995  1.00  0.00     0.057 C 
BRANCH  10  13
HETATM   13  O2  UNL     1      13.727   6.769  28.237  1.00  0.00    -0.301 OA
BRANCH  13  14
HETATM   14  C2  UNL     1      14.877   7.156  27.576  1.00  0.00     0.256 C 
HETATM   15  C1  UNL     1      16.148   6.381  27.690  1.00  0.00     0.126 C 
HETATM   16  O1  UNL     1      14.795   8.196  26.871  1.00  0.00    -0.266 OA
ENDBRANCH  13  14
ENDBRANCH  10  13
ENDBRANCH   8  10
ENDBRANCH   7   8
ENDBRANCH   1   7
BRANCH   6  17
HETATM   17  O6  UNL     1       8.992   9.826  27.537  1.00  0.00    -0.390 OA
ATOM     18  H6  UNL     1       8.308   9.204  27.753  1.00  0.00     0.210 HD
ENDBRANCH   6  17
BRANCH   5  19
HETATM   19  O5  UNL     1       8.275  10.980  25.447  1.00  0.00    -0.393 OA
ATOM     20  H5  UNL     1       7.575  10.347  25.337  1.00  0.00     0.210 HD
ENDBRANCH   5  19
TORSDOF 7
ENDMDL
MODEL 5
REMARK VINA RESULT: -6.537557426      1.513      6.350
REMARK  7 active torsions:
REMARK  status: ('A' for Active; 'I' for Inactive)
REMARK    1  A    between atoms: C2_2  and  O2_4 
REMARK    2  A    between atoms: O2_4  and  C3_5 
REMARK    3  A    between atoms: C3_5  and  C6_8 
REMARK    4  A    between atoms: C6_8  and  O4_10 
REMARK    5  A    between atoms: O4_10  and  C7_11 
REMARK    6  A    between atoms: C11_15  and  O5_16 
REMARK    7  A    between atoms: C12_18  and  O6_19 
ROOT
HETATM    1  C7  UNL     1      12.816   8.569  25.829  1.00  0.00     0.163 C 
HETATM    2  C8  UNL     1      11.927   9.000  26.977  1.00  0.00     0.035 C 
HETATM    3  C9  UNL     1      10.564   9.321  26.436  1.00  0.00     0.005 C 
HETATM    4  C10 UNL     1      10.696  10.089  25.145  1.00  0.00     0.034 C 
HETATM    5  C11 UNL     1      12.033  10.786  25.024  1.00  0.00     0.149 C 
HETATM    6  C12 UNL     1      13.194   9.829  25.059  1.00  0.00     0.176 C 
ENDROOT
BRANCH   1   7
HETATM    7  O4  UNL     1      13.995   7.941  26.306  1.00  0.00    -0.311 OA
BRANCH   7   8
HETATM    8  C6  UNL     1      14.122   6.575  26.434  1.00  0.00     0.294 C 
HETATM    9  O3  UNL     1      13.936   5.829  25.445  1.00  0.00    -0.262 OA
BRANCH   8  10
HETATM   10  C3  UNL     1      14.477   5.951  27.732  1.00  0.00     0.150 C 
HETATM   11  C4  UNL     1      16.014   5.959  27.779  1.00  0.00     0.057 C 
HETATM   12  C5  UNL     1      14.063   4.507  27.761  1.00  0.00     0.057 C 
BRANCH  10  13
HETATM   13  O2  UNL     1      14.055   6.693  28.827  1.00  0.00    -0.301 OA
BRANCH  13  14
HETATM   14  C2  UNL     1      13.129   6.316  29.781  1.00  0.00     0.256 C 
HETATM   15  C1  UNL     1      11.673   6.606  29.624  1.00  0.00     0.126 C 
HETATM   16  O1  UNL     1      13.580   5.714  30.791  1.00  0.00    -0.266 OA
ENDBRANCH  13  14
ENDBRANCH  10  13
ENDBRANCH   8  10
ENDBRANCH   7   8
ENDBRANCH   1   7
BRANCH   6  17
HETATM   17  O6  UNL     1      13.623   9.508  23.772  1.00  0.00    -0.390 OA
ATOM     18  H6  UNL     1      14.479   9.098  23.798  1.00  0.00     0.210 HD
ENDBRANCH   6  17
BRANCH   5  19
HETATM   19  O5  UNL     1      12.043  11.437  23.792  1.00  0.00    -0.393 OA
ATOM     20  H5  UNL     1      12.954  11.561  23.551  1.00  0.00     0.210 HD
ENDBRANCH   5  19
TORSDOF 7
ENDMDL
