MODEL 1
REMARK VINA RESULT: -6.611781944      0.000      0.000
REMARK  5 active torsions:
REMARK  status: ('A' for Active; 'I' for Inactive)
REMARK    1  A    between atoms: C2_2  and  O1_3 
REMARK    2  A    between atoms: C2_2  and  C11_18 
REMARK    3  A    between atoms: O1_3  and  C3_4 
REMARK    4  A    between atoms: C7_8  and  O2_9 
REMARK    5  A    between atoms: C8_11  and  O3_12 
ROOT
HETATM    1  C3  UNL     1      13.892   9.295  27.356  1.00  0.00     0.146 C 
HETATM    2  C4  UNL     1      14.225   8.422  28.261  1.00  0.00    -0.046 C 
HETATM    3  C5  UNL     1      14.329   8.904  29.685  1.00  0.00     0.039 C 
HETATM    4  C6  UNL     1      13.577   8.002  30.601  1.00  0.00     0.041 C 
HETATM    5  C7  UNL     1      13.902   6.523  30.342  1.00  0.00     0.184 C 
HETATM    6  C8  UNL     1      13.506   6.254  28.951  1.00  0.00     0.231 C 
HETATM    7  O4  UNL     1      13.686   5.012  28.440  1.00  0.00    -0.197 OA
HETATM    8  O5  UNL     1      13.969   5.046  27.181  1.00  0.00    -0.237 OA
HETATM    9  C9  UNL     1      14.088   6.387  26.777  1.00  0.00     0.225 C 
HETATM   10  C10 UNL     1      14.517   7.015  28.064  1.00  0.00     0.111 C 
ENDROOT
BRANCH   1  11
HETATM   11  O1  UNL     1      13.770   8.950  26.010  1.00  0.00    -0.316 OA
BRANCH  11  12
HETATM   12  C2  UNL     1      12.742   9.441  25.231  1.00  0.00     0.141 C 
HETATM   13  C1  UNL     1      11.505   9.205  25.640  1.00  0.00     0.058 C 
BRANCH  12  14
HETATM   14  C11 UNL     1      13.024  10.179  24.022  1.00  0.00     0.233 C 
HETATM   15  O6  UNL     1      12.471  11.280  23.835  1.00  0.00    -0.642 OA
HETATM   16  O7  UNL     1      13.894   9.669  23.089  1.00  0.00    -0.642 OA
ENDBRANCH  12  14
ENDBRANCH  11  12
ENDBRANCH   1  11
BRANCH   6  17
HETATM   17  O3  UNL     1      12.215   6.685  28.651  1.00  0.00    -0.361 OA
ATOM     18  H3  UNL     1      11.577   5.982  28.638  1.00  0.00     0.213 HD
ENDBRANCH   6  17
BRANCH   5  19
HETATM   19  O2  UNL     1      13.062   5.805  31.201  1.00  0.00    -0.390 OA
ATOM     20  H2  UNL     1      12.706   5.100  30.671  1.00  0.00     0.210 HD
ENDBRANCH   5  19
TORSDOF 5
ENDMDL
MODEL 2
REMARK VINA RESULT: -6.553263239      2.634      5.462
REMARK  5 active torsions:
REMARK  status: ('A' for Active; 'I' for Inactive)
REMARK    1  A    between atoms: C2_2  and  O1_3 
REMARK    2  A    between atoms: C2_2  and  C11_18 
REMARK    3  A    between atoms: O1_3  and  C3_4 
REMARK    4  A    between atoms: C7_8  and  O2_9 
REMARK    5  A    between atoms: C8_11  and  O3_12 
ROOT
HETATM    1  C3  UNL     1      14.424   5.863  26.874  1.00  0.00     0.146 C 
HETATM    2  C4  UNL     1      13.782   6.983  27.026  1.00  0.00    -0.046 C 
HETATM    3  C5  UNL     1      12.906   7.440  25.888  1.00  0.00     0.039 C 
HETATM    4  C6  UNL     1      11.553   7.816  26.384  1.00  0.00     0.041 C 
HETATM    5  C7  UNL     1      11.629   8.733  27.614  1.00  0.00     0.184 C 
HETATM    6  C8  UNL     1      12.339   7.969  28.652  1.00  0.00     0.231 C 
HETATM    7  O4  UNL     1      12.559   8.540  29.861  1.00  0.00    -0.197 OA
HETATM    8  O5  UNL     1      13.674   8.149  30.381  1.00  0.00    -0.237 OA
HETATM    9  C9  UNL     1      14.340   7.320  29.462  1.00  0.00     0.225 C 
HETATM   10  C10 UNL     1      13.807   7.865  28.176  1.00  0.00     0.111 C 
ENDROOT
BRANCH   1  11
HETATM   11  O1  UNL     1      15.261   5.353  27.868  1.00  0.00    -0.316 OA
BRANCH  11  12
HETATM   12  C2  UNL     1      15.342   3.998  28.116  1.00  0.00     0.141 C 
HETATM   13  C1  UNL     1      14.208   3.315  28.128  1.00  0.00     0.058 C 
BRANCH  12  14
HETATM   14  C11 UNL     1      16.621   3.369  28.351  1.00  0.00     0.233 C 
HETATM   15  O6  UNL     1      16.657   2.191  28.756  1.00  0.00    -0.642 OA
HETATM   16  O7  UNL     1      17.783   4.066  28.130  1.00  0.00    -0.642 OA
ENDBRANCH  12  14
ENDBRANCH  11  12
ENDBRANCH   1  11
BRANCH   6  17
HETATM   17  O3  UNL     1      11.827   6.687  28.842  1.00  0.00    -0.361 OA
ATOM     18  H3  UNL     1      10.879   6.649  28.786  1.00  0.00     0.213 HD
ENDBRANCH   6  17
BRANCH   5  19
HETATM   19  O2  UNL     1      10.302   8.921  28.018  1.00  0.00    -0.390 OA
ATOM     20  H2  UNL     1       9.961   9.600  27.447  1.00  0.00     0.210 HD
ENDBRANCH   5  19
TORSDOF 5
ENDMDL
MODEL 3
REMARK VINA RESULT: -6.551173790      2.368      3.113
REMARK  5 active torsions:
REMARK  status: ('A' for Active; 'I' for Inactive)
REMARK    1  A    between atoms: C2_2  and  O1_3 
REMARK    2  A    between atoms: C2_2  and  C11_18 
REMARK    3  A    between atoms: O1_3  and  C3_4 
REMARK    4  A    between atoms: C7_8  and  O2_9 
REMARK    5  A    between atoms: C8_11  and  O3_12 
ROOT
HETATM    1  C3  UNL     1      11.739   8.976  27.672  1.00  0.00     0.146 C 
HETATM    2  C4  UNL     1      12.971   8.571  27.585  1.00  0.00    -0.046 C 
HETATM    3  C5  UNL     1      13.866   8.810  28.774  1.00  0.00     0.039 C 
HETATM    4  C6  UNL     1      14.590   7.563  29.145  1.00  0.00     0.041 C 
HETATM    5  C7  UNL     1      15.225   6.884  27.923  1.00  0.00     0.184 C 
HETATM    6  C8  UNL     1      14.116   6.557  27.013  1.00  0.00     0.231 C 
HETATM    7  O4  UNL     1      14.385   5.947  25.834  1.00  0.00    -0.197 OA
HETATM    8  O5  UNL     1      13.569   6.316  24.904  1.00  0.00    -0.237 OA
HETATM    9  C9  UNL     1      12.718   7.312  25.414  1.00  0.00     0.225 C 
HETATM   10  C10 UNL     1      13.604   7.907  26.461  1.00  0.00     0.111 C 
ENDROOT
BRANCH   1  11
HETATM   11  O1  UNL     1      10.831   8.803  26.627  1.00  0.00    -0.316 OA
BRANCH  11  12
HETATM   12  C2  UNL     1      10.269   9.882  25.974  1.00  0.00     0.141 C 
HETATM   13  C1  UNL     1      11.062  10.596  25.190  1.00  0.00     0.058 C 
BRANCH  12  14
HETATM   14  C11 UNL     1       8.872  10.203  26.151  1.00  0.00     0.233 C 
HETATM   15  O6  UNL     1       8.279  10.857  25.272  1.00  0.00    -0.642 OA
HETATM   16  O7  UNL     1       8.208   9.789  27.280  1.00  0.00    -0.642 OA
ENDBRANCH  12  14
ENDBRANCH  11  12
ENDBRANCH   1  11
BRANCH   6  17
HETATM   17  O3  UNL     1      13.066   5.888  27.640  1.00  0.00    -0.361 OA
ATOM     18  H3  UNL     1      13.325   5.060  28.026  1.00  0.00     0.213 HD
ENDBRANCH   6  17
BRANCH   5  19
HETATM   19  O2  UNL     1      15.781   5.694  28.408  1.00  0.00    -0.390 OA
ATOM     20  H2  UNL     1      15.272   5.477  29.180  1.00  0.00     0.210 HD
ENDBRANCH   5  19
TORSDOF 5
ENDMDL
MODEL 4
REMARK VINA RESULT: -6.530233597      0.916      1.456
REMARK  5 active torsions:
REMARK  status: ('A' for Active; 'I' for Inactive)
REMARK    1  A    between atoms: C2_2  and  O1_3 
REMARK    2  A    between atoms: C2_2  and  C11_18 
REMARK    3  A    between atoms: O1_3  and  C3_4 
REMARK    4  A    between atoms: C7_8  and  O2_9 
REMARK    5  A    between atoms: C8_11  and  O3_12 
ROOT
HETATM    1  C3  UNL     1      13.976   9.261  27.352  1.00  0.00     0.146 C 
HETATM    2  C4  UNL     1      14.271   8.389  28.270  1.00  0.00    -0.046 C 
HETATM    3  C5  UNL     1      14.355   8.879  29.693  1.00  0.00     0.039 C 
HETATM    4  C6  UNL     1      13.565   8.000  30.599  1.00  0.00     0.041 C 
HETATM    5  C7  UNL     1      13.864   6.512  30.357  1.00  0.00     0.184 C 
HETATM    6  C8  UNL     1      13.492   6.241  28.959  1.00  0.00     0.231 C 
HETATM    7  O4  UNL     1      13.657   4.992  28.462  1.00  0.00    -0.197 OA
HETATM    8  O5  UNL     1      13.967   5.011  27.208  1.00  0.00    -0.237 OA
HETATM    9  C9  UNL     1      14.122   6.346  26.798  1.00  0.00     0.225 C 
HETATM   10  C10 UNL     1      14.538   6.975  28.089  1.00  0.00     0.111 C 
ENDROOT
BRANCH   1  11
HETATM   11  O1  UNL     1      13.875   8.909  26.006  1.00  0.00    -0.316 OA
BRANCH  11  12
HETATM   12  C2  UNL     1      12.902   9.451  25.191  1.00  0.00     0.141 C 
HETATM   13  C1  UNL     1      13.301  10.011  24.060  1.00  0.00     0.058 C 
BRANCH  12  14
HETATM   14  C11 UNL     1      11.510   9.398  25.573  1.00  0.00     0.233 C 
HETATM   15  O6  UNL     1      10.727  10.272  25.153  1.00  0.00    -0.642 OA
HETATM   16  O7  UNL     1      11.058   8.393  26.392  1.00  0.00    -0.642 OA
ENDBRANCH  12  14
ENDBRANCH  11  12
ENDBRANCH   1  11
BRANCH   6  17
HETATM   17  O3  UNL     1      12.218   6.697  28.629  1.00  0.00    -0.361 OA
ATOM     18  H3  UNL     1      11.588   5.997  28.506  1.00  0.00     0.213 HD
ENDBRANCH   6  17
BRANCH   5  19
HETATM   19  O2  UNL     1      12.992   5.818  31.202  1.00  0.00    -0.390 OA
ATOM     20  H2  UNL     1      12.590   6.483  31.749  1.00  0.00     0.210 HD
ENDBRANCH   5  19
TORSDOF 5
ENDMDL
MODEL 5
REMARK VINA RESULT: -6.450308290      2.494      6.132
REMARK  5 active torsions:
REMARK  status: ('A' for Active; 'I' for Inactive)
REMARK    1  A    between atoms: C2_2  and  O1_3 
REMARK    2  A    between atoms: C2_2  and  C11_18 
REMARK    3  A    between atoms: O1_3  and  C3_4 
REMARK    4  A    between atoms: C7_8  and  O2_9 
REMARK    5  A    between atoms: C8_11  and  O3_12 
ROOT
HETATM    1  C3  UNL     1      14.079   4.742  27.549  1.00  0.00     0.146 C 
HETATM    2  C4  UNL     1      14.159   5.940  27.051  1.00  0.00    -0.046 C 
HETATM    3  C5  UNL     1      13.669   6.139  25.639  1.00  0.00     0.039 C 
HETATM    4  C6  UNL     1      12.748   7.307  25.562  1.00  0.00     0.041 C 
HETATM    5  C7  UNL     1      13.325   8.538  26.278  1.00  0.00     0.184 C 
HETATM    6  C8  UNL     1      13.507   8.147  27.685  1.00  0.00     0.231 C 
HETATM    7  O4  UNL     1      14.013   9.047  28.562  1.00  0.00    -0.197 OA
HETATM    8  O5  UNL     1      14.735   8.479  29.470  1.00  0.00    -0.237 OA
HETATM    9  C9  UNL     1      14.829   7.106  29.184  1.00  0.00     0.225 C 
HETATM   10  C10 UNL     1      14.673   7.132  27.698  1.00  0.00     0.111 C 
ENDROOT
BRANCH   1  11
HETATM   11  O1  UNL     1      14.506   4.453  28.845  1.00  0.00    -0.316 OA
BRANCH  11  12
HETATM   12  C2  UNL     1      15.440   3.468  29.094  1.00  0.00     0.141 C 
HETATM   13  C1  UNL     1      15.810   2.712  28.072  1.00  0.00     0.058 C 
BRANCH  12  14
HETATM   14  C11 UNL     1      15.981   3.286  30.421  1.00  0.00     0.233 C 
HETATM   15  O6  UNL     1      15.648   4.071  31.330  1.00  0.00    -0.642 OA
HETATM   16  O7  UNL     1      16.854   2.256  30.674  1.00  0.00    -0.642 OA
ENDBRANCH  12  14
ENDBRANCH  11  12
ENDBRANCH   1  11
BRANCH   6  17
HETATM   17  O3  UNL     1      12.376   7.555  28.244  1.00  0.00    -0.361 OA
ATOM     18  H3  UNL     1      12.525   7.208  29.115  1.00  0.00     0.213 HD
ENDBRANCH   6  17
BRANCH   5  19
HETATM   19  O2  UNL     1      12.322   9.512  26.204  1.00  0.00    -0.390 OA
ATOM     20  H2  UNL     1      12.721  10.308  26.536  1.00  0.00     0.210 HD
ENDBRANCH   5  19
TORSDOF 5
ENDMDL
