MODEL 1
REMARK VINA RESULT: -6.003806277      0.000      0.000
REMARK  5 active torsions:
REMARK  status: ('A' for Active; 'I' for Inactive)
REMARK    1  A    between atoms: S1_2  and  C2_3 
REMARK    2  A    between atoms: C2_3  and  C3_4 
REMARK    3  A    between atoms: N3_10  and  C5_12 
REMARK    4  A    between atoms: C8_15  and  O1_16 
REMARK    5  A    between atoms: C9_18  and  O2_19 
ROOT
HETATM    1  C3  UNL     1      13.277   6.661  28.654  1.00  0.00     0.079 A 
HETATM    2  N1  UNL     1      13.455   6.117  27.459  1.00  0.00    -0.295 N 
ATOM      3  H1  UNL     1      13.992   5.253  27.370  1.00  0.00     0.187 HD
HETATM    4  N2  UNL     1      12.963   6.659  26.427  1.00  0.00    -0.279 N 
ATOM      5  H2  UNL     1      13.099   6.241  25.508  1.00  0.00     0.189 HD
HETATM    6  C4  UNL     1      12.264   7.789  26.563  1.00  0.00     0.161 A 
HETATM    7  N3  UNL     1      11.672   8.514  25.645  1.00  0.00    -0.362 N 
ATOM      8  H3  UNL     1      11.700   8.251  24.660  1.00  0.00     0.162 HD
HETATM    9  S2  UNL     1      12.339   8.047  28.250  1.00  0.00    -0.037 SA
ENDROOT
BRANCH   7  10
HETATM   10  C5  UNL     1      10.979   9.701  26.086  1.00  0.00     0.115 C 
HETATM   11  C6  UNL     1      11.042  10.828  25.090  1.00  0.00     0.030 C 
HETATM   12  C7  UNL     1       9.854  11.682  25.550  1.00  0.00     0.036 C 
HETATM   13  C8  UNL     1       8.776  10.616  25.643  1.00  0.00     0.149 C 
HETATM   14  C9  UNL     1       9.529   9.454  26.285  1.00  0.00     0.169 C 
BRANCH  13  15
HETATM   15  O1  UNL     1       8.398  10.282  24.353  1.00  0.00    -0.393 OA
ATOM     16  H1  UNL     1       8.005  11.051  23.956  1.00  0.00     0.210 HD
ENDBRANCH  13  15
BRANCH  14  17
HETATM   17  O2  UNL     1       9.233   9.455  27.662  1.00  0.00    -0.391 OA
ATOM     18  H2  UNL     1       8.380   9.847  27.805  1.00  0.00     0.210 HD
ENDBRANCH  14  17
ENDBRANCH   7  10
BRANCH   1  19
HETATM   19  C2  UNL     1      13.770   6.185  29.995  1.00  0.00     0.139 C 
BRANCH  19  20
HETATM   20  S1  UNL     1      12.444   6.649  31.175  1.00  0.00    -0.167 SA
HETATM   21  C1  UNL     1      12.896   8.135  32.099  1.00  0.00     0.090 C 
ENDBRANCH  19  20
ENDBRANCH   1  19
TORSDOF 5
ENDMDL
MODEL 2
REMARK VINA RESULT: -5.992153230      1.317      1.737
REMARK  5 active torsions:
REMARK  status: ('A' for Active; 'I' for Inactive)
REMARK    1  A    between atoms: S1_2  and  C2_3 
REMARK    2  A    between atoms: C2_3  and  C3_4 
REMARK    3  A    between atoms: N3_10  and  C5_12 
REMARK    4  A    between atoms: C8_15  and  O1_16 
REMARK    5  A    between atoms: C9_18  and  O2_19 
ROOT
HETATM    1  C3  UNL     1      13.541   6.496  28.272  1.00  0.00     0.079 A 
HETATM    2  N1  UNL     1      13.623   5.997  27.047  1.00  0.00    -0.295 N 
ATOM      3  H1  UNL     1      14.142   5.133  26.886  1.00  0.00     0.187 HD
HETATM    4  N2  UNL     1      13.061   6.583  26.077  1.00  0.00    -0.279 N 
ATOM      5  H2  UNL     1      13.123   6.199  25.134  1.00  0.00     0.189 HD
HETATM    6  C4  UNL     1      12.386   7.711  26.307  1.00  0.00     0.161 A 
HETATM    7  N3  UNL     1      11.734   8.476  25.465  1.00  0.00    -0.362 N 
ATOM      8  H3  UNL     1      11.686   8.251  24.471  1.00  0.00     0.162 HD
HETATM    9  S2  UNL     1      12.590   7.903  27.993  1.00  0.00    -0.037 SA
ENDROOT
BRANCH   7  10
HETATM   10  C5  UNL     1      11.089   9.651  26.001  1.00  0.00     0.115 C 
HETATM   11  C6  UNL     1      11.098  10.817  25.049  1.00  0.00     0.030 C 
HETATM   12  C7  UNL     1       9.955  11.663  25.626  1.00  0.00     0.036 C 
HETATM   13  C8  UNL     1       8.873  10.605  25.750  1.00  0.00     0.149 C 
HETATM   14  C9  UNL     1       9.653   9.410  26.291  1.00  0.00     0.169 C 
BRANCH  13  15
HETATM   15  O1  UNL     1       8.402  10.329  24.477  1.00  0.00    -0.393 OA
ATOM     16  H1  UNL     1       9.069   9.829  24.022  1.00  0.00     0.210 HD
ENDBRANCH  13  15
BRANCH  14  17
HETATM   17  O2  UNL     1       9.454   9.357  27.684  1.00  0.00    -0.391 OA
ATOM     18  H2  UNL     1       8.595   8.996  27.870  1.00  0.00     0.210 HD
ENDBRANCH  14  17
ENDBRANCH   7  10
BRANCH   1  19
HETATM   19  C2  UNL     1      14.127   5.966  29.554  1.00  0.00     0.139 C 
BRANCH  19  20
HETATM   20  S1  UNL     1      14.876   4.354  29.098  1.00  0.00    -0.167 SA
HETATM   21  C1  UNL     1      15.942   3.743  30.423  1.00  0.00     0.090 C 
ENDBRANCH  19  20
ENDBRANCH   1  19
TORSDOF 5
ENDMDL
MODEL 3
REMARK VINA RESULT: -5.835778707      4.460      7.415
REMARK  5 active torsions:
REMARK  status: ('A' for Active; 'I' for Inactive)
REMARK    1  A    between atoms: S1_2  and  C2_3 
REMARK    2  A    between atoms: C2_3  and  C3_4 
REMARK    3  A    between atoms: N3_10  and  C5_12 
REMARK    4  A    between atoms: C8_15  and  O1_16 
REMARK    5  A    between atoms: C9_18  and  O2_19 
ROOT
HETATM    1  C3  UNL     1      12.859   8.186  25.952  1.00  0.00     0.079 A 
HETATM    2  N1  UNL     1      12.688   7.174  25.116  1.00  0.00    -0.295 N 
ATOM      3  H1  UNL     1      12.108   7.296  24.285  1.00  0.00     0.187 HD
HETATM    4  N2  UNL     1      13.238   6.056  25.339  1.00  0.00    -0.279 N 
ATOM      5  H2  UNL     1      13.107   5.277  24.695  1.00  0.00     0.189 HD
HETATM    6  C4  UNL     1      13.993   5.915  26.431  1.00  0.00     0.161 A 
HETATM    7  N3  UNL     1      14.651   4.863  26.856  1.00  0.00    -0.362 N 
ATOM      8  H3  UNL     1      14.637   3.984  26.339  1.00  0.00     0.162 HD
HETATM    9  S2  UNL     1      13.883   7.468  27.136  1.00  0.00    -0.037 SA
ENDROOT
BRANCH   7  10
HETATM   10  C5  UNL     1      15.393   5.000  28.086  1.00  0.00     0.115 C 
HETATM   11  C6  UNL     1      14.511   5.108  29.301  1.00  0.00     0.030 C 
HETATM   12  C7  UNL     1      15.500   4.715  30.407  1.00  0.00     0.036 C 
HETATM   13  C8  UNL     1      16.073   3.439  29.815  1.00  0.00     0.149 C 
HETATM   14  C9  UNL     1      16.254   3.820  28.347  1.00  0.00     0.169 C 
BRANCH  13  15
HETATM   15  O1  UNL     1      15.112   2.448  29.933  1.00  0.00    -0.393 OA
ATOM     16  H1  UNL     1      14.314   2.767  29.529  1.00  0.00     0.210 HD
ENDBRANCH  13  15
BRANCH  14  17
HETATM   17  O2  UNL     1      17.605   4.167  28.154  1.00  0.00    -0.391 OA
ATOM     18  H2  UNL     1      17.960   4.527  28.958  1.00  0.00     0.210 HD
ENDBRANCH  14  17
ENDBRANCH   7  10
BRANCH   1  19
HETATM   19  C2  UNL     1      12.303   9.583  25.877  1.00  0.00     0.139 C 
BRANCH  19  20
HETATM   20  S1  UNL     1      13.030  10.299  24.353  1.00  0.00    -0.167 SA
HETATM   21  C1  UNL     1      11.883  11.462  23.579  1.00  0.00     0.090 C 
ENDBRANCH  19  20
ENDBRANCH   1  19
TORSDOF 5
ENDMDL
MODEL 4
REMARK VINA RESULT: -5.756472880      3.539      6.832
REMARK  5 active torsions:
REMARK  status: ('A' for Active; 'I' for Inactive)
REMARK    1  A    between atoms: S1_2  and  C2_3 
REMARK    2  A    between atoms: C2_3  and  C3_4 
REMARK    3  A    between atoms: N3_10  and  C5_12 
REMARK    4  A    between atoms: C8_15  and  O1_16 
REMARK    5  A    between atoms: C9_18  and  O2_19 
ROOT
HETATM    1  C3  UNL     1      11.549   9.002  26.403  1.00  0.00     0.079 A 
HETATM    2  N1  UNL     1      10.593   8.527  27.188  1.00  0.00    -0.295 N 
ATOM      3  H1  UNL     1       9.655   8.926  27.141  1.00  0.00     0.187 HD
HETATM    4  N2  UNL     1      10.834   7.582  27.994  1.00  0.00    -0.279 N 
ATOM      5  H2  UNL     1      10.099   7.216  28.598  1.00  0.00     0.189 HD
HETATM    6  C4  UNL     1      12.067   7.072  28.040  1.00  0.00     0.161 A 
HETATM    7  N3  UNL     1      12.538   6.103  28.788  1.00  0.00    -0.362 N 
ATOM      8  H3  UNL     1      11.945   5.614  29.458  1.00  0.00     0.162 HD
HETATM    9  S2  UNL     1      12.880   8.013  26.868  1.00  0.00    -0.037 SA
ENDROOT
BRANCH   7  10
HETATM   10  C5  UNL     1      13.930   5.758  28.624  1.00  0.00     0.115 C 
HETATM   11  C6  UNL     1      14.633   5.497  29.929  1.00  0.00     0.030 C 
HETATM   12  C7  UNL     1      15.839   4.683  29.445  1.00  0.00     0.036 C 
HETATM   13  C8  UNL     1      15.139   3.655  28.574  1.00  0.00     0.149 C 
HETATM   14  C9  UNL     1      14.102   4.506  27.845  1.00  0.00     0.169 C 
BRANCH  13  15
HETATM   15  O1  UNL     1      14.507   2.750  29.410  1.00  0.00    -0.393 OA
ATOM     16  H1  UNL     1      13.872   2.269  28.892  1.00  0.00     0.210 HD
ENDBRANCH  13  15
BRANCH  14  17
HETATM   17  O2  UNL     1      14.611   4.809  26.568  1.00  0.00    -0.391 OA
ATOM     18  H2  UNL     1      13.926   4.705  25.918  1.00  0.00     0.210 HD
ENDBRANCH  14  17
ENDBRANCH   7  10
BRANCH   1  19
HETATM   19  C2  UNL     1      11.478  10.108  25.384  1.00  0.00     0.139 C 
BRANCH  19  20
HETATM   20  S1  UNL     1      13.224  10.452  24.940  1.00  0.00    -0.167 SA
HETATM   21  C1  UNL     1      13.573   9.919  23.248  1.00  0.00     0.090 C 
ENDBRANCH  19  20
ENDBRANCH   1  19
TORSDOF 5
ENDMDL
MODEL 5
REMARK VINA RESULT: -5.675231299      3.517      6.439
REMARK  5 active torsions:
REMARK  status: ('A' for Active; 'I' for Inactive)
REMARK    1  A    between atoms: S1_2  and  C2_3 
REMARK    2  A    between atoms: C2_3  and  C3_4 
REMARK    3  A    between atoms: N3_10  and  C5_12 
REMARK    4  A    between atoms: C8_15  and  O1_16 
REMARK    5  A    between atoms: C9_18  and  O2_19 
ROOT
HETATM    1  C3  UNL     1      10.519   9.692  26.109  1.00  0.00     0.079 A 
HETATM    2  N1  UNL     1       9.916   9.009  27.070  1.00  0.00    -0.295 N 
ATOM      3  H1  UNL     1       8.939   9.203  27.293  1.00  0.00     0.187 HD
HETATM    4  N2  UNL     1      10.541   8.118  27.714  1.00  0.00    -0.279 N 
ATOM      5  H2  UNL     1      10.078   7.591  28.454  1.00  0.00     0.189 HD
HETATM    6  C4  UNL     1      11.819   7.878  27.409  1.00  0.00     0.161 A 
HETATM    7  N3  UNL     1      12.651   7.013  27.937  1.00  0.00    -0.362 N 
ATOM      8  H3  UNL     1      12.363   6.394  28.696  1.00  0.00     0.162 HD
HETATM    9  S2  UNL     1      12.093   8.995  26.146  1.00  0.00    -0.037 SA
ENDROOT
BRANCH   7  10
HETATM   10  C5  UNL     1      13.991   6.972  27.402  1.00  0.00     0.115 C 
HETATM   11  C6  UNL     1      15.043   7.345  28.411  1.00  0.00     0.030 C 
HETATM   12  C7  UNL     1      16.289   6.724  27.766  1.00  0.00     0.036 C 
HETATM   13  C8  UNL     1      15.772   5.327  27.472  1.00  0.00     0.149 C 
HETATM   14  C9  UNL     1      14.365   5.608  26.951  1.00  0.00     0.169 C 
BRANCH  13  15
HETATM   15  O1  UNL     1      15.706   4.638  28.672  1.00  0.00    -0.393 OA
ATOM     16  H1  UNL     1      14.859   4.208  28.714  1.00  0.00     0.210 HD
ENDBRANCH  13  15
BRANCH  14  17
HETATM   17  O2  UNL     1      14.409   5.570  25.544  1.00  0.00    -0.391 OA
ATOM     18  H2  UNL     1      13.946   6.319  25.189  1.00  0.00     0.210 HD
ENDBRANCH  14  17
ENDBRANCH   7  10
BRANCH   1  19
HETATM   19  C2  UNL     1       9.966  10.782  25.229  1.00  0.00     0.139 C 
BRANCH  19  20
HETATM   20  S1  UNL     1       8.540  11.461  26.161  1.00  0.00    -0.167 SA
HETATM   21  C1  UNL     1       8.741  13.236  26.442  1.00  0.00     0.090 C 
ENDBRANCH  19  20
ENDBRANCH   1  19
TORSDOF 5
ENDMDL
