MODEL 1
REMARK VINA RESULT: -6.504791247      0.000      0.000
REMARK  4 active torsions:
REMARK  status: ('A' for Active; 'I' for Inactive)
REMARK    1  A    between atoms: C2_2  and  O1_3 
REMARK    2  A    between atoms: C2_2  and  C3_5 
REMARK    3  A    between atoms: N1_7  and  O2_9 
REMARK    4  A    between atoms: O2_9  and  C5_10 
ROOT
HETATM    1  C5  UNL     1      19.087   6.381  26.864  1.00  0.00     0.169 C 
HETATM    2  C6  UNL     1      19.617   6.659  25.492  1.00  0.00     0.065 C 
HETATM    3  C7  UNL     1      19.984   7.101  27.874  1.00  0.00     0.065 C 
HETATM    4  C8  UNL     1      19.214   4.949  27.174  1.00  0.00     0.099 C 
HETATM    5  N2  UNL     1      19.315   3.815  27.421  1.00  0.00    -0.194 NA
ENDROOT
BRANCH   1   6
HETATM    6  O2  UNL     1      17.754   6.737  27.055  1.00  0.00    -0.255 OA
BRANCH   6   7
HETATM    7  N1  UNL     1      16.701   5.897  27.194  1.00  0.00    -0.268 N 
HETATM    8  C4  UNL     1      15.654   6.293  27.804  1.00  0.00     0.067 C 
HETATM    9  C3  UNL     1      14.436   5.481  28.025  1.00  0.00     0.096 C 
HETATM   10  C9  UNL     1      15.355   7.602  28.438  1.00  0.00     0.271 C 
HETATM   11  C12 UNL     1      13.588   6.405  28.907  1.00  0.00     0.143 C 
HETATM   12  C11 UNL     1      12.583   7.182  28.122  1.00  0.00     0.108 C 
HETATM   13  O3  UNL     1      14.518   7.246  29.505  1.00  0.00    -0.355 OA
HETATM   14  C10 UNL     1      13.295   8.059  27.149  1.00  0.00     0.075 C 
HETATM   15  N3  UNL     1      14.641   8.377  27.448  1.00  0.00    -0.349 N 
HETATM   16  N4  UNL     1      12.691   8.495  26.090  1.00  0.00    -0.389 N 
ATOM     17  H3  UNL     1      15.105   9.148  26.968  1.00  0.00     0.163 HD
ATOM     18  H42 UNL     1      13.179   9.095  25.425  1.00  0.00     0.157 HD
ATOM     19  H41 UNL     1      11.721   8.266  25.875  1.00  0.00     0.157 HD
ATOM     20  H1  UNL     1      16.745   4.952  26.811  1.00  0.00     0.194 HD
BRANCH   9  21
HETATM   21  C2  UNL     1      14.719   4.252  28.865  1.00  0.00     0.126 C 
HETATM   22  C1  UNL     1      14.573   2.972  28.113  1.00  0.00     0.040 C 
BRANCH  21  23
HETATM   23  O1  UNL     1      15.972   4.411  29.455  1.00  0.00    -0.395 OA
ATOM     24  H1  UNL     1      16.332   5.283  29.351  1.00  0.00     0.210 HD
ENDBRANCH  21  23
ENDBRANCH   9  21
ENDBRANCH   6   7
ENDBRANCH   1   6
TORSDOF 4
ENDMDL
MODEL 2
REMARK VINA RESULT: -6.405193941      3.649      6.035
REMARK  4 active torsions:
REMARK  status: ('A' for Active; 'I' for Inactive)
REMARK    1  A    between atoms: C2_2  and  O1_3 
REMARK    2  A    between atoms: C2_2  and  C3_5 
REMARK    3  A    between atoms: N1_7  and  O2_9 
REMARK    4  A    between atoms: O2_9  and  C5_10 
ROOT
HETATM    1  C5  UNL     1      14.057   6.566  27.156  1.00  0.00     0.169 C 
HETATM    2  C6  UNL     1      14.378   5.112  27.005  1.00  0.00     0.065 C 
HETATM    3  C7  UNL     1      15.290   7.266  27.733  1.00  0.00     0.065 C 
HETATM    4  C8  UNL     1      12.995   6.747  28.158  1.00  0.00     0.099 C 
HETATM    5  N2  UNL     1      12.156   6.892  28.953  1.00  0.00    -0.194 NA
ENDROOT
BRANCH   1   6
HETATM    6  O2  UNL     1      13.642   7.195  25.985  1.00  0.00    -0.255 OA
BRANCH   6   7
HETATM    7  N1  UNL     1      12.431   7.748  25.745  1.00  0.00    -0.268 N 
HETATM    8  C4  UNL     1      12.352   8.977  25.416  1.00  0.00     0.067 C 
HETATM    9  C3  UNL     1      11.094   9.704  25.126  1.00  0.00     0.096 C 
HETATM   10  C9  UNL     1      13.423   9.989  25.235  1.00  0.00     0.271 C 
HETATM   11  C12 UNL     1      11.592  11.141  24.928  1.00  0.00     0.143 C 
HETATM   12  C11 UNL     1      11.789  11.485  23.488  1.00  0.00     0.108 C 
HETATM   13  O3  UNL     1      12.794  11.180  25.623  1.00  0.00    -0.355 OA
HETATM   14  C10 UNL     1      12.832  10.591  22.911  1.00  0.00     0.075 C 
HETATM   15  N3  UNL     1      13.736   9.997  23.824  1.00  0.00    -0.349 N 
HETATM   16  N4  UNL     1      12.889  10.382  21.634  1.00  0.00    -0.389 N 
ATOM     17  H3  UNL     1      14.603   9.578  23.488  1.00  0.00     0.163 HD
ATOM     18  H42 UNL     1      13.603   9.770  21.239  1.00  0.00     0.157 HD
ATOM     19  H41 UNL     1      12.237  10.810  20.976  1.00  0.00     0.157 HD
ATOM     20  H1  UNL     1      11.585   7.183  25.826  1.00  0.00     0.194 HD
BRANCH   9  21
HETATM   21  C2  UNL     1      10.174   9.748  26.330  1.00  0.00     0.126 C 
HETATM   22  C1  UNL     1       8.779  10.155  25.995  1.00  0.00     0.040 C 
BRANCH  21  23
HETATM   23  O1  UNL     1      10.254   8.517  26.979  1.00  0.00    -0.395 OA
ATOM     24  H1  UNL     1       9.474   8.298  27.475  1.00  0.00     0.210 HD
ENDBRANCH  21  23
ENDBRANCH   9  21
ENDBRANCH   6   7
ENDBRANCH   1   6
TORSDOF 4
ENDMDL
MODEL 3
REMARK VINA RESULT: -6.290811362      2.634      3.932
REMARK  4 active torsions:
REMARK  status: ('A' for Active; 'I' for Inactive)
REMARK    1  A    between atoms: C2_2  and  O1_3 
REMARK    2  A    between atoms: C2_2  and  C3_5 
REMARK    3  A    between atoms: N1_7  and  O2_9 
REMARK    4  A    between atoms: O2_9  and  C5_10 
ROOT
HETATM    1  C5  UNL     1      15.712   3.869  29.427  1.00  0.00     0.169 C 
HETATM    2  C6  UNL     1      14.516   3.227  28.797  1.00  0.00     0.065 C 
HETATM    3  C7  UNL     1      16.769   4.072  28.340  1.00  0.00     0.065 C 
HETATM    4  C8  UNL     1      16.320   2.953  30.405  1.00  0.00     0.099 C 
HETATM    5  N2  UNL     1      16.805   2.229  31.178  1.00  0.00    -0.194 NA
ENDROOT
BRANCH   1   6
HETATM    6  O2  UNL     1      15.449   5.070  30.083  1.00  0.00    -0.255 OA
BRANCH   6   7
HETATM    7  N1  UNL     1      14.245   5.672  30.224  1.00  0.00    -0.268 N 
HETATM    8  C4  UNL     1      13.984   6.727  29.558  1.00  0.00     0.067 C 
HETATM    9  C3  UNL     1      12.711   7.482  29.617  1.00  0.00     0.096 C 
HETATM   10  C9  UNL     1      14.820   7.472  28.583  1.00  0.00     0.271 C 
HETATM   11  C12 UNL     1      13.016   8.696  28.732  1.00  0.00     0.143 C 
HETATM   12  C11 UNL     1      12.519   8.525  27.334  1.00  0.00     0.108 C 
HETATM   13  O3  UNL     1      14.401   8.797  28.764  1.00  0.00    -0.355 OA
HETATM   14  C10 UNL     1      13.209   7.360  26.710  1.00  0.00     0.075 C 
HETATM   15  N3  UNL     1      14.450   6.980  27.275  1.00  0.00    -0.349 N 
HETATM   16  N4  UNL     1      12.680   6.742  25.702  1.00  0.00    -0.389 N 
ATOM     17  H3  UNL     1      15.079   6.363  26.762  1.00  0.00     0.163 HD
ATOM     18  H42 UNL     1      13.153   5.946  25.275  1.00  0.00     0.157 HD
ATOM     19  H41 UNL     1      11.786   7.017  25.295  1.00  0.00     0.157 HD
ATOM     20  H1  UNL     1      13.550   5.283  30.862  1.00  0.00     0.194 HD
BRANCH   9  21
HETATM   21  C2  UNL     1      12.445   8.036  31.002  1.00  0.00     0.126 C 
HETATM   22  C1  UNL     1      11.402   7.279  31.753  1.00  0.00     0.040 C 
BRANCH  21  23
HETATM   23  O1  UNL     1      13.663   8.121  31.675  1.00  0.00    -0.395 OA
ATOM     24  H1  UNL     1      13.753   8.907  32.200  1.00  0.00     0.210 HD
ENDBRANCH  21  23
ENDBRANCH   9  21
ENDBRANCH   6   7
ENDBRANCH   1   6
TORSDOF 4
ENDMDL
MODEL 4
REMARK VINA RESULT: -6.233277051      4.274      6.481
REMARK  4 active torsions:
REMARK  status: ('A' for Active; 'I' for Inactive)
REMARK    1  A    between atoms: C2_2  and  O1_3 
REMARK    2  A    between atoms: C2_2  and  C3_5 
REMARK    3  A    between atoms: N1_7  and  O2_9 
REMARK    4  A    between atoms: O2_9  and  C5_10 
ROOT
HETATM    1  C5  UNL     1      11.959   7.611  31.331  1.00  0.00     0.169 C 
HETATM    2  C6  UNL     1      12.565   8.047  32.628  1.00  0.00     0.065 C 
HETATM    3  C7  UNL     1      10.594   6.986  31.632  1.00  0.00     0.065 C 
HETATM    4  C8  UNL     1      12.764   6.534  30.735  1.00  0.00     0.099 C 
HETATM    5  N2  UNL     1      13.399   5.680  30.261  1.00  0.00    -0.194 NA
ENDROOT
BRANCH   1   6
HETATM    6  O2  UNL     1      11.834   8.621  30.379  1.00  0.00    -0.255 OA
BRANCH   6   7
HETATM    7  N1  UNL     1      11.120   8.571  29.231  1.00  0.00    -0.268 N 
HETATM    8  C4  UNL     1      11.718   8.676  28.110  1.00  0.00     0.067 C 
HETATM    9  C3  UNL     1      11.060   8.638  26.784  1.00  0.00     0.096 C 
HETATM   10  C9  UNL     1      13.161   8.858  27.810  1.00  0.00     0.271 C 
HETATM   11  C12 UNL     1      12.227   8.942  25.837  1.00  0.00     0.143 C 
HETATM   12  C11 UNL     1      12.831   7.705  25.256  1.00  0.00     0.108 C 
HETATM   13  O3  UNL     1      13.140   9.620  26.635  1.00  0.00    -0.355 OA
HETATM   14  C10 UNL     1      13.385   6.870  26.359  1.00  0.00     0.075 C 
HETATM   15  N3  UNL     1      13.693   7.536  27.569  1.00  0.00    -0.349 N 
HETATM   16  N4  UNL     1      13.567   5.597  26.194  1.00  0.00    -0.389 N 
ATOM     17  H3  UNL     1      14.287   7.086  28.265  1.00  0.00     0.163 HD
ATOM     18  H42 UNL     1      13.946   5.026  26.949  1.00  0.00     0.157 HD
ATOM     19  H41 UNL     1      13.345   5.117  25.323  1.00  0.00     0.157 HD
ATOM     20  H1  UNL     1      10.107   8.449  29.262  1.00  0.00     0.194 HD
BRANCH   9  21
HETATM   21  C2  UNL     1      10.076   9.777  26.606  1.00  0.00     0.126 C 
HETATM   22  C1  UNL     1       9.862  10.159  25.181  1.00  0.00     0.040 C 
BRANCH  21  23
HETATM   23  O1  UNL     1       8.900   9.439  27.274  1.00  0.00    -0.395 OA
ATOM     24  H1  UNL     1       8.196  10.064  27.144  1.00  0.00     0.210 HD
ENDBRANCH  21  23
ENDBRANCH   9  21
ENDBRANCH   6   7
ENDBRANCH   1   6
TORSDOF 4
ENDMDL
MODEL 5
REMARK VINA RESULT: -6.179891152      2.491      5.267
REMARK  4 active torsions:
REMARK  status: ('A' for Active; 'I' for Inactive)
REMARK    1  A    between atoms: C2_2  and  O1_3 
REMARK    2  A    between atoms: C2_2  and  C3_5 
REMARK    3  A    between atoms: N1_7  and  O2_9 
REMARK    4  A    between atoms: O2_9  and  C5_10 
ROOT
HETATM    1  C5  UNL     1      13.146   8.655  25.967  1.00  0.00     0.169 C 
HETATM    2  C6  UNL     1      13.236   9.976  25.269  1.00  0.00     0.065 C 
HETATM    3  C7  UNL     1      12.745   7.600  24.933  1.00  0.00     0.065 C 
HETATM    4  C8  UNL     1      12.054   8.678  26.952  1.00  0.00     0.099 C 
HETATM    5  N2  UNL     1      11.188   8.694  27.732  1.00  0.00    -0.194 NA
ENDROOT
BRANCH   1   6
HETATM    6  O2  UNL     1      14.306   8.269  26.633  1.00  0.00    -0.255 OA
BRANCH   6   7
HETATM    7  N1  UNL     1      14.416   7.909  27.933  1.00  0.00    -0.268 N 
HETATM    8  C4  UNL     1      14.409   6.674  28.249  1.00  0.00     0.067 C 
HETATM    9  C3  UNL     1      14.521   6.144  29.627  1.00  0.00     0.096 C 
HETATM   10  C9  UNL     1      14.295   5.469  27.390  1.00  0.00     0.271 C 
HETATM   11  C12 UNL     1      14.322   4.639  29.410  1.00  0.00     0.143 C 
HETATM   12  C11 UNL     1      15.616   3.897  29.325  1.00  0.00     0.108 C 
HETATM   13  O3  UNL     1      13.618   4.561  28.215  1.00  0.00    -0.355 OA
HETATM   14  C10 UNL     1      16.388   4.397  28.153  1.00  0.00     0.075 C 
HETATM   15  N3  UNL     1      15.647   5.031  27.127  1.00  0.00    -0.349 N 
HETATM   16  N4  UNL     1      17.674   4.248  28.098  1.00  0.00    -0.389 N 
ATOM     17  H3  UNL     1      16.065   5.177  26.208  1.00  0.00     0.163 HD
ATOM     18  H42 UNL     1      18.202   4.590  27.295  1.00  0.00     0.157 HD
ATOM     19  H41 UNL     1      18.208   3.792  28.837  1.00  0.00     0.157 HD
ATOM     20  H1  UNL     1      14.502   8.623  28.657  1.00  0.00     0.194 HD
BRANCH   9  21
HETATM   21  C2  UNL     1      13.367   6.592  30.502  1.00  0.00     0.126 C 
HETATM   22  C1  UNL     1      13.591   7.920  31.145  1.00  0.00     0.040 C 
BRANCH  21  23
HETATM   23  O1  UNL     1      12.200   6.532  29.742  1.00  0.00    -0.395 OA
ATOM     24  H1  UNL     1      11.830   7.384  29.546  1.00  0.00     0.210 HD
ENDBRANCH  21  23
ENDBRANCH   9  21
ENDBRANCH   6   7
ENDBRANCH   1   6
TORSDOF 4
ENDMDL
