MODEL 1
REMARK VINA RESULT: -6.013590505      0.000      0.000
REMARK  7 active torsions:
REMARK  status: ('A' for Active; 'I' for Inactive)
REMARK    1  A    between atoms: C2_2  and  C3_3 
REMARK    2  A    between atoms: C2_2  and  O2_6 
REMARK    3  A    between atoms: C3_3  and  O1_4 
REMARK    4  A    between atoms: O2_6  and  C4_7 
REMARK    5  A    between atoms: C4_7  and  C5_9 
REMARK    6  A    between atoms: C5_9  and  O4_10 
REMARK    7  A    between atoms: C10_16  and  O5_17 
ROOT
HETATM    1  C5  UNL     1      13.295   8.253  26.153  1.00  0.00     0.195 C 
HETATM    2  C6  UNL     1      12.932   8.923  24.847  1.00  0.00     0.061 C 
HETATM    3  C7  UNL     1      13.064  10.404  25.032  1.00  0.00     0.008 C 
HETATM    4  C8  UNL     1      11.737  11.108  25.134  1.00  0.00     0.037 C 
HETATM    5  C9  UNL     1      10.651  10.213  25.601  1.00  0.00    -0.049 C 
HETATM    6  C10 UNL     1       9.533  10.286  24.916  1.00  0.00     0.134 C 
HETATM    7  C11 UNL     1      10.590   9.234  26.715  1.00  0.00     0.113 C 
HETATM    8  S1  UNL     1      12.190   8.876  27.431  1.00  0.00    -0.117 SA
ENDROOT
BRANCH   1   9
HETATM    9  C4  UNL     1      13.265   6.782  26.061  1.00  0.00     0.304 C 
HETATM   10  O3  UNL     1      12.970   6.267  24.956  1.00  0.00    -0.261 OA
BRANCH   9  11
HETATM   11  O2  UNL     1      13.535   5.927  27.095  1.00  0.00    -0.311 OA
BRANCH  11  12
HETATM   12  C2  UNL     1      14.585   5.045  27.196  1.00  0.00     0.151 C 
HETATM   13  C1  UNL     1      14.300   3.757  27.906  1.00  0.00     0.042 C 
BRANCH  12  14
HETATM   14  C3  UNL     1      15.744   5.710  27.945  1.00  0.00     0.196 C 
BRANCH  14  15
HETATM   15  O1  UNL     1      16.521   6.332  26.964  1.00  0.00    -0.398 OA
ATOM     16  H1  UNL     1      17.098   6.925  27.431  1.00  0.00     0.209 HD
ENDBRANCH  14  15
ENDBRANCH  12  14
ENDBRANCH  11  12
ENDBRANCH   9  11
ENDBRANCH   1   9
BRANCH   1  17
HETATM   17  O4  UNL     1      14.602   8.631  26.474  1.00  0.00    -0.370 OA
ATOM     18  H4  UNL     1      14.559   9.473  26.911  1.00  0.00     0.212 HD
ENDBRANCH   1  17
BRANCH   6  19
HETATM   19  O5  UNL     1       8.429   9.520  25.223  1.00  0.00    -0.372 OA
ATOM     20  H5  UNL     1       8.355   8.610  24.962  1.00  0.00     0.216 HD
ENDBRANCH   6  19
TORSDOF 7
ENDMDL
MODEL 2
REMARK VINA RESULT: -5.723929599      3.074      4.211
REMARK  7 active torsions:
REMARK  status: ('A' for Active; 'I' for Inactive)
REMARK    1  A    between atoms: C2_2  and  C3_3 
REMARK    2  A    between atoms: C2_2  and  O2_6 
REMARK    3  A    between atoms: C3_3  and  O1_4 
REMARK    4  A    between atoms: O2_6  and  C4_7 
REMARK    5  A    between atoms: C4_7  and  C5_9 
REMARK    6  A    between atoms: C5_9  and  O4_10 
REMARK    7  A    between atoms: C10_16  and  O5_17 
ROOT
HETATM    1  C5  UNL     1      14.465   7.616  28.001  1.00  0.00     0.195 C 
HETATM    2  C6  UNL     1      13.065   7.057  27.886  1.00  0.00     0.061 C 
HETATM    3  C7  UNL     1      12.101   8.202  27.936  1.00  0.00     0.008 C 
HETATM    4  C8  UNL     1      11.368   8.302  29.248  1.00  0.00     0.037 C 
HETATM    5  C9  UNL     1      12.111   7.671  30.366  1.00  0.00    -0.049 C 
HETATM    6  C10 UNL     1      11.396   6.890  31.142  1.00  0.00     0.134 C 
HETATM    7  C11 UNL     1      13.535   7.758  30.777  1.00  0.00     0.113 C 
HETATM    8  S1  UNL     1      14.581   8.530  29.549  1.00  0.00    -0.117 SA
ENDROOT
BRANCH   1   9
HETATM    9  C4  UNL     1      15.502   6.573  27.893  1.00  0.00     0.304 C 
HETATM   10  O3  UNL     1      16.511   6.816  27.189  1.00  0.00    -0.261 OA
BRANCH   9  11
HETATM   11  O2  UNL     1      15.449   5.351  28.506  1.00  0.00    -0.311 OA
BRANCH  11  12
HETATM   12  C2  UNL     1      15.512   4.113  27.911  1.00  0.00     0.151 C 
HETATM   13  C1  UNL     1      14.345   3.205  28.147  1.00  0.00     0.042 C 
BRANCH  12  14
HETATM   14  C3  UNL     1      16.755   3.368  28.407  1.00  0.00     0.196 C 
BRANCH  14  15
HETATM   15  O1  UNL     1      17.848   4.066  27.887  1.00  0.00    -0.398 OA
ATOM     16  H1  UNL     1      17.486   4.686  27.265  1.00  0.00     0.209 HD
ENDBRANCH  14  15
ENDBRANCH  12  14
ENDBRANCH  11  12
ENDBRANCH   9  11
ENDBRANCH   1   9
BRANCH   1  17
HETATM   17  O4  UNL     1      14.652   8.511  26.943  1.00  0.00    -0.370 OA
ATOM     18  H4  UNL     1      14.459   8.047  26.137  1.00  0.00     0.212 HD
ENDBRANCH   1  17
BRANCH   6  19
HETATM   19  O5  UNL     1      11.938   6.231  32.224  1.00  0.00    -0.372 OA
ATOM     20  H5  UNL     1      11.456   5.573  32.712  1.00  0.00     0.216 HD
ENDBRANCH   6  19
TORSDOF 7
ENDMDL
MODEL 3
REMARK VINA RESULT: -5.698198227      2.216      3.021
REMARK  7 active torsions:
REMARK  status: ('A' for Active; 'I' for Inactive)
REMARK    1  A    between atoms: C2_2  and  C3_3 
REMARK    2  A    between atoms: C2_2  and  O2_6 
REMARK    3  A    between atoms: C3_3  and  O1_4 
REMARK    4  A    between atoms: O2_6  and  C4_7 
REMARK    5  A    between atoms: C4_7  and  C5_9 
REMARK    6  A    between atoms: C5_9  and  O4_10 
REMARK    7  A    between atoms: C10_16  and  O5_17 
ROOT
HETATM    1  C5  UNL     1      13.501   6.821  27.461  1.00  0.00     0.195 C 
HETATM    2  C6  UNL     1      13.286   8.297  27.705  1.00  0.00     0.061 C 
HETATM    3  C7  UNL     1      11.830   8.593  27.517  1.00  0.00     0.008 C 
HETATM    4  C8  UNL     1      11.535   9.319  26.231  1.00  0.00     0.037 C 
HETATM    5  C9  UNL     1      12.571   9.089  25.196  1.00  0.00    -0.049 C 
HETATM    6  C10 UNL     1      12.985  10.167  24.570  1.00  0.00     0.134 C 
HETATM    7  C11 UNL     1      13.240   7.849  24.727  1.00  0.00     0.113 C 
HETATM    8  S1  UNL     1      12.944   6.441  25.790  1.00  0.00    -0.117 SA
ENDROOT
BRANCH   1   9
HETATM    9  C4  UNL     1      14.898   6.407  27.688  1.00  0.00     0.304 C 
HETATM   10  O3  UNL     1      15.809   7.131  27.223  1.00  0.00    -0.261 OA
BRANCH   9  11
HETATM   11  O2  UNL     1      15.280   5.286  28.374  1.00  0.00    -0.311 OA
BRANCH  11  12
HETATM   12  C2  UNL     1      15.448   4.017  27.873  1.00  0.00     0.151 C 
HETATM   13  C1  UNL     1      14.346   3.042  28.158  1.00  0.00     0.042 C 
BRANCH  12  14
HETATM   14  C3  UNL     1      16.731   3.405  28.444  1.00  0.00     0.196 C 
BRANCH  14  15
HETATM   15  O1  UNL     1      17.776   4.191  27.951  1.00  0.00    -0.398 OA
ATOM     16  H1  UNL     1      18.318   4.400  28.703  1.00  0.00     0.209 HD
ENDBRANCH  14  15
ENDBRANCH  12  14
ENDBRANCH  11  12
ENDBRANCH   9  11
ENDBRANCH   1   9
BRANCH   1  17
HETATM   17  O4  UNL     1      12.698   6.120  28.366  1.00  0.00    -0.370 OA
ATOM     18  H4  UNL     1      12.788   5.194  28.173  1.00  0.00     0.212 HD
ENDBRANCH   1  17
BRANCH   6  19
HETATM   19  O5  UNL     1      13.944  10.122  23.581  1.00  0.00    -0.372 OA
ATOM     20  H5  UNL     1      14.828  10.440  23.717  1.00  0.00     0.216 HD
ENDBRANCH   6  19
TORSDOF 7
ENDMDL
MODEL 4
REMARK VINA RESULT: -5.681727199      2.638      3.929
REMARK  7 active torsions:
REMARK  status: ('A' for Active; 'I' for Inactive)
REMARK    1  A    between atoms: C2_2  and  C3_3 
REMARK    2  A    between atoms: C2_2  and  O2_6 
REMARK    3  A    between atoms: C3_3  and  O1_4 
REMARK    4  A    between atoms: O2_6  and  C4_7 
REMARK    5  A    between atoms: C4_7  and  C5_9 
REMARK    6  A    between atoms: C5_9  and  O4_10 
REMARK    7  A    between atoms: C10_16  and  O5_17 
ROOT
HETATM    1  C5  UNL     1      13.879   6.001  29.458  1.00  0.00     0.195 C 
HETATM    2  C6  UNL     1      14.885   7.020  28.973  1.00  0.00     0.061 C 
HETATM    3  C7  UNL     1      14.685   8.281  29.755  1.00  0.00     0.008 C 
HETATM    4  C8  UNL     1      14.014   9.371  28.960  1.00  0.00     0.037 C 
HETATM    5  C9  UNL     1      13.201   8.840  27.839  1.00  0.00    -0.049 C 
HETATM    6  C10 UNL     1      13.370   9.449  26.688  1.00  0.00     0.134 C 
HETATM    7  C11 UNL     1      12.216   7.731  27.774  1.00  0.00     0.113 C 
HETATM    8  S1  UNL     1      12.229   6.686  29.225  1.00  0.00    -0.117 SA
ENDROOT
BRANCH   1   9
HETATM    9  C4  UNL     1      14.035   4.692  28.798  1.00  0.00     0.304 C 
HETATM   10  O3  UNL     1      13.848   4.632  27.559  1.00  0.00    -0.261 OA
BRANCH   9  11
HETATM   11  O2  UNL     1      14.373   3.529  29.435  1.00  0.00    -0.311 OA
BRANCH  11  12
HETATM   12  C2  UNL     1      15.622   2.963  29.534  1.00  0.00     0.151 C 
HETATM   13  C1  UNL     1      16.370   3.228  30.804  1.00  0.00     0.042 C 
BRANCH  12  14
HETATM   14  C3  UNL     1      16.507   3.468  28.391  1.00  0.00     0.196 C 
BRANCH  14  15
HETATM   15  O1  UNL     1      16.176   2.686  27.281  1.00  0.00    -0.398 OA
ATOM     16  H1  UNL     1      17.003   2.391  26.918  1.00  0.00     0.209 HD
ENDBRANCH  14  15
ENDBRANCH  12  14
ENDBRANCH  11  12
ENDBRANCH   9  11
ENDBRANCH   1   9
BRANCH   1  17
HETATM   17  O4  UNL     1      14.092   5.813  30.827  1.00  0.00    -0.370 OA
ATOM     18  H4  UNL     1      15.014   5.965  30.998  1.00  0.00     0.212 HD
ENDBRANCH   1  17
BRANCH   6  19
HETATM   19  O5  UNL     1      12.688   9.076  25.550  1.00  0.00    -0.372 OA
ATOM     20  H5  UNL     1      12.979   9.324  24.680  1.00  0.00     0.216 HD
ENDBRANCH   6  19
TORSDOF 7
ENDMDL
MODEL 5
REMARK VINA RESULT: -5.669078746      2.598      5.766
REMARK  7 active torsions:
REMARK  status: ('A' for Active; 'I' for Inactive)
REMARK    1  A    between atoms: C2_2  and  C3_3 
REMARK    2  A    between atoms: C2_2  and  O2_6 
REMARK    3  A    between atoms: C3_3  and  O1_4 
REMARK    4  A    between atoms: O2_6  and  C4_7 
REMARK    5  A    between atoms: C4_7  and  C5_9 
REMARK    6  A    between atoms: C5_9  and  O4_10 
REMARK    7  A    between atoms: C10_16  and  O5_17 
ROOT
HETATM    1  C5  UNL     1      12.693   8.983  25.917  1.00  0.00     0.195 C 
HETATM    2  C6  UNL     1      13.805   9.352  26.873  1.00  0.00     0.061 C 
HETATM    3  C7  UNL     1      14.439   8.086  27.361  1.00  0.00     0.008 C 
HETATM    4  C8  UNL     1      14.068   7.747  28.781  1.00  0.00     0.037 C 
HETATM    5  C9  UNL     1      12.779   8.352  29.194  1.00  0.00    -0.049 C 
HETATM    6  C10 UNL     1      12.788   8.940  30.368  1.00  0.00     0.134 C 
HETATM    7  C11 UNL     1      11.460   8.420  28.517  1.00  0.00     0.113 C 
HETATM    8  S1  UNL     1      11.521   7.935  26.796  1.00  0.00    -0.117 SA
ENDROOT
BRANCH   1   9
HETATM    9  C4  UNL     1      12.044  10.165  25.321  1.00  0.00     0.304 C 
HETATM   10  O3  UNL     1      12.415  10.527  24.179  1.00  0.00    -0.261 OA
BRANCH   9  11
HETATM   11  O2  UNL     1      11.060  10.903  25.921  1.00  0.00    -0.311 OA
BRANCH  11  12
HETATM   12  C2  UNL     1       9.889  11.351  25.356  1.00  0.00     0.151 C 
HETATM   13  C1  UNL     1       9.255  12.543  26.005  1.00  0.00     0.042 C 
BRANCH  12  14
HETATM   14  C3  UNL     1       8.845  10.231  25.382  1.00  0.00     0.196 C 
BRANCH  14  15
HETATM   15  O1  UNL     1       8.380  10.115  24.069  1.00  0.00    -0.398 OA
ATOM     16  H1  UNL     1       7.732   9.421  24.086  1.00  0.00     0.209 HD
ENDBRANCH  14  15
ENDBRANCH  12  14
ENDBRANCH  11  12
ENDBRANCH   9  11
ENDBRANCH   1   9
BRANCH   1  17
HETATM   17  O4  UNL     1      13.258   8.240  24.876  1.00  0.00    -0.370 OA
ATOM     18  H4  UNL     1      12.863   8.536  24.064  1.00  0.00     0.212 HD
ENDBRANCH   1  17
BRANCH   6  19
HETATM   19  O5  UNL     1      11.671   9.550  30.895  1.00  0.00    -0.372 OA
ATOM     20  H5  UNL     1      11.684  10.443  31.218  1.00  0.00     0.216 HD
ENDBRANCH   6  19
TORSDOF 7
ENDMDL
