MODEL 1
REMARK VINA RESULT: -6.146903681      0.000      0.000
REMARK  5 active torsions:
REMARK  status: ('A' for Active; 'I' for Inactive)
REMARK    1  A    between atoms: N1_1  and  C1_5 
REMARK    2  A    between atoms: C1_5  and  C2_6 
REMARK    3  A    between atoms: C2_6  and  N2_7 
REMARK    4  A    between atoms: N2_7  and  C3_9 
REMARK    5  A    between atoms: C5_11  and  C6_12 
ROOT
HETATM    1  C3  UNL     1      13.489  -0.531  20.716  1.00  0.00     0.103 A 
HETATM    2  C4  UNL     1      13.998   0.583  21.371  1.00  0.00     0.078 A 
HETATM    3  C5  UNL     1      14.749   0.491  22.537  1.00  0.00     0.046 A 
HETATM    4  N3  UNL     1      14.987  -0.739  23.043  1.00  0.00    -0.352 N 
ATOM      5  H3  UNL     1      15.535  -0.849  23.896  1.00  0.00     0.166 HD
HETATM    6  C12 UNL     1      14.494  -1.817  22.408  1.00  0.00     0.182 A 
HETATM    7  N4  UNL     1      13.764  -1.721  21.274  1.00  0.00    -0.339 N 
ATOM      8  H4  UNL     1      13.415  -2.571  20.832  1.00  0.00     0.168 HD
ENDROOT
BRANCH   1   9
HETATM    9  N2  UNL     1      12.798  -0.416  19.637  1.00  0.00    -0.375 N 
ATOM     10  H2  UNL     1      12.913   0.437  19.090  1.00  0.00     0.161 HD
BRANCH   9  11
HETATM   11  C2  UNL     1      11.882  -1.394  19.149  1.00  0.00     0.148 C 
BRANCH  11  12
HETATM   12  C1  UNL     1      10.479  -1.240  19.704  1.00  0.00     0.249 C 
BRANCH  12  13
HETATM   13  N1  UNL     1       9.485  -1.700  18.767  1.00  0.00    -0.078 N 
ATOM     14  H13 UNL     1       9.462  -2.719  18.717  1.00  0.00     0.274 HD
ATOM     15  H12 UNL     1       8.540  -1.537  19.117  1.00  0.00     0.274 HD
ATOM     16  H11 UNL     1       9.617  -1.284  17.844  1.00  0.00     0.274 HD
ENDBRANCH  12  13
ENDBRANCH  11  12
ENDBRANCH   9  11
ENDBRANCH   1   9
BRANCH   3  17
HETATM   17  C6  UNL     1      15.265   1.673  23.197  1.00  0.00    -0.009 A 
HETATM   18  C7  UNL     1      15.538   1.730  24.534  1.00  0.00     0.013 A 
HETATM   19  C8  UNL     1      16.037   2.885  25.149  1.00  0.00     0.001 A 
HETATM   20  C9  UNL     1      16.270   4.014  24.408  1.00  0.00     0.000 A 
HETATM   21  C10 UNL     1      16.008   3.990  23.072  1.00  0.00     0.001 A 
HETATM   22  C11 UNL     1      15.507   2.820  22.475  1.00  0.00     0.013 A 
ENDBRANCH   3  17
TORSDOF 5
ENDMDL
MODEL 2
REMARK VINA RESULT: -6.136136175      0.053      1.172
REMARK  5 active torsions:
REMARK  status: ('A' for Active; 'I' for Inactive)
REMARK    1  A    between atoms: N1_1  and  C1_5 
REMARK    2  A    between atoms: C1_5  and  C2_6 
REMARK    3  A    between atoms: C2_6  and  N2_7 
REMARK    4  A    between atoms: N2_7  and  C3_9 
REMARK    5  A    between atoms: C5_11  and  C6_12 
ROOT
HETATM    1  C3  UNL     1      13.467  -0.528  20.683  1.00  0.00     0.103 A 
HETATM    2  C4  UNL     1      13.980   0.590  21.328  1.00  0.00     0.078 A 
HETATM    3  C5  UNL     1      14.729   0.505  22.496  1.00  0.00     0.046 A 
HETATM    4  N3  UNL     1      14.962  -0.721  23.014  1.00  0.00    -0.352 N 
ATOM      5  H3  UNL     1      15.509  -0.825  23.869  1.00  0.00     0.166 HD
HETATM    6  C12 UNL     1      14.464  -1.802  22.389  1.00  0.00     0.182 A 
HETATM    7  N4  UNL     1      13.736  -1.714  21.253  1.00  0.00    -0.339 N 
ATOM      8  H4  UNL     1      13.384  -2.567  20.819  1.00  0.00     0.168 HD
ENDROOT
BRANCH   1   9
HETATM    9  N2  UNL     1      12.777  -0.420  19.603  1.00  0.00    -0.375 N 
ATOM     10  H2  UNL     1      12.903   0.423  19.044  1.00  0.00     0.161 HD
BRANCH   9  11
HETATM   11  C2  UNL     1      11.849  -1.394  19.130  1.00  0.00     0.148 C 
BRANCH  11  12
HETATM   12  C1  UNL     1      10.455  -1.229  19.701  1.00  0.00     0.249 C 
BRANCH  12  13
HETATM   13  N1  UNL     1       9.448  -1.722  18.795  1.00  0.00    -0.078 N 
ATOM     14  H13 UNL     1       8.721  -1.024  18.630  1.00  0.00     0.274 HD
ATOM     15  H12 UNL     1       9.809  -1.802  17.844  1.00  0.00     0.274 HD
ATOM     16  H11 UNL     1       9.050  -2.605  19.118  1.00  0.00     0.274 HD
ENDBRANCH  12  13
ENDBRANCH  11  12
ENDBRANCH   9  11
ENDBRANCH   1   9
BRANCH   3  17
HETATM   17  C6  UNL     1      15.250   1.692  23.145  1.00  0.00    -0.009 A 
HETATM   18  C7  UNL     1      15.525   2.854  22.481  1.00  0.00     0.013 A 
HETATM   19  C8  UNL     1      16.027   3.988  23.131  1.00  0.00     0.001 A 
HETATM   20  C9  UNL     1      16.261   3.962  24.481  1.00  0.00     0.000 A 
HETATM   21  C10 UNL     1      15.997   2.818  25.172  1.00  0.00     0.001 A 
HETATM   22  C11 UNL     1      15.494   1.691  24.501  1.00  0.00     0.013 A 
ENDBRANCH   3  17
TORSDOF 5
ENDMDL
MODEL 3
REMARK VINA RESULT: -5.923389216      0.983      1.008
REMARK  5 active torsions:
REMARK  status: ('A' for Active; 'I' for Inactive)
REMARK    1  A    between atoms: N1_1  and  C1_5 
REMARK    2  A    between atoms: C1_5  and  C2_6 
REMARK    3  A    between atoms: C2_6  and  N2_7 
REMARK    4  A    between atoms: N2_7  and  C3_9 
REMARK    5  A    between atoms: C5_11  and  C6_12 
ROOT
HETATM    1  C3  UNL     1      13.591  -0.570  21.416  1.00  0.00     0.103 A 
HETATM    2  C4  UNL     1      14.129   0.617  21.897  1.00  0.00     0.078 A 
HETATM    3  C5  UNL     1      14.872   0.684  23.070  1.00  0.00     0.046 A 
HETATM    4  N3  UNL     1      15.072  -0.459  23.761  1.00  0.00    -0.352 N 
ATOM      5  H3  UNL     1      15.613  -0.452  24.626  1.00  0.00     0.166 HD
HETATM    6  C12 UNL     1      14.550  -1.608  23.295  1.00  0.00     0.182 A 
HETATM    7  N4  UNL     1      13.829  -1.667  22.153  1.00  0.00    -0.339 N 
ATOM      8  H4  UNL     1      13.457  -2.565  21.844  1.00  0.00     0.168 HD
ENDROOT
BRANCH   1   9
HETATM    9  N2  UNL     1      12.908  -0.603  20.327  1.00  0.00    -0.375 N 
ATOM     10  H2  UNL     1      13.292  -0.121  19.514  1.00  0.00     0.161 HD
BRANCH   9  11
HETATM   11  C2  UNL     1      11.654  -1.264  20.172  1.00  0.00     0.148 C 
BRANCH  11  12
HETATM   12  C1  UNL     1      11.329  -1.616  18.734  1.00  0.00     0.249 C 
BRANCH  12  13
HETATM   13  N1  UNL     1      12.018  -0.754  17.807  1.00  0.00    -0.078 N 
ATOM     14  H13 UNL     1      12.868  -0.367  18.218  1.00  0.00     0.274 HD
ATOM     15  H12 UNL     1      12.438  -1.286  17.045  1.00  0.00     0.274 HD
ATOM     16  H11 UNL     1      11.406  -0.017  17.453  1.00  0.00     0.274 HD
ENDBRANCH  12  13
ENDBRANCH  11  12
ENDBRANCH   9  11
ENDBRANCH   1   9
BRANCH   3  17
HETATM   17  C6  UNL     1      15.419   1.939  23.545  1.00  0.00    -0.009 A 
HETATM   18  C7  UNL     1      15.779   2.159  24.845  1.00  0.00     0.013 A 
HETATM   19  C8  UNL     1      16.306   3.382  25.279  1.00  0.00     0.001 A 
HETATM   20  C9  UNL     1      16.479   4.412  24.392  1.00  0.00     0.000 A 
HETATM   21  C10 UNL     1      16.130   4.224  23.089  1.00  0.00     0.001 A 
HETATM   22  C11 UNL     1      15.603   2.990  22.674  1.00  0.00     0.013 A 
ENDBRANCH   3  17
TORSDOF 5
ENDMDL
MODEL 4
REMARK VINA RESULT: -5.896153682      1.030      1.573
REMARK  5 active torsions:
REMARK  status: ('A' for Active; 'I' for Inactive)
REMARK    1  A    between atoms: N1_1  and  C1_5 
REMARK    2  A    between atoms: C1_5  and  C2_6 
REMARK    3  A    between atoms: C2_6  and  N2_7 
REMARK    4  A    between atoms: N2_7  and  C3_9 
REMARK    5  A    between atoms: C5_11  and  C6_12 
ROOT
HETATM    1  C3  UNL     1      13.524  -0.903  21.642  1.00  0.00     0.103 A 
HETATM    2  C4  UNL     1      14.061   0.324  22.006  1.00  0.00     0.078 A 
HETATM    3  C5  UNL     1      14.792   0.507  23.175  1.00  0.00     0.046 A 
HETATM    4  N3  UNL     1      14.980  -0.561  23.980  1.00  0.00    -0.352 N 
ATOM      5  H3  UNL     1      15.512  -0.468  24.845  1.00  0.00     0.166 HD
HETATM    6  C12 UNL     1      14.459  -1.749  23.626  1.00  0.00     0.182 A 
HETATM    7  N4  UNL     1      13.749  -1.921  22.488  1.00  0.00    -0.339 N 
ATOM      8  H4  UNL     1      13.378  -2.845  22.268  1.00  0.00     0.168 HD
ENDROOT
BRANCH   1   9
HETATM    9  N2  UNL     1      12.852  -1.044  20.554  1.00  0.00    -0.375 N 
ATOM     10  H2  UNL     1      12.834  -0.258  19.905  1.00  0.00     0.161 HD
BRANCH   9  11
HETATM   11  C2  UNL     1      12.131  -2.219  20.189  1.00  0.00     0.148 C 
BRANCH  11  12
HETATM   12  C1  UNL     1      11.358  -2.077  18.893  1.00  0.00     0.249 C 
BRANCH  12  13
HETATM   13  N1  UNL     1      11.780  -0.918  18.148  1.00  0.00    -0.078 N 
ATOM     14  H13 UNL     1      12.784  -0.937  17.964  1.00  0.00     0.274 HD
ATOM     15  H12 UNL     1      11.442  -0.950  17.185  1.00  0.00     0.274 HD
ATOM     16  H11 UNL     1      11.502  -0.051  18.610  1.00  0.00     0.274 HD
ENDBRANCH  12  13
ENDBRANCH  11  12
ENDBRANCH   9  11
ENDBRANCH   1   9
BRANCH   3  17
HETATM   17  C6  UNL     1      15.339   1.802  23.527  1.00  0.00    -0.009 A 
HETATM   18  C7  UNL     1      15.514   2.815  22.626  1.00  0.00     0.013 A 
HETATM   19  C8  UNL     1      16.044   4.059  22.991  1.00  0.00     0.001 A 
HETATM   20  C9  UNL     1      16.410   4.298  24.290  1.00  0.00     0.000 A 
HETATM   21  C10 UNL     1      16.248   3.309  25.212  1.00  0.00     0.001 A 
HETATM   22  C11 UNL     1      15.713   2.068  24.825  1.00  0.00     0.013 A 
ENDBRANCH   3  17
TORSDOF 5
ENDMDL
MODEL 5
REMARK VINA RESULT: -5.846315278      1.874      3.452
REMARK  5 active torsions:
REMARK  status: ('A' for Active; 'I' for Inactive)
REMARK    1  A    between atoms: N1_1  and  C1_5 
REMARK    2  A    between atoms: C1_5  and  C2_6 
REMARK    3  A    between atoms: C2_6  and  N2_7 
REMARK    4  A    between atoms: N2_7  and  C3_9 
REMARK    5  A    between atoms: C5_11  and  C6_12 
ROOT
HETATM    1  C3  UNL     1      14.398  -1.967  21.813  1.00  0.00     0.103 A 
HETATM    2  C4  UNL     1      14.907  -0.874  22.502  1.00  0.00     0.078 A 
HETATM    3  C5  UNL     1      14.532   0.434  22.218  1.00  0.00     0.046 A 
HETATM    4  N3  UNL     1      13.633   0.637  21.230  1.00  0.00    -0.352 N 
ATOM      5  H3  UNL     1      13.330   1.582  20.993  1.00  0.00     0.166 HD
HETATM    6  C12 UNL     1      13.141  -0.422  20.563  1.00  0.00     0.182 A 
HETATM    7  N4  UNL     1      13.510  -1.692  20.844  1.00  0.00    -0.339 N 
ATOM      8  H4  UNL     1      13.104  -2.459  20.307  1.00  0.00     0.168 HD
ENDROOT
BRANCH   1   9
HETATM    9  N2  UNL     1      14.763  -3.167  22.096  1.00  0.00    -0.375 N 
ATOM     10  H2  UNL     1      15.599  -3.284  22.670  1.00  0.00     0.161 HD
BRANCH   9  11
HETATM   11  C2  UNL     1      14.086  -4.347  21.668  1.00  0.00     0.148 C 
BRANCH  11  12
HETATM   12  C1  UNL     1      14.672  -5.622  22.240  1.00  0.00     0.249 C 
BRANCH  12  13
HETATM   13  N1  UNL     1      15.618  -6.225  21.335  1.00  0.00    -0.078 N 
ATOM     14  H13 UNL     1      15.895  -5.575  20.599  1.00  0.00     0.274 HD
ATOM     15  H12 UNL     1      16.527  -6.357  21.780  1.00  0.00     0.274 HD
ATOM     16  H11 UNL     1      15.263  -7.099  20.946  1.00  0.00     0.274 HD
ENDBRANCH  12  13
ENDBRANCH  11  12
ENDBRANCH   9  11
ENDBRANCH   1   9
BRANCH   3  17
HETATM   17  C6  UNL     1      15.083   1.553  22.956  1.00  0.00    -0.009 A 
HETATM   18  C7  UNL     1      15.454   2.730  22.370  1.00  0.00     0.013 A 
HETATM   19  C8  UNL     1      15.984   3.798  23.106  1.00  0.00     0.001 A 
HETATM   20  C9  UNL     1      16.147   3.688  24.462  1.00  0.00     0.000 A 
HETATM   21  C10 UNL     1      15.786   2.527  25.076  1.00  0.00     0.001 A 
HETATM   22  C11 UNL     1      15.256   1.467  24.319  1.00  0.00     0.013 A 
ENDBRANCH   3  17
TORSDOF 5
ENDMDL
