MODEL 1
REMARK VINA RESULT: -7.240630340      0.000      0.000
REMARK  8 active torsions:
REMARK  status: ('A' for Active; 'I' for Inactive)
REMARK    1  A    between atoms: N1_1  and  C1_5 
REMARK    2  A    between atoms: C1_5  and  N2_6 
REMARK    3  A    between atoms: C1_5  and  C2_10 
REMARK    4  A    between atoms: C2_10  and  C3_11 
REMARK    5  A    between atoms: C3_11  and  N3_12 
REMARK    6  A    between atoms: C4_13  and  N4_14 
REMARK    7  A    between atoms: N4_14  and  C5_16 
REMARK    8  A    between atoms: C9_33  and  O2_34 
ROOT
HETATM    1  N3  UNL     1      36.436   3.513  24.234  1.00  0.00    -0.145 N 
HETATM    2  C4  UNL     1      37.024   4.070  23.140  1.00  0.00     0.702 A 
HETATM    3  N9  UNL     1      36.542   5.164  22.537  1.00  0.00    -0.192 N 
ATOM      4  H9  UNL     1      37.003   5.560  21.718  1.00  0.00     0.184 HD
HETATM    5  C6  UNL     1      35.420   5.726  23.053  1.00  0.00     0.063 A 
HETATM    6  C7  UNL     1      34.812   5.171  24.163  1.00  0.00     0.137 A 
HETATM    7  C8  UNL     1      35.320   4.042  24.776  1.00  0.00     0.291 A 
HETATM    8  O1  UNL     1      34.761   3.542  25.789  1.00  0.00    -0.265 OA
HETATM    9  N10 UNL     1      33.639   5.764  24.699  1.00  0.00    -0.295 N 
ATOM     10  H10 UNL     1      33.143   5.270  25.440  1.00  0.00     0.182 HD
HETATM   11  N11 UNL     1      33.133   6.978  24.268  1.00  0.00    -0.108 NA
HETATM   12  C9  UNL     1      34.073   7.746  23.492  1.00  0.00     0.236 C 
HETATM   13  C10 UNL     1      34.802   6.935  22.466  1.00  0.00     0.111 C 
ENDROOT
BRANCH   1  14
HETATM   14  C3  UNL     1      36.996   2.346  24.833  1.00  0.00     0.155 C 
BRANCH  14  15
HETATM   15  C2  UNL     1      36.282   1.067  24.464  1.00  0.00     0.083 C 
BRANCH  15  16
HETATM   16  C1  UNL     1      37.382   0.024  24.224  1.00  0.00     0.379 C 
BRANCH  16  17
HETATM   17  N1  UNL     1      37.406  -0.252  22.815  1.00  0.00    -0.050 N 
ATOM     18  H13 UNL     1      37.607   0.579  22.257  1.00  0.00     0.276 HD
ATOM     19  H12 UNL     1      38.217  -0.806  22.538  1.00  0.00     0.276 HD
ATOM     20  H11 UNL     1      36.524  -0.693  22.555  1.00  0.00     0.276 HD
ENDBRANCH  16  17
BRANCH  16  21
HETATM   21  N2  UNL     1      38.647   0.635  24.597  1.00  0.00    -0.050 N 
ATOM     22  H23 UNL     1      39.216   0.028  25.188  1.00  0.00     0.276 HD
ATOM     23  H22 UNL     1      39.292   0.710  23.810  1.00  0.00     0.276 HD
ATOM     24  H21 UNL     1      38.455   1.537  25.034  1.00  0.00     0.276 HD
ENDBRANCH  16  21
ENDBRANCH  15  16
ENDBRANCH  14  15
ENDBRANCH   1  14
BRANCH   2  25
HETATM   25  N4  UNL     1      38.201   3.460  22.619  1.00  0.00    -0.019 N 
ATOM     26  H4  UNL     1      38.945   3.204  23.268  1.00  0.00     0.203 HD
BRANCH  25  27
HETATM   27  C5  UNL     1      38.365   3.221  21.382  1.00  0.00     0.725 A 
HETATM   28  N5  UNL     1      37.490   2.495  20.647  1.00  0.00    -0.117 N 
HETATM   29  N6  UNL     1      37.943   2.431  19.419  1.00  0.00    -0.212 N 
ATOM     30  H5  UNL     1      36.629   2.070  20.990  1.00  0.00     0.207 HD
HETATM   31  N7  UNL     1      39.084   3.104  19.367  1.00  0.00     0.009 NA
ATOM     32  H6  UNL     1      37.497   1.949  18.640  1.00  0.00     0.206 HD
HETATM   33  N8  UNL     1      39.357   3.595  20.566  1.00  0.00    -0.113 N 
ATOM     34  H8  UNL     1      40.171   4.154  20.821  1.00  0.00     0.203 HD
ENDBRANCH  25  27
ENDBRANCH   2  25
BRANCH  12  35
HETATM   35  O2  UNL     1      33.351   8.756  22.847  1.00  0.00    -0.378 OA
ATOM     36  H2  UNL     1      33.400   9.531  23.395  1.00  0.00     0.211 HD
ENDBRANCH  12  35
TORSDOF 8
ENDMDL
MODEL 2
REMARK VINA RESULT: -6.661195813      0.867      1.211
REMARK  8 active torsions:
REMARK  status: ('A' for Active; 'I' for Inactive)
REMARK    1  A    between atoms: N1_1  and  C1_5 
REMARK    2  A    between atoms: C1_5  and  N2_6 
REMARK    3  A    between atoms: C1_5  and  C2_10 
REMARK    4  A    between atoms: C2_10  and  C3_11 
REMARK    5  A    between atoms: C3_11  and  N3_12 
REMARK    6  A    between atoms: C4_13  and  N4_14 
REMARK    7  A    between atoms: N4_14  and  C5_16 
REMARK    8  A    between atoms: C9_33  and  O2_34 
ROOT
HETATM    1  N3  UNL     1      36.124   3.569  24.271  1.00  0.00    -0.145 N 
HETATM    2  C4  UNL     1      36.423   3.963  23.002  1.00  0.00     0.702 A 
HETATM    3  N9  UNL     1      35.922   5.075  22.451  1.00  0.00    -0.192 N 
ATOM      4  H9  UNL     1      36.162   5.346  21.497  1.00  0.00     0.184 HD
HETATM    5  C6  UNL     1      35.082   5.829  23.205  1.00  0.00     0.063 A 
HETATM    6  C7  UNL     1      34.770   5.442  24.494  1.00  0.00     0.137 A 
HETATM    7  C8  UNL     1      35.294   4.291  25.050  1.00  0.00     0.291 A 
HETATM    8  O1  UNL     1      35.005   3.945  26.227  1.00  0.00    -0.265 OA
HETATM    9  N10 UNL     1      33.891   6.235  25.279  1.00  0.00    -0.295 N 
ATOM     10  H10 UNL     1      33.582   5.867  26.178  1.00  0.00     0.182 HD
HETATM   11  N11 UNL     1      33.433   7.480  24.886  1.00  0.00    -0.108 NA
HETATM   12  C9  UNL     1      34.186   8.049  23.798  1.00  0.00     0.236 C 
HETATM   13  C10 UNL     1      34.471   7.076  22.697  1.00  0.00     0.111 C 
ENDROOT
BRANCH   1  14
HETATM   14  C3  UNL     1      36.690   2.373  24.802  1.00  0.00     0.155 C 
BRANCH  14  15
HETATM   15  C2  UNL     1      35.797   1.162  24.667  1.00  0.00     0.083 C 
BRANCH  15  16
HETATM   16  C1  UNL     1      36.736  -0.042  24.521  1.00  0.00     0.379 C 
BRANCH  16  17
HETATM   17  N1  UNL     1      36.259  -0.820  23.412  1.00  0.00    -0.050 N 
ATOM     18  H13 UNL     1      35.635  -0.291  22.803  1.00  0.00     0.276 HD
ATOM     19  H12 UNL     1      36.990  -1.017  22.728  1.00  0.00     0.276 HD
ATOM     20  H11 UNL     1      35.824  -1.669  23.775  1.00  0.00     0.276 HD
ENDBRANCH  16  17
BRANCH  16  21
HETATM   21  N2  UNL     1      38.053   0.475  24.189  1.00  0.00    -0.050 N 
ATOM     22  H23 UNL     1      38.556  -0.124  23.533  1.00  0.00     0.276 HD
ATOM     23  H22 UNL     1      38.010   1.313  23.608  1.00  0.00     0.276 HD
ATOM     24  H21 UNL     1      38.570   0.627  25.055  1.00  0.00     0.276 HD
ENDBRANCH  16  21
ENDBRANCH  15  16
ENDBRANCH  14  15
ENDBRANCH   1  14
BRANCH   2  25
HETATM   25  N4  UNL     1      37.307   3.153  22.233  1.00  0.00    -0.019 N 
ATOM     26  H4  UNL     1      37.125   2.151  22.176  1.00  0.00     0.203 HD
BRANCH  25  27
HETATM   27  C5  UNL     1      38.313   3.624  21.614  1.00  0.00     0.725 A 
HETATM   28  N5  UNL     1      39.460   3.985  22.235  1.00  0.00    -0.117 N 
HETATM   29  N6  UNL     1      40.294   4.428  21.326  1.00  0.00    -0.212 N 
ATOM     30  H5  UNL     1      39.644   3.923  23.236  1.00  0.00     0.207 HD
HETATM   31  N7  UNL     1      39.693   4.352  20.147  1.00  0.00     0.009 NA
ATOM     32  H6  UNL     1      41.238   4.771  21.496  1.00  0.00     0.206 HD
HETATM   33  N8  UNL     1      38.475   3.860  20.307  1.00  0.00    -0.113 N 
ATOM     34  H8  UNL     1      37.788   3.692  19.572  1.00  0.00     0.203 HD
ENDBRANCH  25  27
ENDBRANCH   2  25
BRANCH  12  35
HETATM   35  O2  UNL     1      33.434   9.112  23.285  1.00  0.00    -0.378 OA
ATOM     36  H2  UNL     1      32.536   8.983  23.566  1.00  0.00     0.211 HD
ENDBRANCH  12  35
TORSDOF 8
ENDMDL
MODEL 3
REMARK VINA RESULT: -6.441624244      1.789      4.029
REMARK  8 active torsions:
REMARK  status: ('A' for Active; 'I' for Inactive)
REMARK    1  A    between atoms: N1_1  and  C1_5 
REMARK    2  A    between atoms: C1_5  and  N2_6 
REMARK    3  A    between atoms: C1_5  and  C2_10 
REMARK    4  A    between atoms: C2_10  and  C3_11 
REMARK    5  A    between atoms: C3_11  and  N3_12 
REMARK    6  A    between atoms: C4_13  and  N4_14 
REMARK    7  A    between atoms: N4_14  and  C5_16 
REMARK    8  A    between atoms: C9_33  and  O2_34 
ROOT
HETATM    1  N3  UNL     1      37.954   3.061  23.009  1.00  0.00    -0.145 N 
HETATM    2  C4  UNL     1      37.334   2.439  24.050  1.00  0.00     0.702 A 
HETATM    3  N9  UNL     1      36.290   2.973  24.695  1.00  0.00    -0.192 N 
ATOM      4  H9  UNL     1      35.844   2.486  25.472  1.00  0.00     0.184 HD
HETATM    5  C6  UNL     1      35.844   4.186  24.278  1.00  0.00     0.063 A 
HETATM    6  C7  UNL     1      36.464   4.828  23.223  1.00  0.00     0.137 A 
HETATM    7  C8  UNL     1      37.541   4.266  22.567  1.00  0.00     0.291 A 
HETATM    8  O1  UNL     1      38.101   4.857  21.605  1.00  0.00    -0.265 OA
HETATM    9  N10 UNL     1      35.993   6.096  22.791  1.00  0.00    -0.295 N 
ATOM     10  H10 UNL     1      36.539   6.603  22.094  1.00  0.00     0.182 HD
HETATM   11  N11 UNL     1      34.832   6.680  23.266  1.00  0.00    -0.108 NA
HETATM   12  C9  UNL     1      33.970   5.758  23.960  1.00  0.00     0.236 C 
HETATM   13  C10 UNL     1      34.698   4.867  24.918  1.00  0.00     0.111 C 
ENDROOT
BRANCH   1  14
HETATM   14  C3  UNL     1      39.064   2.441  22.363  1.00  0.00     0.155 C 
BRANCH  14  15
HETATM   15  C2  UNL     1      38.672   1.461  21.283  1.00  0.00     0.083 C 
BRANCH  15  16
HETATM   16  C1  UNL     1      39.141   2.080  19.959  1.00  0.00     0.379 C 
BRANCH  16  17
HETATM   17  N1  UNL     1      38.004   2.726  19.367  1.00  0.00    -0.050 N 
ATOM     18  H13 UNL     1      38.101   3.741  19.339  1.00  0.00     0.276 HD
ATOM     19  H12 UNL     1      37.942   2.563  18.361  1.00  0.00     0.276 HD
ATOM     20  H11 UNL     1      37.165   2.427  19.864  1.00  0.00     0.276 HD
ENDBRANCH  16  17
BRANCH  16  21
HETATM   21  N2  UNL     1      40.131   3.093  20.283  1.00  0.00    -0.050 N 
ATOM     22  H23 UNL     1      39.932   3.568  21.164  1.00  0.00     0.276 HD
ATOM     23  H22 UNL     1      41.032   2.690  20.542  1.00  0.00     0.276 HD
ATOM     24  H21 UNL     1      40.203   3.739  19.498  1.00  0.00     0.276 HD
ENDBRANCH  16  21
ENDBRANCH  15  16
ENDBRANCH  14  15
ENDBRANCH   1  14
BRANCH   2  25
HETATM   25  N4  UNL     1      37.822   1.168  24.467  1.00  0.00    -0.019 N 
ATOM     26  H4  UNL     1      38.631   1.135  25.087  1.00  0.00     0.203 HD
BRANCH  25  27
HETATM   27  C5  UNL     1      37.294   0.071  24.100  1.00  0.00     0.725 A 
HETATM   28  N5  UNL     1      38.013  -1.046  23.844  1.00  0.00    -0.117 N 
HETATM   29  N6  UNL     1      37.181  -1.995  23.491  1.00  0.00    -0.212 N 
ATOM     30  H5  UNL     1      39.027  -1.135  23.914  1.00  0.00     0.207 HD
HETATM   31  N7  UNL     1      35.954  -1.496  23.520  1.00  0.00     0.009 NA
ATOM     32  H6  UNL     1      37.434  -2.950  23.238  1.00  0.00     0.206 HD
HETATM   33  N8  UNL     1      36.006  -0.227  23.892  1.00  0.00    -0.113 N 
ATOM     34  H8  UNL     1      35.214   0.406  24.001  1.00  0.00     0.203 HD
ENDBRANCH  25  27
ENDBRANCH   2  25
BRANCH  12  35
HETATM   35  O2  UNL     1      33.032   6.519  24.667  1.00  0.00    -0.378 OA
ATOM     36  H2  UNL     1      32.293   6.662  24.087  1.00  0.00     0.211 HD
ENDBRANCH  12  35
TORSDOF 8
ENDMDL
MODEL 4
REMARK VINA RESULT: -6.399693701      1.181      1.749
REMARK  8 active torsions:
REMARK  status: ('A' for Active; 'I' for Inactive)
REMARK    1  A    between atoms: N1_1  and  C1_5 
REMARK    2  A    between atoms: C1_5  and  N2_6 
REMARK    3  A    between atoms: C1_5  and  C2_10 
REMARK    4  A    between atoms: C2_10  and  C3_11 
REMARK    5  A    between atoms: C3_11  and  N3_12 
REMARK    6  A    between atoms: C4_13  and  N4_14 
REMARK    7  A    between atoms: N4_14  and  C5_16 
REMARK    8  A    between atoms: C9_33  and  O2_34 
ROOT
HETATM    1  N3  UNL     1      36.446   3.456  24.265  1.00  0.00    -0.145 N 
HETATM    2  C4  UNL     1      37.027   3.981  23.152  1.00  0.00     0.702 A 
HETATM    3  N9  UNL     1      36.549   5.062  22.525  1.00  0.00    -0.192 N 
ATOM      4  H9  UNL     1      37.004   5.434  21.692  1.00  0.00     0.184 HD
HETATM    5  C6  UNL     1      35.435   5.647  23.038  1.00  0.00     0.063 A 
HETATM    6  C7  UNL     1      34.835   5.125  24.167  1.00  0.00     0.137 A 
HETATM    7  C8  UNL     1      35.340   4.008  24.804  1.00  0.00     0.291 A 
HETATM    8  O1  UNL     1      34.786   3.538  25.834  1.00  0.00    -0.265 OA
HETATM    9  N10 UNL     1      33.671   5.741  24.699  1.00  0.00    -0.295 N 
ATOM     10  H10 UNL     1      33.178   5.270  25.458  1.00  0.00     0.182 HD
HETATM   11  N11 UNL     1      33.171   6.947  24.242  1.00  0.00    -0.108 NA
HETATM   12  C9  UNL     1      34.110   7.688  23.438  1.00  0.00     0.236 C 
HETATM   13  C10 UNL     1      34.822   6.846  22.427  1.00  0.00     0.111 C 
ENDROOT
BRANCH   1  14
HETATM   14  C3  UNL     1      37.003   2.300  24.888  1.00  0.00     0.155 C 
BRANCH  14  15
HETATM   15  C2  UNL     1      36.323   1.009  24.498  1.00  0.00     0.083 C 
BRANCH  15  16
HETATM   16  C1  UNL     1      37.450   0.015  24.186  1.00  0.00     0.379 C 
BRANCH  16  17
HETATM   17  N1  UNL     1      37.504  -0.130  22.759  1.00  0.00    -0.050 N 
ATOM     18  H13 UNL     1      37.381   0.757  22.270  1.00  0.00     0.276 HD
ATOM     19  H12 UNL     1      38.443  -0.346  22.423  1.00  0.00     0.276 HD
ATOM     20  H11 UNL     1      36.817  -0.830  22.477  1.00  0.00     0.276 HD
ENDBRANCH  16  17
BRANCH  16  21
HETATM   21  N2  UNL     1      38.693   0.617  24.637  1.00  0.00    -0.050 N 
ATOM     22  H23 UNL     1      38.786   1.590  24.345  1.00  0.00     0.276 HD
ATOM     23  H22 UNL     1      38.710   0.771  25.646  1.00  0.00     0.276 HD
ATOM     24  H21 UNL     1      39.469   0.037  24.318  1.00  0.00     0.276 HD
ENDBRANCH  16  21
ENDBRANCH  15  16
ENDBRANCH  14  15
ENDBRANCH   1  14
BRANCH   2  25
HETATM   25  N4  UNL     1      38.194   3.348  22.635  1.00  0.00    -0.019 N 
ATOM     26  H4  UNL     1      38.107   2.410  22.243  1.00  0.00     0.203 HD
BRANCH  25  27
HETATM   27  C5  UNL     1      39.339   3.900  22.642  1.00  0.00     0.725 A 
HETATM   28  N5  UNL     1      40.278   3.643  23.582  1.00  0.00    -0.117 N 
HETATM   29  N6  UNL     1      41.337   4.365  23.309  1.00  0.00    -0.212 N 
ATOM     30  H5  UNL     1      40.178   2.999  24.367  1.00  0.00     0.207 HD
HETATM   31  N7  UNL     1      41.083   5.070  22.216  1.00  0.00     0.009 NA
ATOM     32  H6  UNL     1      42.205   4.382  23.845  1.00  0.00     0.206 HD
HETATM   33  N8  UNL     1      39.858   4.795  21.794  1.00  0.00    -0.113 N 
ATOM     34  H8  UNL     1      39.397   5.191  20.975  1.00  0.00     0.203 HD
ENDBRANCH  25  27
ENDBRANCH   2  25
BRANCH  12  35
HETATM   35  O2  UNL     1      33.389   8.687  22.775  1.00  0.00    -0.378 OA
ATOM     36  H2  UNL     1      33.843   9.508  22.924  1.00  0.00     0.211 HD
ENDBRANCH  12  35
TORSDOF 8
ENDMDL
MODEL 5
REMARK VINA RESULT: -6.365674588      2.616      6.324
REMARK  8 active torsions:
REMARK  status: ('A' for Active; 'I' for Inactive)
REMARK    1  A    between atoms: N1_1  and  C1_5 
REMARK    2  A    between atoms: C1_5  and  N2_6 
REMARK    3  A    between atoms: C1_5  and  C2_10 
REMARK    4  A    between atoms: C2_10  and  C3_11 
REMARK    5  A    between atoms: C3_11  and  N3_12 
REMARK    6  A    between atoms: C4_13  and  N4_14 
REMARK    7  A    between atoms: N4_14  and  C5_16 
REMARK    8  A    between atoms: C9_33  and  O2_34 
ROOT
HETATM    1  N3  UNL     1      37.606   4.416  22.934  1.00  0.00    -0.145 N 
HETATM    2  C4  UNL     1      36.674   4.408  23.926  1.00  0.00     0.702 A 
HETATM    3  N9  UNL     1      36.139   3.280  24.408  1.00  0.00    -0.192 N 
ATOM      4  H9  UNL     1      35.442   3.302  25.152  1.00  0.00     0.184 HD
HETATM    5  C6  UNL     1      36.558   2.104  23.873  1.00  0.00     0.063 A 
HETATM    6  C7  UNL     1      37.503   2.098  22.865  1.00  0.00     0.137 A 
HETATM    7  C8  UNL     1      38.046   3.270  22.377  1.00  0.00     0.291 A 
HETATM    8  O1  UNL     1      38.909   3.256  21.457  1.00  0.00    -0.265 OA
HETATM    9  N10 UNL     1      37.937   0.866  22.309  1.00  0.00    -0.295 N 
ATOM     10  H10 UNL     1      38.542   0.892  21.489  1.00  0.00     0.182 HD
HETATM   11  N11 UNL     1      37.582  -0.369  22.823  1.00  0.00    -0.108 NA
HETATM   12  C9  UNL     1      37.036  -0.299  24.154  1.00  0.00     0.236 C 
HETATM   13  C10 UNL     1      36.034   0.799  24.330  1.00  0.00     0.111 C 
ENDROOT
BRANCH   1  14
HETATM   14  C3  UNL     1      38.138   5.652  22.461  1.00  0.00     0.155 C 
BRANCH  14  15
HETATM   15  C2  UNL     1      39.352   6.127  23.225  1.00  0.00     0.083 C 
BRANCH  15  16
HETATM   16  C1  UNL     1      40.496   6.193  22.204  1.00  0.00     0.379 C 
BRANCH  16  17
HETATM   17  N1  UNL     1      41.300   5.019  22.392  1.00  0.00    -0.050 N 
ATOM     18  H13 UNL     1      41.181   4.338  21.642  1.00  0.00     0.276 HD
ATOM     19  H12 UNL     1      42.296   5.201  22.258  1.00  0.00     0.276 HD
ATOM     20  H11 UNL     1      41.095   4.628  23.312  1.00  0.00     0.276 HD
ENDBRANCH  16  17
BRANCH  16  21
HETATM   21  N2  UNL     1      39.897   6.136  20.881  1.00  0.00    -0.050 N 
ATOM     22  H23 UNL     1      40.546   5.791  20.172  1.00  0.00     0.276 HD
ATOM     23  H22 UNL     1      39.196   5.399  20.800  1.00  0.00     0.276 HD
ATOM     24  H21 UNL     1      39.524   7.057  20.653  1.00  0.00     0.276 HD
ENDBRANCH  16  21
ENDBRANCH  15  16
ENDBRANCH  14  15
ENDBRANCH   1  14
BRANCH   2  25
HETATM   25  N4  UNL     1      36.253   5.655  24.470  1.00  0.00    -0.019 N 
ATOM     26  H4  UNL     1      36.948   6.250  24.922  1.00  0.00     0.203 HD
BRANCH  25  27
HETATM   27  C5  UNL     1      35.049   6.060  24.418  1.00  0.00     0.725 A 
HETATM   28  N5  UNL     1      34.247   6.133  25.506  1.00  0.00    -0.117 N 
HETATM   29  N6  UNL     1      33.078   6.584  25.121  1.00  0.00    -0.212 N 
ATOM     30  H5  UNL     1      34.506   5.880  26.459  1.00  0.00     0.207 HD
HETATM   31  N7  UNL     1      33.131   6.797  23.814  1.00  0.00     0.009 NA
ATOM     32  H6  UNL     1      32.270   6.744  25.722  1.00  0.00     0.206 HD
HETATM   33  N8  UNL     1      34.336   6.479  23.367  1.00  0.00    -0.113 N 
ATOM     34  H8  UNL     1      34.660   6.542  22.402  1.00  0.00     0.203 HD
ENDBRANCH  25  27
ENDBRANCH   2  25
BRANCH  12  35
HETATM   35  O2  UNL     1      36.418  -1.527  24.414  1.00  0.00    -0.378 OA
ATOM     36  H2  UNL     1      36.164  -1.526  25.330  1.00  0.00     0.211 HD
ENDBRANCH  12  35
TORSDOF 8
ENDMDL
