MODEL 1
REMARK VINA RESULT: -7.204127862      0.000      0.000
REMARK  7 active torsions:
REMARK  status: ('A' for Active; 'I' for Inactive)
REMARK       I    between atoms: N1_1  and  C1_5 
REMARK       I    between atoms: C1_5  and  N2_6 
REMARK       I    between atoms: C1_5  and  N3_10 
REMARK    1  A    between atoms: N3_10  and  C2_12 
REMARK    2  A    between atoms: C4_18  and  C5_19 
REMARK    3  A    between atoms: C5_19  and  N6_20 
REMARK    4  A    between atoms: N6_20  and  N7_22 
REMARK    5  A    between atoms: N7_22  and  O1_23 
REMARK    6  A    between atoms: N7_22  and  C6_25 
REMARK    7  A    between atoms: C11_35  and  O2_36 
ROOT
HETATM    1  C2  UNL     1      35.094   4.838  23.996  1.00  0.00     0.153 A 
HETATM    2  N4  UNL     1      35.827   5.167  22.871  1.00  0.00    -0.284 N 
ATOM      3  H4  UNL     1      35.650   6.064  22.419  1.00  0.00     0.188 HD
HETATM    4  N5  UNL     1      36.742   4.378  22.359  1.00  0.00    -0.310 N 
ATOM      5  H5  UNL     1      37.249   4.679  21.526  1.00  0.00     0.186 HD
HETATM    6  C3  UNL     1      37.033   3.169  22.910  1.00  0.00     0.119 A 
HETATM    7  C4  UNL     1      36.354   2.759  24.028  1.00  0.00     0.015 A 
HETATM    8  C11 UNL     1      35.392   3.618  24.544  1.00  0.00     0.120 A 
ENDROOT
BRANCH   7   9
HETATM    9  C5  UNL     1      36.603   1.457  24.700  1.00  0.00     0.184 C 
BRANCH   9  10
HETATM   10  N6  UNL     1      35.905   0.374  24.119  1.00  0.00    -0.309 N 
ATOM     11  H6  UNL     1      34.926   0.496  23.860  1.00  0.00     0.182 HD
BRANCH  10  12
HETATM   12  N7  UNL     1      36.482  -0.786  23.901  1.00  0.00    -0.181 N 
BRANCH  12  13
HETATM   13  O1  UNL     1      36.032  -1.442  22.826  1.00  0.00    -0.271 OA
ATOM     14  H1  UNL     1      35.337  -2.064  23.002  1.00  0.00     0.246 HD
ENDBRANCH  12  13
BRANCH  12  15
HETATM   15  C6  UNL     1      37.854  -1.013  24.073  1.00  0.00     0.241 C 
HETATM   16  C7  UNL     1      38.382  -2.378  23.681  1.00  0.00     0.128 C 
HETATM   17  C8  UNL     1      39.518  -1.590  23.147  1.00  0.00     0.099 C 
HETATM   18  N8  UNL     1      40.742  -1.368  22.822  1.00  0.00    -0.293 N 
HETATM   19  N10 UNL     1      38.593  -0.535  22.911  1.00  0.00    -0.343 N 
HETATM   20  N9  UNL     1      41.147  -0.147  22.260  1.00  0.00    -0.334 N 
ATOM     21  H8  UNL     1      41.437  -2.099  22.976  1.00  0.00     0.188 HD
HETATM   22  C9  UNL     1      40.225   0.915  21.946  1.00  0.00     0.159 C 
ATOM     23  H9  UNL     1      42.138  -0.005  22.064  1.00  0.00     0.180 HD
HETATM   24  C10 UNL     1      38.817   0.355  21.795  1.00  0.00     0.147 C 
ENDBRANCH  12  15
ENDBRANCH  10  12
ENDBRANCH   9  10
ENDBRANCH   7   9
BRANCH   8  25
HETATM   25  O2  UNL     1      34.725   3.190  25.662  1.00  0.00    -0.356 OA
ATOM     26  H2  UNL     1      35.189   3.108  26.487  1.00  0.00     0.218 HD
ENDBRANCH   8  25
BRANCH   1  27
HETATM   27  N3  UNL     1      34.279   5.644  24.374  1.00  0.00    -0.324 N 
HETATM   28  C1  UNL     1      33.827   6.854  24.772  1.00  0.00     0.481 C 
HETATM   29  N1  UNL     1      33.575   7.695  23.579  1.00  0.00    -0.033 N 
HETATM   30  N2  UNL     1      32.521   6.852  25.451  1.00  0.00    -0.033 N 
ATOM     31  H13 UNL     1      32.793   7.392  22.999  1.00  0.00     0.278 HD
ATOM     32  H12 UNL     1      33.197   8.621  23.781  1.00  0.00     0.278 HD
ATOM     33  H11 UNL     1      34.481   7.697  23.109  1.00  0.00     0.278 HD
ATOM     34  H23 UNL     1      32.143   7.778  25.653  1.00  0.00     0.278 HD
ATOM     35  H22 UNL     1      31.738   6.548  24.871  1.00  0.00     0.278 HD
ATOM     36  H21 UNL     1      32.694   6.273  26.272  1.00  0.00     0.278 HD
ATOM     37  H3  UNL     1      33.431   5.078  24.420  1.00  0.00     0.165 HD
ENDBRANCH   1  27
TORSDOF 7
ENDMDL
MODEL 2
REMARK VINA RESULT: -7.153498524      1.711      2.475
REMARK  7 active torsions:
REMARK  status: ('A' for Active; 'I' for Inactive)
REMARK       I    between atoms: N1_1  and  C1_5 
REMARK       I    between atoms: C1_5  and  N2_6 
REMARK       I    between atoms: C1_5  and  N3_10 
REMARK    1  A    between atoms: N3_10  and  C2_12 
REMARK    2  A    between atoms: C4_18  and  C5_19 
REMARK    3  A    between atoms: C5_19  and  N6_20 
REMARK    4  A    between atoms: N6_20  and  N7_22 
REMARK    5  A    between atoms: N7_22  and  O1_23 
REMARK    6  A    between atoms: N7_22  and  C6_25 
REMARK    7  A    between atoms: C11_35  and  O2_36 
ROOT
HETATM    1  C2  UNL     1      35.044   4.657  24.067  1.00  0.00     0.153 A 
HETATM    2  N4  UNL     1      35.763   4.896  22.910  1.00  0.00    -0.284 N 
ATOM      3  H4  UNL     1      35.620   5.780  22.422  1.00  0.00     0.188 HD
HETATM    4  N5  UNL     1      36.620   4.037  22.412  1.00  0.00    -0.310 N 
ATOM      5  H5  UNL     1      37.119   4.273  21.554  1.00  0.00     0.186 HD
HETATM    6  C3  UNL     1      36.862   2.840  23.012  1.00  0.00     0.119 A 
HETATM    7  C4  UNL     1      36.194   2.518  24.164  1.00  0.00     0.015 A 
HETATM    8  C11 UNL     1      35.293   3.449  24.664  1.00  0.00     0.120 A 
ENDROOT
BRANCH   7   9
HETATM    9  C5  UNL     1      36.393   1.235  24.889  1.00  0.00     0.184 C 
BRANCH   9  10
HETATM   10  N6  UNL     1      37.352   0.386  24.291  1.00  0.00    -0.309 N 
ATOM     11  H6  UNL     1      38.306   0.725  24.168  1.00  0.00     0.182 HD
BRANCH  10  12
HETATM   12  N7  UNL     1      37.049  -0.827  23.888  1.00  0.00    -0.181 N 
BRANCH  12  13
HETATM   13  O1  UNL     1      35.807  -0.965  23.414  1.00  0.00    -0.271 OA
ATOM     14  H1  UNL     1      35.247  -1.536  23.926  1.00  0.00     0.246 HD
ENDBRANCH  12  13
BRANCH  12  15
HETATM   15  C6  UNL     1      37.936  -1.653  23.186  1.00  0.00     0.241 C 
HETATM   16  C7  UNL     1      39.176  -2.119  23.922  1.00  0.00     0.128 C 
HETATM   17  C8  UNL     1      38.888  -3.400  23.235  1.00  0.00     0.099 C 
HETATM   18  N8  UNL     1      39.174  -4.525  22.681  1.00  0.00    -0.293 N 
HETATM   19  N10 UNL     1      37.512  -3.045  23.285  1.00  0.00    -0.343 N 
HETATM   20  N9  UNL     1      38.179  -5.363  22.154  1.00  0.00    -0.334 N 
ATOM     21  H8  UNL     1      40.151  -4.816  22.624  1.00  0.00     0.188 HD
HETATM   22  C9  UNL     1      36.773  -5.064  22.249  1.00  0.00     0.159 C 
ATOM     23  H9  UNL     1      38.464  -6.222  21.684  1.00  0.00     0.180 HD
HETATM   24  C10 UNL     1      36.522  -4.092  23.395  1.00  0.00     0.147 C 
ENDBRANCH  12  15
ENDBRANCH  10  12
ENDBRANCH   9  10
ENDBRANCH   7   9
BRANCH   8  25
HETATM   25  O2  UNL     1      34.635   3.108  25.817  1.00  0.00    -0.356 OA
ATOM     26  H2  UNL     1      35.041   2.512  26.434  1.00  0.00     0.218 HD
ENDBRANCH   8  25
BRANCH   1  27
HETATM   27  N3  UNL     1      34.283   5.523  24.428  1.00  0.00    -0.324 N 
HETATM   28  C1  UNL     1      33.909   6.769  24.792  1.00  0.00     0.481 C 
HETATM   29  N1  UNL     1      33.691   7.586  23.574  1.00  0.00    -0.033 N 
HETATM   30  N2  UNL     1      32.614   6.867  25.485  1.00  0.00    -0.033 N 
ATOM     31  H13 UNL     1      32.885   7.311  23.014  1.00  0.00     0.278 HD
ATOM     32  H12 UNL     1      33.372   8.538  23.750  1.00  0.00     0.278 HD
ATOM     33  H11 UNL     1      34.589   7.518  23.094  1.00  0.00     0.278 HD
ATOM     34  H23 UNL     1      32.295   7.820  25.661  1.00  0.00     0.278 HD
ATOM     35  H22 UNL     1      31.808   6.592  24.924  1.00  0.00     0.278 HD
ATOM     36  H21 UNL     1      32.764   6.305  26.323  1.00  0.00     0.278 HD
ATOM     37  H3  UNL     1      33.405   5.010  24.503  1.00  0.00     0.165 HD
ENDBRANCH   1  27
TORSDOF 7
ENDMDL
MODEL 3
REMARK VINA RESULT: -7.096428494      1.887      2.419
REMARK  7 active torsions:
REMARK  status: ('A' for Active; 'I' for Inactive)
REMARK       I    between atoms: N1_1  and  C1_5 
REMARK       I    between atoms: C1_5  and  N2_6 
REMARK       I    between atoms: C1_5  and  N3_10 
REMARK    1  A    between atoms: N3_10  and  C2_12 
REMARK    2  A    between atoms: C4_18  and  C5_19 
REMARK    3  A    between atoms: C5_19  and  N6_20 
REMARK    4  A    between atoms: N6_20  and  N7_22 
REMARK    5  A    between atoms: N7_22  and  O1_23 
REMARK    6  A    between atoms: N7_22  and  C6_25 
REMARK    7  A    between atoms: C11_35  and  O2_36 
ROOT
HETATM    1  C2  UNL     1      35.098   4.566  24.028  1.00  0.00     0.153 A 
HETATM    2  N4  UNL     1      35.849   4.796  22.889  1.00  0.00    -0.284 N 
ATOM      3  H4  UNL     1      35.726   5.680  22.395  1.00  0.00     0.188 HD
HETATM    4  N5  UNL     1      36.713   3.929  22.416  1.00  0.00    -0.310 N 
ATOM      5  H5  UNL     1      37.235   4.159  21.570  1.00  0.00     0.186 HD
HETATM    6  C3  UNL     1      36.930   2.732  23.024  1.00  0.00     0.119 A 
HETATM    7  C4  UNL     1      36.230   2.418  24.159  1.00  0.00     0.015 A 
HETATM    8  C11 UNL     1      35.323   3.357  24.633  1.00  0.00     0.120 A 
ENDROOT
BRANCH   7   9
HETATM    9  C5  UNL     1      36.400   1.136  24.893  1.00  0.00     0.184 C 
BRANCH   9  10
HETATM   10  N6  UNL     1      36.234  -0.010  24.081  1.00  0.00    -0.309 N 
ATOM     11  H6  UNL     1      35.320  -0.195  23.666  1.00  0.00     0.182 HD
BRANCH  10  12
HETATM   12  N7  UNL     1      37.222  -0.843  23.847  1.00  0.00    -0.181 N 
BRANCH  12  13
HETATM   13  O1  UNL     1      38.409  -0.452  24.323  1.00  0.00    -0.271 OA
ATOM     14  H1  UNL     1      39.013  -0.126  23.667  1.00  0.00     0.246 HD
ENDBRANCH  12  13
BRANCH  12  15
HETATM   15  C6  UNL     1      37.097  -2.236  23.930  1.00  0.00     0.241 C 
HETATM   16  C7  UNL     1      35.945  -2.871  23.179  1.00  0.00     0.128 C 
HETATM   17  C8  UNL     1      36.957  -3.905  22.856  1.00  0.00     0.099 C 
HETATM   18  N8  UNL     1      37.379  -5.088  22.582  1.00  0.00    -0.293 N 
HETATM   19  N10 UNL     1      37.937  -2.877  22.925  1.00  0.00    -0.343 N 
HETATM   20  N9  UNL     1      38.739  -5.353  22.358  1.00  0.00    -0.334 N 
ATOM     21  H8  UNL     1      36.708  -5.854  22.524  1.00  0.00     0.188 HD
HETATM   22  C9  UNL     1      39.747  -4.323  22.354  1.00  0.00     0.159 C 
ATOM     23  H9  UNL     1      39.027  -6.318  22.191  1.00  0.00     0.180 HD
HETATM   24  C10 UNL     1      39.107  -2.968  22.083  1.00  0.00     0.147 C 
ENDBRANCH  12  15
ENDBRANCH  10  12
ENDBRANCH   9  10
ENDBRANCH   7   9
BRANCH   8  25
HETATM   25  O2  UNL     1      34.633   3.024  25.770  1.00  0.00    -0.356 OA
ATOM     26  H2  UNL     1      34.617   3.624  26.506  1.00  0.00     0.218 HD
ENDBRANCH   8  25
BRANCH   1  27
HETATM   27  N3  UNL     1      34.335   5.437  24.367  1.00  0.00    -0.324 N 
HETATM   28  C1  UNL     1      33.959   6.691  24.703  1.00  0.00     0.481 C 
HETATM   29  N1  UNL     1      33.749   7.484  23.469  1.00  0.00    -0.033 N 
HETATM   30  N2  UNL     1      32.659   6.802  25.386  1.00  0.00    -0.033 N 
ATOM     31  H13 UNL     1      32.946   7.197  22.908  1.00  0.00     0.278 HD
ATOM     32  H12 UNL     1      33.428   8.439  23.624  1.00  0.00     0.278 HD
ATOM     33  H11 UNL     1      34.650   7.407  22.996  1.00  0.00     0.278 HD
ATOM     34  H23 UNL     1      32.338   7.757  25.541  1.00  0.00     0.278 HD
ATOM     35  H22 UNL     1      31.856   6.515  24.825  1.00  0.00     0.278 HD
ATOM     36  H21 UNL     1      32.803   6.256  26.235  1.00  0.00     0.278 HD
ATOM     37  H3  UNL     1      33.456   4.926  24.445  1.00  0.00     0.165 HD
ENDBRANCH   1  27
TORSDOF 7
ENDMDL
MODEL 4
REMARK VINA RESULT: -7.048145810      1.981      2.864
REMARK  7 active torsions:
REMARK  status: ('A' for Active; 'I' for Inactive)
REMARK       I    between atoms: N1_1  and  C1_5 
REMARK       I    between atoms: C1_5  and  N2_6 
REMARK       I    between atoms: C1_5  and  N3_10 
REMARK    1  A    between atoms: N3_10  and  C2_12 
REMARK    2  A    between atoms: C4_18  and  C5_19 
REMARK    3  A    between atoms: C5_19  and  N6_20 
REMARK    4  A    between atoms: N6_20  and  N7_22 
REMARK    5  A    between atoms: N7_22  and  O1_23 
REMARK    6  A    between atoms: N7_22  and  C6_25 
REMARK    7  A    between atoms: C11_35  and  O2_36 
ROOT
HETATM    1  C2  UNL     1      35.054   4.455  24.687  1.00  0.00     0.153 A 
HETATM    2  N4  UNL     1      35.156   3.589  25.760  1.00  0.00    -0.284 N 
ATOM      3  H4  UNL     1      34.598   3.778  26.593  1.00  0.00     0.188 HD
HETATM    4  N5  UNL     1      35.937   2.535  25.756  1.00  0.00    -0.310 N 
ATOM      5  H5  UNL     1      35.967   1.935  26.581  1.00  0.00     0.186 HD
HETATM    6  C3  UNL     1      36.707   2.221  24.680  1.00  0.00     0.119 A 
HETATM    7  C4  UNL     1      36.671   3.024  23.570  1.00  0.00     0.015 A 
HETATM    8  C11 UNL     1      35.834   4.132  23.607  1.00  0.00     0.120 A 
ENDROOT
BRANCH   7   9
HETATM    9  C5  UNL     1      37.475   2.760  22.347  1.00  0.00     0.184 C 
BRANCH   9  10
HETATM   10  N6  UNL     1      37.740   1.389  22.125  1.00  0.00    -0.309 N 
ATOM     11  H6  UNL     1      36.966   0.765  21.895  1.00  0.00     0.182 HD
BRANCH  10  12
HETATM   12  N7  UNL     1      38.954   0.896  22.207  1.00  0.00    -0.181 N 
BRANCH  12  13
HETATM   13  O1  UNL     1      39.833   1.673  22.850  1.00  0.00    -0.271 OA
ATOM     14  H1  UNL     1      40.674   1.267  23.018  1.00  0.00     0.246 HD
ENDBRANCH  12  13
BRANCH  12  15
HETATM   15  C6  UNL     1      39.226  -0.457  22.453  1.00  0.00     0.241 C 
HETATM   16  C7  UNL     1      40.069  -0.780  23.670  1.00  0.00     0.128 C 
HETATM   17  C8  UNL     1      39.107  -1.897  23.820  1.00  0.00     0.099 C 
HETATM   18  N8  UNL     1      38.721  -3.075  24.162  1.00  0.00    -0.293 N 
HETATM   19  N10 UNL     1      38.134  -1.059  23.210  1.00  0.00    -0.343 N 
HETATM   20  N9  UNL     1      37.405  -3.513  23.945  1.00  0.00    -0.334 N 
ATOM     21  H8  UNL     1      39.389  -3.709  24.602  1.00  0.00     0.188 HD
HETATM   22  C9  UNL     1      36.380  -2.666  23.391  1.00  0.00     0.159 C 
ATOM     23  H9  UNL     1      37.164  -4.473  24.191  1.00  0.00     0.180 HD
HETATM   24  C10 UNL     1      36.748  -1.202  23.591  1.00  0.00     0.147 C 
ENDBRANCH  12  15
ENDBRANCH  10  12
ENDBRANCH   9  10
ENDBRANCH   7   9
BRANCH   8  25
HETATM   25  O2  UNL     1      35.812   4.922  22.488  1.00  0.00    -0.356 OA
ATOM     26  H2  UNL     1      36.606   5.354  22.199  1.00  0.00     0.218 HD
ENDBRANCH   8  25
BRANCH   1  27
HETATM   27  N3  UNL     1      34.303   5.392  24.808  1.00  0.00    -0.324 N 
HETATM   28  C1  UNL     1      33.941   6.693  24.833  1.00  0.00     0.481 C 
HETATM   29  N1  UNL     1      33.732   7.167  23.444  1.00  0.00    -0.033 N 
HETATM   30  N2  UNL     1      32.646   6.981  25.473  1.00  0.00    -0.033 N 
ATOM     31  H13 UNL     1      32.923   6.763  22.972  1.00  0.00     0.278 HD
ATOM     32  H12 UNL     1      33.422   8.135  23.365  1.00  0.00     0.278 HD
ATOM     33  H11 UNL     1      34.629   6.968  23.001  1.00  0.00     0.278 HD
ATOM     34  H23 UNL     1      32.337   7.949  25.394  1.00  0.00     0.278 HD
ATOM     35  H22 UNL     1      31.837   6.577  25.000  1.00  0.00     0.278 HD
ATOM     36  H21 UNL     1      32.790   6.655  26.428  1.00  0.00     0.278 HD
ATOM     37  H3  UNL     1      33.419   4.925  25.010  1.00  0.00     0.165 HD
ENDBRANCH   1  27
TORSDOF 7
ENDMDL
MODEL 5
REMARK VINA RESULT: -7.039642565      1.230      1.455
REMARK  7 active torsions:
REMARK  status: ('A' for Active; 'I' for Inactive)
REMARK       I    between atoms: N1_1  and  C1_5 
REMARK       I    between atoms: C1_5  and  N2_6 
REMARK       I    between atoms: C1_5  and  N3_10 
REMARK    1  A    between atoms: N3_10  and  C2_12 
REMARK    2  A    between atoms: C4_18  and  C5_19 
REMARK    3  A    between atoms: C5_19  and  N6_20 
REMARK    4  A    between atoms: N6_20  and  N7_22 
REMARK    5  A    between atoms: N7_22  and  O1_23 
REMARK    6  A    between atoms: N7_22  and  C6_25 
REMARK    7  A    between atoms: C11_35  and  O2_36 
ROOT
HETATM    1  C2  UNL     1      34.996   4.764  24.065  1.00  0.00     0.153 A 
HETATM    2  N4  UNL     1      35.707   5.028  22.909  1.00  0.00    -0.284 N 
ATOM      3  H4  UNL     1      35.544   5.913  22.428  1.00  0.00     0.188 HD
HETATM    4  N5  UNL     1      36.581   4.191  22.402  1.00  0.00    -0.310 N 
ATOM      5  H5  UNL     1      37.072   4.445  21.544  1.00  0.00     0.186 HD
HETATM    6  C3  UNL     1      36.849   2.995  22.991  1.00  0.00     0.119 A 
HETATM    7  C4  UNL     1      36.191   2.649  24.142  1.00  0.00     0.015 A 
HETATM    8  C11 UNL     1      35.272   3.557  24.651  1.00  0.00     0.120 A 
ENDROOT
BRANCH   7   9
HETATM    9  C5  UNL     1      36.419   1.365  24.856  1.00  0.00     0.184 C 
BRANCH   9  10
HETATM   10  N6  UNL     1      36.448   0.238  24.004  1.00  0.00    -0.309 N 
ATOM     11  H6  UNL     1      35.817   0.206  23.202  1.00  0.00     0.182 HD
BRANCH  10  12
HETATM   12  N7  UNL     1      37.263  -0.770  24.215  1.00  0.00    -0.181 N 
BRANCH  12  13
HETATM   13  O1  UNL     1      36.661  -1.955  24.364  1.00  0.00    -0.271 OA
ATOM     14  H1  UNL     1      37.234  -2.659  24.646  1.00  0.00     0.246 HD
ENDBRANCH  12  13
BRANCH  12  15
HETATM   15  C6  UNL     1      38.490  -0.925  23.556  1.00  0.00     0.241 C 
HETATM   16  C7  UNL     1      38.654  -0.214  22.228  1.00  0.00     0.128 C 
HETATM   17  C8  UNL     1      40.015   0.062  22.745  1.00  0.00     0.099 C 
HETATM   18  N8  UNL     1      41.280   0.279  22.663  1.00  0.00    -0.293 N 
HETATM   19  N10 UNL     1      39.454   0.052  24.051  1.00  0.00    -0.343 N 
HETATM   20  N9  UNL     1      42.069   0.496  23.804  1.00  0.00    -0.334 N 
ATOM     21  H8  UNL     1      41.723   0.293  21.743  1.00  0.00     0.188 HD
HETATM   22  C9  UNL     1      41.518   0.558  25.134  1.00  0.00     0.159 C 
ATOM     23  H9  UNL     1      43.075   0.615  23.686  1.00  0.00     0.180 HD
HETATM   24  C10 UNL     1      40.034   0.894  25.070  1.00  0.00     0.147 C 
ENDBRANCH  12  15
ENDBRANCH  10  12
ENDBRANCH   9  10
ENDBRANCH   7   9
BRANCH   8  25
HETATM   25  O2  UNL     1      34.625   3.193  25.803  1.00  0.00    -0.356 OA
ATOM     26  H2  UNL     1      34.679   2.297  26.113  1.00  0.00     0.218 HD
ENDBRANCH   8  25
BRANCH   1  27
HETATM   27  N3  UNL     1      34.218   5.610  24.435  1.00  0.00    -0.324 N 
HETATM   28  C1  UNL     1      33.821   6.843  24.820  1.00  0.00     0.481 C 
HETATM   29  N1  UNL     1      33.604   7.682  23.618  1.00  0.00    -0.033 N 
HETATM   30  N2  UNL     1      32.516   6.907  25.500  1.00  0.00    -0.033 N 
ATOM     31  H13 UNL     1      32.809   7.406  23.042  1.00  0.00     0.278 HD
ATOM     32  H12 UNL     1      33.269   8.625  23.810  1.00  0.00     0.278 HD
ATOM     33  H11 UNL     1      34.509   7.638  23.147  1.00  0.00     0.278 HD
ATOM     34  H23 UNL     1      32.180   7.851  25.692  1.00  0.00     0.278 HD
ATOM     35  H22 UNL     1      31.721   6.631  24.924  1.00  0.00     0.278 HD
ATOM     36  H21 UNL     1      32.665   6.330  26.327  1.00  0.00     0.278 HD
ATOM     37  H3  UNL     1      33.346   5.083  24.489  1.00  0.00     0.165 HD
ENDBRANCH   1  27
TORSDOF 7
ENDMDL
