MODEL 1
REMARK VINA RESULT: -6.272964409      0.000      0.000
REMARK  11 active torsions:
REMARK  status: ('A' for Active; 'I' for Inactive)
REMARK    1  A    between atoms: O1_2  and  C2_3 
REMARK    2  A    between atoms: C3_8  and  N3_9 
REMARK    3  A    between atoms: N3_9  and  C4_11 
REMARK    4  A    between atoms: C4_11  and  O2_12 
REMARK    5  A    between atoms: C4_11  and  C5_14 
REMARK    6  A    between atoms: C5_14  and  N4_15 
REMARK    7  A    between atoms: C5_14  and  O3_19 
REMARK    8  A    between atoms: C7_22  and  C8_23 
REMARK    9  A    between atoms: C8_23  and  O4_24 
REMARK   10  A    between atoms: C8_23  and  N5_26 
REMARK   11  A    between atoms: N5_26  and  C9_28 
ROOT
HETATM    1  C2  UNL     1      36.432   1.157  24.873  1.00  0.00     0.167 A 
HETATM    2  N1  UNL     1      35.251   1.449  25.442  1.00  0.00    -0.278 N 
ATOM      3  H1  UNL     1      34.699   0.684  25.830  1.00  0.00     0.189 HD
HETATM    4  N2  UNL     1      34.771   2.667  25.525  1.00  0.00    -0.284 N 
ATOM      5  H2  UNL     1      33.869   2.848  25.965  1.00  0.00     0.188 HD
HETATM    6  C3  UNL     1      35.520   3.685  25.002  1.00  0.00     0.118 A 
HETATM    7  C6  UNL     1      36.737   3.450  24.406  1.00  0.00     0.065 A 
HETATM    8  C7  UNL     1      37.225   2.143  24.331  1.00  0.00     0.046 A 
ENDROOT
BRANCH   6   9
HETATM    9  N3  UNL     1      35.038   4.845  25.094  1.00  0.00    -0.345 N 
ATOM     10  H3  UNL     1      34.714   5.119  26.022  1.00  0.00     0.163 HD
BRANCH   9  11
HETATM   11  C4  UNL     1      34.887   5.815  24.079  1.00  0.00     0.275 C 
BRANCH  11  12
HETATM   12  O2  UNL     1      35.848   6.808  24.131  1.00  0.00    -0.372 OA
ATOM     13  H2  UNL     1      35.501   7.673  23.944  1.00  0.00     0.212 HD
ENDBRANCH  11  12
BRANCH  11  14
HETATM   14  C5  UNL     1      33.466   6.356  23.983  1.00  0.00     0.365 C 
BRANCH  14  15
HETATM   15  N4  UNL     1      33.074   6.743  25.329  1.00  0.00    -0.049 N 
ATOM     16  H43 UNL     1      32.325   6.166  25.712  1.00  0.00     0.277 HD
ATOM     17  H42 UNL     1      33.779   6.523  26.033  1.00  0.00     0.277 HD
ATOM     18  H41 UNL     1      32.839   7.736  25.291  1.00  0.00     0.277 HD
ENDBRANCH  14  15
BRANCH  14  19
HETATM   19  O3  UNL     1      33.525   7.484  23.154  1.00  0.00    -0.367 OA
ATOM     20  H3  UNL     1      32.823   8.061  23.433  1.00  0.00     0.212 HD
ENDBRANCH  14  19
ENDBRANCH  11  14
ENDBRANCH   9  11
ENDBRANCH   6   9
BRANCH   8  21
HETATM   21  C8  UNL     1      38.517   1.833  23.707  1.00  0.00     0.257 C 
BRANCH  21  22
HETATM   22  O4  UNL     1      39.504   1.529  24.658  1.00  0.00    -0.372 OA
ATOM     23  H4  UNL     1      40.028   2.288  24.885  1.00  0.00     0.212 HD
ENDBRANCH  21  22
BRANCH  21  24
HETATM   24  N5  UNL     1      38.990   2.878  22.835  1.00  0.00    -0.352 N 
ATOM     25  H5  UNL     1      39.420   3.728  23.199  1.00  0.00     0.163 HD
BRANCH  24  26
HETATM   26  C9  UNL     1      38.837   2.677  21.546  1.00  0.00     0.107 A 
HETATM   27  C10 UNL     1      37.770   2.990  20.747  1.00  0.00     0.146 A 
HETATM   28  N6  UNL     1      37.860   2.687  19.485  1.00  0.00    -0.303 N 
HETATM   29  N7  UNL     1      38.931   2.112  19.031  1.00  0.00    -0.268 N 
ATOM     30  H6  UNL     1      37.088   2.902  18.853  1.00  0.00     0.186 HD
HETATM   31  S1  UNL     1      39.896   1.964  20.401  1.00  0.00     0.021 SA
ATOM     32  H7  UNL     1      39.137   1.820  18.075  1.00  0.00     0.195 HD
ENDBRANCH  24  26
ENDBRANCH  21  24
ENDBRANCH   8  21
BRANCH   1  33
HETATM   33  O1  UNL     1      36.923  -0.159  24.798  1.00  0.00    -0.339 OA
HETATM   34  C1  UNL     1      36.414  -1.034  23.814  1.00  0.00     0.211 C 
ENDBRANCH   1  33
TORSDOF 11
ENDMDL
MODEL 2
REMARK VINA RESULT: -6.265688648      2.846      6.794
REMARK  11 active torsions:
REMARK  status: ('A' for Active; 'I' for Inactive)
REMARK    1  A    between atoms: O1_2  and  C2_3 
REMARK    2  A    between atoms: C3_8  and  N3_9 
REMARK    3  A    between atoms: N3_9  and  C4_11 
REMARK    4  A    between atoms: C4_11  and  O2_12 
REMARK    5  A    between atoms: C4_11  and  C5_14 
REMARK    6  A    between atoms: C5_14  and  N4_15 
REMARK    7  A    between atoms: C5_14  and  O3_19 
REMARK    8  A    between atoms: C7_22  and  C8_23 
REMARK    9  A    between atoms: C8_23  and  O4_24 
REMARK   10  A    between atoms: C8_23  and  N5_26 
REMARK   11  A    between atoms: N5_26  and  C9_28 
ROOT
HETATM    1  C2  UNL     1      37.548   3.308  23.183  1.00  0.00     0.167 A 
HETATM    2  N1  UNL     1      38.412   2.400  22.700  1.00  0.00    -0.278 N 
ATOM      3  H1  UNL     1      39.142   2.718  22.063  1.00  0.00     0.189 HD
HETATM    4  N2  UNL     1      38.366   1.126  23.006  1.00  0.00    -0.284 N 
ATOM      5  H2  UNL     1      39.040   0.466  22.618  1.00  0.00     0.188 HD
HETATM    6  C3  UNL     1      37.382   0.710  23.862  1.00  0.00     0.118 A 
HETATM    7  C6  UNL     1      36.468   1.591  24.389  1.00  0.00     0.065 A 
HETATM    8  C7  UNL     1      36.540   2.943  24.047  1.00  0.00     0.046 A 
ENDROOT
BRANCH   6   9
HETATM    9  N3  UNL     1      37.359  -0.519  24.140  1.00  0.00    -0.345 N 
ATOM     10  H3  UNL     1      37.674  -0.768  25.078  1.00  0.00     0.163 HD
BRANCH   9  11
HETATM   11  C4  UNL     1      36.954  -1.595  23.321  1.00  0.00     0.275 C 
BRANCH  11  12
HETATM   12  O2  UNL     1      35.597  -1.592  23.052  1.00  0.00    -0.372 OA
ATOM     13  H2  UNL     1      35.079  -1.987  23.744  1.00  0.00     0.212 HD
ENDBRANCH  11  12
BRANCH  11  14
HETATM   14  C5  UNL     1      37.467  -2.942  23.815  1.00  0.00     0.365 C 
BRANCH  14  15
HETATM   15  N4  UNL     1      38.847  -2.737  24.228  1.00  0.00    -0.049 N 
ATOM     16  H43 UNL     1      39.422  -3.576  24.145  1.00  0.00     0.277 HD
ATOM     17  H42 UNL     1      39.378  -2.153  23.582  1.00  0.00     0.277 HD
ATOM     18  H41 UNL     1      38.816  -2.363  25.177  1.00  0.00     0.277 HD
ENDBRANCH  14  15
BRANCH  14  19
HETATM   19  O3  UNL     1      36.680  -3.287  24.921  1.00  0.00    -0.367 OA
ATOM     20  H3  UNL     1      35.779  -3.293  24.620  1.00  0.00     0.212 HD
ENDBRANCH  14  19
ENDBRANCH  11  14
ENDBRANCH   9  11
ENDBRANCH   6   9
BRANCH   8  21
HETATM   21  C8  UNL     1      35.591   3.929  24.579  1.00  0.00     0.257 C 
BRANCH  21  22
HETATM   22  O4  UNL     1      34.851   3.420  25.658  1.00  0.00    -0.372 OA
ATOM     23  H4  UNL     1      34.777   4.047  26.368  1.00  0.00     0.212 HD
ENDBRANCH  21  22
BRANCH  21  24
HETATM   24  N5  UNL     1      34.695   4.451  23.579  1.00  0.00    -0.352 N 
ATOM     25  H5  UNL     1      34.349   3.872  22.814  1.00  0.00     0.163 HD
BRANCH  24  26
HETATM   26  C9  UNL     1      34.349   5.711  23.705  1.00  0.00     0.107 A 
HETATM   27  C10 UNL     1      33.461   6.276  24.581  1.00  0.00     0.146 A 
HETATM   28  N6  UNL     1      33.287   7.563  24.508  1.00  0.00    -0.303 N 
HETATM   29  N7  UNL     1      33.944   8.258  23.630  1.00  0.00    -0.268 N 
ATOM     30  H6  UNL     1      32.635   8.026  25.142  1.00  0.00     0.186 HD
HETATM   31  S1  UNL     1      34.868   7.096  22.838  1.00  0.00     0.021 SA
ATOM     32  H7  UNL     1      33.908   9.263  23.461  1.00  0.00     0.195 HD
ENDBRANCH  24  26
ENDBRANCH  21  24
ENDBRANCH   8  21
BRANCH   1  33
HETATM   33  O1  UNL     1      37.621   4.670  22.838  1.00  0.00    -0.339 OA
HETATM   34  C1  UNL     1      38.883   5.294  22.736  1.00  0.00     0.211 C 
ENDBRANCH   1  33
TORSDOF 11
ENDMDL
MODEL 3
REMARK VINA RESULT: -6.238586900      2.131      2.794
REMARK  11 active torsions:
REMARK  status: ('A' for Active; 'I' for Inactive)
REMARK    1  A    between atoms: O1_2  and  C2_3 
REMARK    2  A    between atoms: C3_8  and  N3_9 
REMARK    3  A    between atoms: N3_9  and  C4_11 
REMARK    4  A    between atoms: C4_11  and  O2_12 
REMARK    5  A    between atoms: C4_11  and  C5_14 
REMARK    6  A    between atoms: C5_14  and  N4_15 
REMARK    7  A    between atoms: C5_14  and  O3_19 
REMARK    8  A    between atoms: C7_22  and  C8_23 
REMARK    9  A    between atoms: C8_23  and  O4_24 
REMARK   10  A    between atoms: C8_23  and  N5_26 
REMARK   11  A    between atoms: N5_26  and  C9_28 
ROOT
HETATM    1  C2  UNL     1      36.520   1.207  24.741  1.00  0.00     0.167 A 
HETATM    2  N1  UNL     1      35.477   1.467  25.546  1.00  0.00    -0.278 N 
ATOM      3  H1  UNL     1      35.080   0.700  26.088  1.00  0.00     0.189 HD
HETATM    4  N2  UNL     1      34.943   2.659  25.673  1.00  0.00    -0.284 N 
ATOM      5  H2  UNL     1      34.151   2.817  26.295  1.00  0.00     0.188 HD
HETATM    6  C3  UNL     1      35.484   3.682  24.943  1.00  0.00     0.118 A 
HETATM    7  C6  UNL     1      36.551   3.478  24.100  1.00  0.00     0.065 A 
HETATM    8  C7  UNL     1      37.100   2.199  23.984  1.00  0.00     0.046 A 
ENDROOT
BRANCH   6   9
HETATM    9  N3  UNL     1      34.953   4.816  25.083  1.00  0.00    -0.345 N 
ATOM     10  H3  UNL     1      34.549   5.007  25.999  1.00  0.00     0.163 HD
BRANCH   9  11
HETATM   11  C4  UNL     1      34.847   5.856  24.134  1.00  0.00     0.275 C 
BRANCH  11  12
HETATM   12  O2  UNL     1      35.811   6.836  24.291  1.00  0.00    -0.372 OA
ATOM     13  H2  UNL     1      35.683   7.580  23.715  1.00  0.00     0.212 HD
ENDBRANCH  11  12
BRANCH  11  14
HETATM   14  C5  UNL     1      33.433   6.414  24.022  1.00  0.00     0.365 C 
BRANCH  14  15
HETATM   15  N4  UNL     1      33.043   6.835  25.359  1.00  0.00    -0.049 N 
ATOM     16  H43 UNL     1      32.699   6.068  25.938  1.00  0.00     0.277 HD
ATOM     17  H42 UNL     1      33.836   7.094  25.947  1.00  0.00     0.277 HD
ATOM     18  H41 UNL     1      32.365   7.588  25.243  1.00  0.00     0.277 HD
ENDBRANCH  14  15
BRANCH  14  19
HETATM   19  O3  UNL     1      33.509   7.524  23.171  1.00  0.00    -0.367 OA
ATOM     20  H3  UNL     1      32.881   8.158  23.497  1.00  0.00     0.212 HD
ENDBRANCH  14  19
ENDBRANCH  11  14
ENDBRANCH   9  11
ENDBRANCH   6   9
BRANCH   8  21
HETATM   21  C8  UNL     1      38.240   1.923  23.100  1.00  0.00     0.257 C 
BRANCH  21  22
HETATM   22  O4  UNL     1      37.861   1.196  21.960  1.00  0.00    -0.372 OA
ATOM     23  H4  UNL     1      37.242   1.674  21.422  1.00  0.00     0.212 HD
ENDBRANCH  21  22
BRANCH  21  24
HETATM   24  N5  UNL     1      39.324   1.249  23.767  1.00  0.00    -0.352 N 
ATOM     25  H5  UNL     1      39.380   0.231  23.808  1.00  0.00     0.163 HD
BRANCH  24  26
HETATM   26  C9  UNL     1      40.236   2.013  24.321  1.00  0.00     0.107 A 
HETATM   27  C10 UNL     1      40.787   3.175  23.851  1.00  0.00     0.146 A 
HETATM   28  N6  UNL     1      41.683   3.756  24.593  1.00  0.00    -0.303 N 
HETATM   29  N7  UNL     1      42.022   3.230  25.730  1.00  0.00    -0.268 N 
ATOM     30  H6  UNL     1      42.119   4.624  24.281  1.00  0.00     0.186 HD
HETATM   31  S1  UNL     1      41.065   1.849  25.814  1.00  0.00     0.021 SA
ATOM     32  H7  UNL     1      42.704   3.572  26.408  1.00  0.00     0.195 HD
ENDBRANCH  24  26
ENDBRANCH  21  24
ENDBRANCH   8  21
BRANCH   1  33
HETATM   33  O1  UNL     1      37.072  -0.082  24.623  1.00  0.00    -0.339 OA
HETATM   34  C1  UNL     1      36.373  -1.074  23.904  1.00  0.00     0.211 C 
ENDBRANCH   1  33
TORSDOF 11
ENDMDL
MODEL 4
REMARK VINA RESULT: -6.183092596      2.546      3.813
REMARK  11 active torsions:
REMARK  status: ('A' for Active; 'I' for Inactive)
REMARK    1  A    between atoms: O1_2  and  C2_3 
REMARK    2  A    between atoms: C3_8  and  N3_9 
REMARK    3  A    between atoms: N3_9  and  C4_11 
REMARK    4  A    between atoms: C4_11  and  O2_12 
REMARK    5  A    between atoms: C4_11  and  C5_14 
REMARK    6  A    between atoms: C5_14  and  N4_15 
REMARK    7  A    between atoms: C5_14  and  O3_19 
REMARK    8  A    between atoms: C7_22  and  C8_23 
REMARK    9  A    between atoms: C8_23  and  O4_24 
REMARK   10  A    between atoms: C8_23  and  N5_26 
REMARK   11  A    between atoms: N5_26  and  C9_28 
ROOT
HETATM    1  C2  UNL     1      37.676   2.992  22.344  1.00  0.00     0.167 A 
HETATM    2  N1  UNL     1      37.101   4.162  22.020  1.00  0.00    -0.278 N 
ATOM      3  H1  UNL     1      37.442   4.655  21.194  1.00  0.00     0.189 HD
HETATM    4  N2  UNL     1      36.125   4.703  22.709  1.00  0.00    -0.284 N 
ATOM      5  H2  UNL     1      35.715   5.594  22.431  1.00  0.00     0.188 HD
HETATM    6  C3  UNL     1      35.676   4.032  23.814  1.00  0.00     0.118 A 
HETATM    7  C6  UNL     1      36.224   2.831  24.199  1.00  0.00     0.065 A 
HETATM    8  C7  UNL     1      37.263   2.277  23.446  1.00  0.00     0.046 A 
ENDROOT
BRANCH   6   9
HETATM    9  N3  UNL     1      34.738   4.572  24.459  1.00  0.00    -0.345 N 
ATOM     10  H3  UNL     1      34.022   3.939  24.815  1.00  0.00     0.163 HD
BRANCH   9  11
HETATM   11  C4  UNL     1      34.551   5.940  24.752  1.00  0.00     0.275 C 
BRANCH  11  12
HETATM   12  O2  UNL     1      34.865   6.263  26.060  1.00  0.00    -0.372 OA
ATOM     13  H2  UNL     1      35.342   7.081  26.138  1.00  0.00     0.212 HD
ENDBRANCH  11  12
BRANCH  11  14
HETATM   14  C5  UNL     1      33.187   6.459  24.314  1.00  0.00     0.365 C 
BRANCH  14  15
HETATM   15  N4  UNL     1      32.515   6.933  25.514  1.00  0.00    -0.049 N 
ATOM     16  H43 UNL     1      31.567   7.266  25.340  1.00  0.00     0.277 HD
ATOM     17  H42 UNL     1      32.271   6.184  26.162  1.00  0.00     0.277 HD
ATOM     18  H41 UNL     1      33.121   7.642  25.928  1.00  0.00     0.277 HD
ENDBRANCH  14  15
BRANCH  14  19
HETATM   19  O3  UNL     1      33.429   7.529  23.443  1.00  0.00    -0.367 OA
ATOM     20  H3  UNL     1      32.589   7.769  23.070  1.00  0.00     0.212 HD
ENDBRANCH  14  19
ENDBRANCH  11  14
ENDBRANCH   9  11
ENDBRANCH   6   9
BRANCH   8  21
HETATM   21  C8  UNL     1      37.885   0.998  23.809  1.00  0.00     0.257 C 
BRANCH  21  22
HETATM   22  O4  UNL     1      39.249   1.140  24.111  1.00  0.00    -0.372 OA
ATOM     23  H4  UNL     1      39.545   0.491  24.737  1.00  0.00     0.212 HD
ENDBRANCH  21  22
BRANCH  21  24
HETATM   24  N5  UNL     1      37.714  -0.020  22.804  1.00  0.00    -0.352 N 
ATOM     25  H5  UNL     1      37.668   0.208  21.811  1.00  0.00     0.163 HD
BRANCH  24  26
HETATM   26  C9  UNL     1      37.620  -1.257  23.234  1.00  0.00     0.107 A 
HETATM   27  C10 UNL     1      36.499  -1.975  23.553  1.00  0.00     0.146 A 
HETATM   28  N6  UNL     1      36.667  -3.198  23.961  1.00  0.00    -0.303 N 
HETATM   29  N7  UNL     1      37.864  -3.692  24.053  1.00  0.00    -0.268 N 
ATOM     30  H6  UNL     1      35.859  -3.769  24.209  1.00  0.00     0.186 HD
HETATM   31  S1  UNL     1      38.842  -2.417  23.552  1.00  0.00     0.021 SA
ATOM     32  H7  UNL     1      38.144  -4.625  24.355  1.00  0.00     0.195 HD
ENDBRANCH  24  26
ENDBRANCH  21  24
ENDBRANCH   8  21
BRANCH   1  33
HETATM   33  O1  UNL     1      38.722   2.434  21.587  1.00  0.00    -0.339 OA
HETATM   34  C1  UNL     1      38.627   2.417  20.179  1.00  0.00     0.211 C 
ENDBRANCH   1  33
TORSDOF 11
ENDMDL
MODEL 5
REMARK VINA RESULT: -6.166031313      2.585      3.910
REMARK  11 active torsions:
REMARK  status: ('A' for Active; 'I' for Inactive)
REMARK    1  A    between atoms: O1_2  and  C2_3 
REMARK    2  A    between atoms: C3_8  and  N3_9 
REMARK    3  A    between atoms: N3_9  and  C4_11 
REMARK    4  A    between atoms: C4_11  and  O2_12 
REMARK    5  A    between atoms: C4_11  and  C5_14 
REMARK    6  A    between atoms: C5_14  and  N4_15 
REMARK    7  A    between atoms: C5_14  and  O3_19 
REMARK    8  A    between atoms: C7_22  and  C8_23 
REMARK    9  A    between atoms: C8_23  and  O4_24 
REMARK   10  A    between atoms: C8_23  and  N5_26 
REMARK   11  A    between atoms: N5_26  and  C9_28 
ROOT
HETATM    1  C2  UNL     1      37.636   3.467  22.808  1.00  0.00     0.167 A 
HETATM    2  N1  UNL     1      37.389   4.705  22.348  1.00  0.00    -0.278 N 
ATOM      3  H1  UNL     1      38.108   5.166  21.791  1.00  0.00     0.189 HD
HETATM    4  N2  UNL     1      36.271   5.351  22.578  1.00  0.00    -0.284 N 
ATOM      5  H2  UNL     1      36.121   6.291  22.212  1.00  0.00     0.188 HD
HETATM    6  C3  UNL     1      35.313   4.722  23.326  1.00  0.00     0.118 A 
HETATM    7  C6  UNL     1      35.506   3.456  23.826  1.00  0.00     0.065 A 
HETATM    8  C7  UNL     1      36.707   2.791  23.566  1.00  0.00     0.046 A 
ENDROOT
BRANCH   6   9
HETATM    9  N3  UNL     1      34.248   5.364  23.533  1.00  0.00    -0.345 N 
ATOM     10  H3  UNL     1      33.387   4.901  23.241  1.00  0.00     0.163 HD
BRANCH   9  11
HETATM   11  C4  UNL     1      34.094   6.640  24.117  1.00  0.00     0.275 C 
BRANCH  11  12
HETATM   12  O2  UNL     1      32.943   6.754  24.876  1.00  0.00    -0.372 OA
ATOM     13  H2  UNL     1      32.172   6.947  24.357  1.00  0.00     0.212 HD
ENDBRANCH  11  12
BRANCH  11  14
HETATM   14  C5  UNL     1      34.270   7.775  23.115  1.00  0.00     0.365 C 
BRANCH  14  15
HETATM   15  N4  UNL     1      33.363   8.837  23.523  1.00  0.00    -0.049 N 
ATOM     16  H43 UNL     1      32.468   8.813  23.034  1.00  0.00     0.277 HD
ATOM     17  H42 UNL     1      32.997   8.713  24.467  1.00  0.00     0.277 HD
ATOM     18  H41 UNL     1      33.867   9.715  23.399  1.00  0.00     0.277 HD
ENDBRANCH  14  15
BRANCH  14  19
HETATM   19  O3  UNL     1      35.598   8.205  23.230  1.00  0.00    -0.367 OA
ATOM     20  H3  UNL     1      35.876   7.990  24.112  1.00  0.00     0.212 HD
ENDBRANCH  14  19
ENDBRANCH  11  14
ENDBRANCH   9  11
ENDBRANCH   6   9
BRANCH   8  21
HETATM   21  C8  UNL     1      36.969   1.438  24.073  1.00  0.00     0.257 C 
BRANCH  21  22
HETATM   22  O4  UNL     1      37.950   1.430  25.076  1.00  0.00    -0.372 OA
ATOM     23  H4  UNL     1      37.639   1.026  25.877  1.00  0.00     0.212 HD
ENDBRANCH  21  22
BRANCH  21  24
HETATM   24  N5  UNL     1      37.326   0.504  23.037  1.00  0.00    -0.352 N 
ATOM     25  H5  UNL     1      37.510   0.807  22.080  1.00  0.00     0.163 HD
BRANCH  24  26
HETATM   26  C9  UNL     1      37.403  -0.759  23.388  1.00  0.00     0.107 A 
HETATM   27  C10 UNL     1      36.391  -1.650  23.625  1.00  0.00     0.146 A 
HETATM   28  N6  UNL     1      36.726  -2.860  23.964  1.00  0.00    -0.303 N 
HETATM   29  N7  UNL     1      37.980  -3.181  24.065  1.00  0.00    -0.268 N 
ATOM     30  H6  UNL     1      36.004  -3.555  24.150  1.00  0.00     0.186 HD
HETATM   31  S1  UNL     1      38.773  -1.749  23.675  1.00  0.00     0.021 SA
ATOM     32  H7  UNL     1      38.385  -4.082  24.320  1.00  0.00     0.195 HD
ENDBRANCH  24  26
ENDBRANCH  21  24
ENDBRANCH   8  21
BRANCH   1  33
HETATM   33  O1  UNL     1      38.845   2.798  22.546  1.00  0.00    -0.339 OA
HETATM   34  C1  UNL     1      40.062   3.373  22.969  1.00  0.00     0.211 C 
ENDBRANCH   1  33
TORSDOF 11
ENDMDL
