MODEL 1
REMARK VINA RESULT: -4.600171974      0.000      0.000
REMARK  2 active torsions:
REMARK  status: ('A' for Active; 'I' for Inactive)
REMARK    1  A    between atoms: O1_1  and  C1_3 
REMARK    2  A    between atoms: N1_7  and  O2_8 
ROOT
HETATM    1  C1  UNL     1      -4.313 -35.439  -1.452  1.00  0.00     0.264 C 
HETATM    2  C2  UNL     1      -3.495 -36.536  -0.793  1.00  0.00     0.062 C 
HETATM    3  C3  UNL     1      -4.127 -36.872   0.529  1.00  0.00     0.027 C 
HETATM    4  C4  UNL     1      -5.545 -37.324   0.403  1.00  0.00     0.157 C 
HETATM    5  N1  UNL     1      -5.964 -37.671  -0.900  1.00  0.00    -0.250 N 
HETATM    6  C5  UNL     1      -6.276 -36.615  -1.782  1.00  0.00     0.254 C 
HETATM    7  O3  UNL     1      -5.189 -35.982  -2.358  1.00  0.00    -0.314 OA
ENDROOT
BRANCH   1   8
HETATM    8  O1  UNL     1      -3.394 -34.653  -2.172  1.00  0.00    -0.371 OA
ATOM      9  H1  UNL     1      -3.349 -33.821  -1.715  1.00  0.00     0.212 HD
ENDBRANCH   1   8
BRANCH   5  10
HETATM   10  O2  UNL     1      -5.489 -38.778  -1.419  1.00  0.00    -0.286 OA
ATOM     11  H2  UNL     1      -4.628 -38.744  -1.821  1.00  0.00     0.244 HD
ENDBRANCH   5  10
TORSDOF 2
ENDMDL
MODEL 2
REMARK VINA RESULT: -4.440803115      1.927      3.457
REMARK  2 active torsions:
REMARK  status: ('A' for Active; 'I' for Inactive)
REMARK    1  A    between atoms: O1_1  and  C1_3 
REMARK    2  A    between atoms: N1_7  and  O2_8 
ROOT
HETATM    1  C1  UNL     1      -6.286 -38.257   0.495  1.00  0.00     0.264 C 
HETATM    2  C2  UNL     1      -5.777 -37.550   1.738  1.00  0.00     0.062 C 
HETATM    3  C3  UNL     1      -4.294 -37.776   1.840  1.00  0.00     0.027 C 
HETATM    4  C4  UNL     1      -3.542 -37.280   0.648  1.00  0.00     0.157 C 
HETATM    5  N1  UNL     1      -4.256 -36.417  -0.211  1.00  0.00    -0.250 N 
HETATM    6  C5  UNL     1      -5.177 -37.006  -1.101  1.00  0.00     0.254 C 
HETATM    7  O3  UNL     1      -6.391 -37.369  -0.545  1.00  0.00    -0.314 OA
ENDROOT
BRANCH   1   8
HETATM    8  O1  UNL     1      -7.587 -38.696   0.808  1.00  0.00    -0.371 OA
ATOM      9  H1  UNL     1      -7.545 -39.646   0.822  1.00  0.00     0.212 HD
ENDBRANCH   1   8
BRANCH   5  10
HETATM   10  O2  UNL     1      -4.515 -35.205   0.220  1.00  0.00    -0.286 OA
ATOM     11  H2  UNL     1      -4.849 -34.574  -0.408  1.00  0.00     0.244 HD
ENDBRANCH   5  10
TORSDOF 2
ENDMDL
MODEL 3
REMARK VINA RESULT: -4.336652837      1.777      3.104
REMARK  2 active torsions:
REMARK  status: ('A' for Active; 'I' for Inactive)
REMARK    1  A    between atoms: O1_1  and  C1_3 
REMARK    2  A    between atoms: N1_7  and  O2_8 
ROOT
HETATM    1  C1  UNL     1      -5.705 -38.195  -1.065  1.00  0.00     0.264 C 
HETATM    2  C2  UNL     1      -6.462 -37.635   0.125  1.00  0.00     0.062 C 
HETATM    3  C3  UNL     1      -5.702 -37.977   1.377  1.00  0.00     0.027 C 
HETATM    4  C4  UNL     1      -4.308 -37.438   1.381  1.00  0.00     0.157 C 
HETATM    5  N1  UNL     1      -4.029 -36.455   0.408  1.00  0.00    -0.250 N 
HETATM    6  C5  UNL     1      -3.797 -36.897  -0.910  1.00  0.00     0.254 C 
HETATM    7  O3  UNL     1      -4.931 -37.216  -1.637  1.00  0.00    -0.314 OA
ENDROOT
BRANCH   1   8
HETATM    8  O1  UNL     1      -6.684 -38.563  -2.007  1.00  0.00    -0.371 OA
ATOM      9  H1  UNL     1      -6.484 -38.073  -2.796  1.00  0.00     0.212 HD
ENDBRANCH   1   8
BRANCH   5  10
HETATM   10  O2  UNL     1      -4.565 -35.269   0.568  1.00  0.00    -0.286 OA
ATOM     11  H2  UNL     1      -4.182 -34.542   0.089  1.00  0.00     0.244 HD
ENDBRANCH   5  10
TORSDOF 2
ENDMDL
MODEL 4
REMARK VINA RESULT: -4.292519594      3.725      4.442
REMARK  2 active torsions:
REMARK  status: ('A' for Active; 'I' for Inactive)
REMARK    1  A    between atoms: O1_1  and  C1_3 
REMARK    2  A    between atoms: N1_7  and  O2_8 
ROOT
HETATM    1  C1  UNL     1      -8.205 -38.547  -2.244  1.00  0.00     0.264 C 
HETATM    2  C2  UNL     1      -6.968 -38.863  -1.422  1.00  0.00     0.062 C 
HETATM    3  C3  UNL     1      -6.971 -37.987  -0.201  1.00  0.00     0.027 C 
HETATM    4  C4  UNL     1      -8.186 -38.170   0.649  1.00  0.00     0.157 C 
HETATM    5  N1  UNL     1      -8.959 -39.319   0.372  1.00  0.00    -0.250 N 
HETATM    6  C5  UNL     1      -9.814 -39.269  -0.748  1.00  0.00     0.254 C 
HETATM    7  O3  UNL     1      -9.197 -39.455  -1.974  1.00  0.00    -0.314 OA
ENDROOT
BRANCH   1   8
HETATM    8  O1  UNL     1      -7.829 -38.720  -3.589  1.00  0.00    -0.371 OA
ATOM      9  H1  UNL     1      -7.914 -39.650  -3.766  1.00  0.00     0.212 HD
ENDBRANCH   1   8
BRANCH   5  10
HETATM   10  O2  UNL     1      -8.461 -40.485   0.707  1.00  0.00    -0.286 OA
ATOM     11  H2  UNL     1      -8.881 -41.262   0.358  1.00  0.00     0.244 HD
ENDBRANCH   5  10
TORSDOF 2
ENDMDL
MODEL 5
REMARK VINA RESULT: -4.254837718      2.750      3.637
REMARK  2 active torsions:
REMARK  status: ('A' for Active; 'I' for Inactive)
REMARK    1  A    between atoms: O1_1  and  C1_3 
REMARK    2  A    between atoms: N1_7  and  O2_8 
ROOT
HETATM    1  C1  UNL     1      -6.301 -37.864  -0.599  1.00  0.00     0.264 C 
HETATM    2  C2  UNL     1      -7.222 -38.622   0.340  1.00  0.00     0.062 C 
HETATM    3  C3  UNL     1      -8.560 -37.936   0.353  1.00  0.00     0.027 C 
HETATM    4  C4  UNL     1      -9.191 -37.859  -0.999  1.00  0.00     0.157 C 
HETATM    5  N1  UNL     1      -8.624 -38.692  -1.988  1.00  0.00    -0.250 N 
HETATM    6  C5  UNL     1      -7.420 -38.262  -2.583  1.00  0.00     0.254 C 
HETATM    7  O3  UNL     1      -6.277 -38.471  -1.829  1.00  0.00    -0.314 OA
ENDROOT
BRANCH   1   8
HETATM    8  O1  UNL     1      -5.011 -37.977  -0.048  1.00  0.00    -0.371 OA
ATOM      9  H1  UNL     1      -4.883 -37.196   0.478  1.00  0.00     0.212 HD
ENDBRANCH   1   8
BRANCH   5  10
HETATM   10  O2  UNL     1      -8.826 -39.984  -1.888  1.00  0.00    -0.286 OA
ATOM     11  H2  UNL     1      -8.071 -40.539  -1.730  1.00  0.00     0.244 HD
ENDBRANCH   5  10
TORSDOF 2
ENDMDL
