MODEL 1
REMARK VINA RESULT: -3.178752916      0.000      0.000
REMARK  1 active torsions:
REMARK  status: ('A' for Active; 'I' for Inactive)
REMARK    1  A    between atoms: O1_1  and  C1_3 
ROOT
HETATM    1  C1  UNL     1      -8.199 -38.412  -2.448  1.00  0.00     0.285 C 
HETATM    2  N1  UNL     1      -9.113 -39.370  -1.969  1.00  0.00    -0.137 NA
HETATM    3  S1  UNL     1      -8.807 -39.757  -0.314  1.00  0.00    -0.052 SA
HETATM    4  C2  UNL     1      -7.441 -38.667   0.211  1.00  0.00     0.170 C 
HETATM    5  S2  UNL     1      -6.714 -38.409  -1.452  1.00  0.00    -0.109 SA
ENDROOT
BRANCH   1   6
HETATM    6  O1  UNL     1      -7.810 -38.627  -3.788  1.00  0.00    -0.370 OA
ATOM      7  H1  UNL     1      -8.507 -38.466  -4.414  1.00  0.00     0.212 HD
ENDBRANCH   1   6
TORSDOF 1
ENDMDL
MODEL 2
REMARK VINA RESULT: -3.133767819      1.651      2.083
REMARK  1 active torsions:
REMARK  status: ('A' for Active; 'I' for Inactive)
REMARK    1  A    between atoms: O1_1  and  C1_3 
ROOT
HETATM    1  C1  UNL     1      -7.447 -38.899  -2.113  1.00  0.00     0.285 C 
HETATM    2  N1  UNL     1      -6.188 -38.377  -1.755  1.00  0.00    -0.137 NA
HETATM    3  S1  UNL     1      -6.185 -37.808  -0.125  1.00  0.00    -0.052 SA
HETATM    4  C2  UNL     1      -7.833 -38.208   0.548  1.00  0.00     0.170 C 
HETATM    5  S2  UNL     1      -8.724 -38.235  -1.054  1.00  0.00    -0.109 SA
ENDROOT
BRANCH   1   6
HETATM    6  O1  UNL     1      -7.813 -38.617  -3.447  1.00  0.00    -0.370 OA
ATOM      7  H1  UNL     1      -7.074 -38.594  -4.045  1.00  0.00     0.212 HD
ENDBRANCH   1   6
TORSDOF 1
ENDMDL
MODEL 3
REMARK VINA RESULT: -3.128219277      4.497      4.822
REMARK  1 active torsions:
REMARK  status: ('A' for Active; 'I' for Inactive)
REMARK    1  A    between atoms: O1_1  and  C1_3 
ROOT
HETATM    1  C1  UNL     1      -3.696 -36.662  -0.285  1.00  0.00     0.285 C 
HETATM    2  N1  UNL     1      -3.969 -36.789   1.091  1.00  0.00    -0.137 NA
HETATM    3  S1  UNL     1      -5.491 -37.559   1.360  1.00  0.00    -0.052 SA
HETATM    4  C2  UNL     1      -6.124 -38.009  -0.292  1.00  0.00     0.170 C 
HETATM    5  S2  UNL     1      -5.209 -36.728  -1.233  1.00  0.00    -0.109 SA
ENDROOT
BRANCH   1   6
HETATM    6  O1  UNL     1      -3.040 -35.456  -0.617  1.00  0.00    -0.370 OA
ATOM      7  H1  UNL     1      -2.943 -35.324  -1.553  1.00  0.00     0.212 HD
ENDBRANCH   1   6
TORSDOF 1
ENDMDL
MODEL 4
REMARK VINA RESULT: -3.103305656      3.755      4.039
REMARK  1 active torsions:
REMARK  status: ('A' for Active; 'I' for Inactive)
REMARK    1  A    between atoms: O1_1  and  C1_3 
ROOT
HETATM    1  C1  UNL     1      -4.878 -37.100   0.444  1.00  0.00     0.285 C 
HETATM    2  N1  UNL     1      -5.872 -37.526   1.346  1.00  0.00    -0.137 NA
HETATM    3  S1  UNL     1      -7.123 -38.398   0.535  1.00  0.00    -0.052 SA
HETATM    4  C2  UNL     1      -6.602 -38.516  -1.209  1.00  0.00     0.170 C 
HETATM    5  S2  UNL     1      -5.529 -37.028  -1.219  1.00  0.00    -0.109 SA
ENDROOT
BRANCH   1   6
HETATM    6  O1  UNL     1      -4.353 -35.825   0.749  1.00  0.00    -0.370 OA
ATOM      7  H1  UNL     1      -4.881 -35.337   1.370  1.00  0.00     0.212 HD
ENDBRANCH   1   6
TORSDOF 1
ENDMDL
MODEL 5
REMARK VINA RESULT: -3.096078219      1.876      2.470
REMARK  1 active torsions:
REMARK  status: ('A' for Active; 'I' for Inactive)
REMARK    1  A    between atoms: O1_1  and  C1_3 
ROOT
HETATM    1  C1  UNL     1      -7.508 -38.325  -2.828  1.00  0.00     0.285 C 
HETATM    2  N1  UNL     1      -6.460 -37.414  -3.063  1.00  0.00    -0.137 NA
HETATM    3  S1  UNL     1      -5.729 -36.903  -1.585  1.00  0.00    -0.052 SA
HETATM    4  C2  UNL     1      -6.558 -37.848  -0.263  1.00  0.00     0.170 C 
HETATM    5  S2  UNL     1      -8.129 -38.150  -1.161  1.00  0.00    -0.109 SA
ENDROOT
BRANCH   1   6
HETATM    6  O1  UNL     1      -8.601 -38.163  -3.707  1.00  0.00    -0.370 OA
ATOM      7  H1  UNL     1      -9.035 -38.979  -3.926  1.00  0.00     0.212 HD
ENDBRANCH   1   6
TORSDOF 1
ENDMDL
