MODEL 1
REMARK VINA RESULT: -4.833960929      0.000      0.000
REMARK  2 active torsions:
REMARK  status: ('A' for Active; 'I' for Inactive)
REMARK    1  A    between atoms: C4_5  and  O1_6 
REMARK    2  A    between atoms: C6_9  and  O2_10 
ROOT
HETATM    1  N1  UNL     1      -6.846 -38.094   0.921  1.00  0.00    -0.197 NA
HETATM    2  C1  UNL     1      -6.112 -37.795   0.053  1.00  0.00     0.066 C 
HETATM    3  C2  UNL     1      -5.187 -37.418  -1.004  1.00  0.00     0.124 C 
HETATM    4  C3  UNL     1      -3.957 -36.746  -0.408  1.00  0.00     0.053 C 
HETATM    5  C4  UNL     1      -3.568 -35.808  -1.525  1.00  0.00     0.122 C 
HETATM    6  C5  UNL     1      -4.925 -35.161  -1.831  1.00  0.00     0.065 C 
HETATM    7  C6  UNL     1      -5.795 -36.407  -1.944  1.00  0.00     0.138 C 
ENDROOT
BRANCH   7   8
HETATM    8  O2  UNL     1      -5.896 -36.855  -3.243  1.00  0.00    -0.394 OA
ATOM      9  H2  UNL     1      -5.473 -36.284  -3.875  1.00  0.00     0.210 HD
ENDBRANCH   7   8
BRANCH   5  10
HETATM   10  O1  UNL     1      -2.618 -34.884  -1.169  1.00  0.00    -0.395 OA
ATOM     11  H1  UNL     1      -1.832 -35.265  -0.797  1.00  0.00     0.210 HD
ENDBRANCH   5  10
TORSDOF 2
ENDMDL
MODEL 2
REMARK VINA RESULT: -4.637323955      1.952      2.477
REMARK  2 active torsions:
REMARK  status: ('A' for Active; 'I' for Inactive)
REMARK    1  A    between atoms: C4_5  and  O1_6 
REMARK    2  A    between atoms: C6_9  and  O2_10 
ROOT
HETATM    1  N1  UNL     1      -8.052 -39.202   0.660  1.00  0.00    -0.197 NA
HETATM    2  C1  UNL     1      -7.529 -38.865  -0.338  1.00  0.00     0.066 C 
HETATM    3  C2  UNL     1      -6.869 -38.435  -1.559  1.00  0.00     0.124 C 
HETATM    4  C3  UNL     1      -5.917 -37.283  -1.262  1.00  0.00     0.053 C 
HETATM    5  C4  UNL     1      -5.959 -36.526  -2.567  1.00  0.00     0.122 C 
HETATM    6  C5  UNL     1      -7.473 -36.447  -2.795  1.00  0.00     0.065 C 
HETATM    7  C6  UNL     1      -7.854 -37.905  -2.571  1.00  0.00     0.138 C 
ENDROOT
BRANCH   7   8
HETATM    8  O2  UNL     1      -7.876 -38.624  -3.746  1.00  0.00    -0.394 OA
ATOM      9  H2  UNL     1      -8.122 -38.105  -4.503  1.00  0.00     0.210 HD
ENDBRANCH   7   8
BRANCH   5  10
HETATM   10  O1  UNL     1      -5.373 -35.287  -2.510  1.00  0.00    -0.395 OA
ATOM     11  H1  UNL     1      -5.415 -34.804  -3.326  1.00  0.00     0.210 HD
ENDBRANCH   5  10
TORSDOF 2
ENDMDL
MODEL 3
REMARK VINA RESULT: -4.631031305      1.805      2.196
REMARK  2 active torsions:
REMARK  status: ('A' for Active; 'I' for Inactive)
REMARK    1  A    between atoms: C4_5  and  O1_6 
REMARK    2  A    between atoms: C6_9  and  O2_10 
ROOT
HETATM    1  N1  UNL     1      -4.152 -37.421   2.227  1.00  0.00    -0.197 NA
HETATM    2  C1  UNL     1      -4.288 -37.391   1.060  1.00  0.00     0.066 C 
HETATM    3  C2  UNL     1      -4.447 -37.331  -0.384  1.00  0.00     0.124 C 
HETATM    4  C3  UNL     1      -4.305 -35.894  -0.867  1.00  0.00     0.053 C 
HETATM    5  C4  UNL     1      -5.205 -35.903  -2.079  1.00  0.00     0.122 C 
HETATM    6  C5  UNL     1      -6.457 -36.567  -1.491  1.00  0.00     0.065 C 
HETATM    7  C6  UNL     1      -5.824 -37.776  -0.813  1.00  0.00     0.138 C 
ENDROOT
BRANCH   7   8
HETATM    8  O2  UNL     1      -5.814 -38.885  -1.630  1.00  0.00    -0.394 OA
ATOM      9  H2  UNL     1      -6.547 -38.919  -2.233  1.00  0.00     0.210 HD
ENDBRANCH   7   8
BRANCH   5  10
HETATM   10  O1  UNL     1      -5.466 -34.656  -2.587  1.00  0.00    -0.395 OA
ATOM     11  H1  UNL     1      -4.935 -34.430  -3.342  1.00  0.00     0.210 HD
ENDBRANCH   5  10
TORSDOF 2
ENDMDL
MODEL 4
REMARK VINA RESULT: -4.453061822      4.046      5.580
REMARK  2 active torsions:
REMARK  status: ('A' for Active; 'I' for Inactive)
REMARK    1  A    between atoms: C4_5  and  O1_6 
REMARK    2  A    between atoms: C6_9  and  O2_10 
ROOT
HETATM    1  N1  UNL     1      -7.976 -38.555  -3.468  1.00  0.00    -0.197 NA
HETATM    2  C1  UNL     1      -7.822 -38.876  -2.348  1.00  0.00     0.066 C 
HETATM    3  C2  UNL     1      -7.650 -39.289  -0.965  1.00  0.00     0.124 C 
HETATM    4  C3  UNL     1      -8.787 -40.214  -0.549  1.00  0.00     0.053 C 
HETATM    5  C4  UNL     1      -8.891 -39.905   0.924  1.00  0.00     0.122 C 
HETATM    6  C5  UNL     1      -8.906 -38.371   0.887  1.00  0.00     0.065 C 
HETATM    7  C6  UNL     1      -7.709 -38.115  -0.019  1.00  0.00     0.138 C 
ENDROOT
BRANCH   7   8
HETATM    8  O2  UNL     1      -6.546 -37.926   0.696  1.00  0.00    -0.394 OA
ATOM      9  H2  UNL     1      -5.847 -38.519   0.447  1.00  0.00     0.210 HD
ENDBRANCH   7   8
BRANCH   5  10
HETATM   10  O1  UNL     1     -10.011 -40.424   1.523  1.00  0.00    -0.395 OA
ATOM     11  H1  UNL     1      -9.896 -41.307   1.852  1.00  0.00     0.210 HD
ENDBRANCH   5  10
TORSDOF 2
ENDMDL
MODEL 5
REMARK VINA RESULT: -4.368718047      1.763      2.408
REMARK  2 active torsions:
REMARK  status: ('A' for Active; 'I' for Inactive)
REMARK    1  A    between atoms: C4_5  and  O1_6 
REMARK    2  A    between atoms: C6_9  and  O2_10 
ROOT
HETATM    1  N1  UNL     1      -6.586 -38.957  -1.650  1.00  0.00    -0.197 NA
HETATM    2  C1  UNL     1      -6.107 -37.960  -1.251  1.00  0.00     0.066 C 
HETATM    3  C2  UNL     1      -5.516 -36.718  -0.781  1.00  0.00     0.124 C 
HETATM    4  C3  UNL     1      -5.125 -35.843  -1.965  1.00  0.00     0.053 C 
HETATM    5  C4  UNL     1      -3.942 -35.097  -1.400  1.00  0.00     0.122 C 
HETATM    6  C5  UNL     1      -3.142 -36.260  -0.798  1.00  0.00     0.065 C 
HETATM    7  C6  UNL     1      -4.242 -36.962  -0.012  1.00  0.00     0.138 C 
ENDROOT
BRANCH   7   8
HETATM    8  O2  UNL     1      -4.299 -36.535   1.297  1.00  0.00    -0.394 OA
ATOM      9  H2  UNL     1      -4.982 -36.958   1.805  1.00  0.00     0.210 HD
ENDBRANCH   7   8
BRANCH   5  10
HETATM   10  O1  UNL     1      -3.224 -34.400  -2.338  1.00  0.00    -0.395 OA
ATOM     11  H1  UNL     1      -3.576 -33.538  -2.529  1.00  0.00     0.210 HD
ENDBRANCH   5  10
TORSDOF 2
ENDMDL
