MODEL 1
REMARK VINA RESULT: -4.279413493      0.000      0.000
REMARK  2 active torsions:
REMARK  status: ('A' for Active; 'I' for Inactive)
REMARK    1  A    between atoms: O1_1  and  N1_3 
REMARK    2  A    between atoms: N2_8  and  O2_9 
ROOT
HETATM    1  N1  UNL     1      -6.465 -38.043  -2.450  1.00  0.00    -0.093 NA
HETATM    2  C1  UNL     1      -5.965 -37.965  -1.135  1.00  0.00     0.144 C 
HETATM    3  C2  UNL     1      -6.960 -37.743  -0.057  1.00  0.00     0.030 C 
HETATM    4  C3  UNL     1      -7.745 -39.049   0.121  1.00  0.00     0.096 C 
HETATM    5  S1  UNL     1      -8.571 -39.297  -1.500  1.00  0.00    -0.034 SA
HETATM    6  N2  UNL     1      -7.812 -38.171  -2.607  1.00  0.00    -0.039 NA
ENDROOT
BRANCH   1   7
HETATM    7  O1  UNL     1      -6.045 -36.973  -3.179  1.00  0.00    -0.295 OA
ATOM      8  H1  UNL     1      -6.751 -36.652  -3.729  1.00  0.00     0.238 HD
ENDBRANCH   1   7
BRANCH   6   9
HETATM    9  O2  UNL     1      -8.053 -38.616  -3.879  1.00  0.00    -0.286 OA
ATOM     10  H2  UNL     1      -8.725 -39.285  -3.836  1.00  0.00     0.239 HD
ENDBRANCH   6   9
TORSDOF 2
ENDMDL
MODEL 2
REMARK VINA RESULT: -4.230167030      1.412      2.261
REMARK  2 active torsions:
REMARK  status: ('A' for Active; 'I' for Inactive)
REMARK    1  A    between atoms: O1_1  and  N1_3 
REMARK    2  A    between atoms: N2_8  and  O2_9 
ROOT
HETATM    1  N1  UNL     1      -7.826 -37.988  -2.724  1.00  0.00    -0.093 NA
HETATM    2  C1  UNL     1      -8.620 -38.612  -1.741  1.00  0.00     0.144 C 
HETATM    3  C2  UNL     1      -7.901 -39.350  -0.674  1.00  0.00     0.030 C 
HETATM    4  C3  UNL     1      -7.250 -38.310   0.247  1.00  0.00     0.096 C 
HETATM    5  S1  UNL     1      -6.076 -37.419  -0.848  1.00  0.00    -0.034 SA
HETATM    6  N2  UNL     1      -6.489 -37.886  -2.485  1.00  0.00    -0.039 NA
ENDROOT
BRANCH   1   7
HETATM    7  O1  UNL     1      -8.003 -38.595  -3.930  1.00  0.00    -0.295 OA
ATOM      8  H1  UNL     1      -8.235 -37.953  -4.591  1.00  0.00     0.238 HD
ENDBRANCH   1   7
BRANCH   6   9
HETATM    9  O2  UNL     1      -5.975 -36.938  -3.327  1.00  0.00    -0.286 OA
ATOM     10  H2  UNL     1      -5.029 -37.019  -3.322  1.00  0.00     0.239 HD
ENDBRANCH   6   9
TORSDOF 2
ENDMDL
MODEL 3
REMARK VINA RESULT: -4.199643566      2.451      3.031
REMARK  2 active torsions:
REMARK  status: ('A' for Active; 'I' for Inactive)
REMARK    1  A    between atoms: O1_1  and  N1_3 
REMARK    2  A    between atoms: N2_8  and  O2_9 
ROOT
HETATM    1  N1  UNL     1      -6.531 -37.778  -1.256  1.00  0.00    -0.093 NA
HETATM    2  C1  UNL     1      -6.189 -37.752   0.111  1.00  0.00     0.144 C 
HETATM    3  C2  UNL     1      -4.762 -37.505   0.436  1.00  0.00     0.030 C 
HETATM    4  C3  UNL     1      -4.474 -36.026   0.144  1.00  0.00     0.096 C 
HETATM    5  S1  UNL     1      -4.780 -35.859  -1.658  1.00  0.00    -0.034 SA
HETATM    6  N2  UNL     1      -5.606 -37.325  -2.147  1.00  0.00    -0.039 NA
ENDROOT
BRANCH   1   7
HETATM    7  O1  UNL     1      -6.907 -39.033  -1.625  1.00  0.00    -0.295 OA
ATOM      8  H1  UNL     1      -7.155 -39.540  -0.861  1.00  0.00     0.238 HD
ENDBRANCH   1   7
BRANCH   6   9
HETATM    9  O2  UNL     1      -6.244 -37.064  -3.330  1.00  0.00    -0.286 OA
ATOM     10  H2  UNL     1      -5.846 -37.601  -4.005  1.00  0.00     0.239 HD
ENDBRANCH   6   9
TORSDOF 2
ENDMDL
MODEL 4
REMARK VINA RESULT: -4.130398846      2.281      2.695
REMARK  2 active torsions:
REMARK  status: ('A' for Active; 'I' for Inactive)
REMARK    1  A    between atoms: O1_1  and  N1_3 
REMARK    2  A    between atoms: N2_8  and  O2_9 
ROOT
HETATM    1  N1  UNL     1      -4.353 -36.444  -1.806  1.00  0.00    -0.093 NA
HETATM    2  C1  UNL     1      -3.802 -36.536  -0.512  1.00  0.00     0.144 C 
HETATM    3  C2  UNL     1      -4.758 -36.502   0.622  1.00  0.00     0.030 C 
HETATM    4  C3  UNL     1      -5.498 -37.846   0.640  1.00  0.00     0.096 C 
HETATM    5  S1  UNL     1      -6.382 -37.890  -0.968  1.00  0.00    -0.034 SA
HETATM    6  N2  UNL     1      -5.701 -36.594  -1.931  1.00  0.00    -0.039 NA
ENDROOT
BRANCH   1   7
HETATM    7  O1  UNL     1      -3.994 -35.268  -2.390  1.00  0.00    -0.295 OA
ATOM      8  H1  UNL     1      -4.636 -34.595  -2.197  1.00  0.00     0.238 HD
ENDBRANCH   1   7
BRANCH   6   9
HETATM    9  O2  UNL     1      -5.982 -36.863  -3.243  1.00  0.00    -0.286 OA
ATOM     10  H2  UNL     1      -5.161 -37.020  -3.695  1.00  0.00     0.239 HD
ENDBRANCH   6   9
TORSDOF 2
ENDMDL
MODEL 5
REMARK VINA RESULT: -4.001782675      1.756      2.090
REMARK  2 active torsions:
REMARK  status: ('A' for Active; 'I' for Inactive)
REMARK    1  A    between atoms: O1_1  and  N1_3 
REMARK    2  A    between atoms: N2_8  and  O2_9 
ROOT
HETATM    1  N1  UNL     1      -6.407 -38.287  -1.813  1.00  0.00    -0.093 NA
HETATM    2  C1  UNL     1      -7.286 -38.840  -0.860  1.00  0.00     0.144 C 
HETATM    3  C2  UNL     1      -8.315 -37.932  -0.296  1.00  0.00     0.030 C 
HETATM    4  C3  UNL     1      -9.361 -37.685  -1.391  1.00  0.00     0.096 C 
HETATM    5  S1  UNL     1      -8.416 -36.862  -2.732  1.00  0.00    -0.034 SA
HETATM    6  N2  UNL     1      -6.723 -37.066  -2.329  1.00  0.00    -0.039 NA
ENDROOT
BRANCH   1   7
HETATM    7  O1  UNL     1      -5.143 -38.229  -1.312  1.00  0.00    -0.295 OA
ATOM      8  H1  UNL     1      -4.625 -37.597  -1.797  1.00  0.00     0.238 HD
ENDBRANCH   1   7
BRANCH   6   9
HETATM    9  O2  UNL     1      -6.000 -36.888  -3.477  1.00  0.00    -0.286 OA
ATOM     10  H2  UNL     1      -6.535 -36.399  -4.091  1.00  0.00     0.239 HD
ENDBRANCH   6   9
TORSDOF 2
ENDMDL
