MODEL 1
REMARK VINA RESULT: -5.791632386      0.000      0.000
REMARK  9 active torsions:
REMARK  status: ('A' for Active; 'I' for Inactive)
REMARK    1  A    between atoms: N1_1  and  C1_4 
REMARK    2  A    between atoms: C4_10  and  O2_11 
REMARK    3  A    between atoms: N3_13  and  C5_14 
REMARK    4  A    between atoms: C5_14  and  C6_15 
REMARK    5  A    between atoms: C6_15  and  C7_16 
REMARK    6  A    between atoms: C6_15  and  O4_19 
REMARK    7  A    between atoms: C7_16  and  O3_17 
REMARK    8  A    between atoms: O4_19  and  N4_20 
REMARK    9  A    between atoms: N5_24  and  N6_25 
ROOT
HETATM    1  C1  UNL     1      38.401 -22.679 116.506  1.00  0.00     0.680 A 
HETATM    2  N2  UNL     1      37.914 -21.454 116.370  1.00  0.00    -0.155 N 
ATOM      3  H2  UNL     1      36.988 -21.313 115.965  1.00  0.00     0.187 HD
HETATM    4  C2  UNL     1      38.637 -20.408 116.764  1.00  0.00     0.278 A 
HETATM    5  O1  UNL     1      38.207 -19.223 116.650  1.00  0.00    -0.266 OA
HETATM    6  C3  UNL     1      39.887 -20.551 117.313  1.00  0.00     0.130 A 
HETATM    7  C4  UNL     1      40.874 -19.746 117.809  1.00  0.00     0.177 A 
HETATM    8  N3  UNL     1      41.922 -20.477 118.230  1.00  0.00    -0.266 N 
HETATM    9  N8  UNL     1      41.578 -21.733 117.992  1.00  0.00    -0.280 N 
ATOM     10  H8  UNL     1      42.176 -22.531 118.207  1.00  0.00     0.189 HD
HETATM   11  C10 UNL     1      40.376 -21.845 117.446  1.00  0.00     0.155 A 
HETATM   12  N9  UNL     1      39.618 -22.884 117.036  1.00  0.00    -0.174 N 
ATOM     13  H9  UNL     1      39.973 -23.836 117.131  1.00  0.00     0.186 HD
ENDROOT
BRANCH   8  14
HETATM   14  C5  UNL     1      43.163 -20.097 118.809  1.00  0.00     0.187 C 
BRANCH  14  15
HETATM   15  C6  UNL     1      44.164 -19.518 117.870  1.00  0.00     0.190 C 
BRANCH  15  16
HETATM   16  C7  UNL     1      45.435 -19.072 118.546  1.00  0.00     0.199 C 
BRANCH  16  17
HETATM   17  O3  UNL     1      45.631 -17.728 118.270  1.00  0.00    -0.398 OA
ATOM     18  H3  UNL     1      46.414 -17.439 118.723  1.00  0.00     0.209 HD
ENDBRANCH  16  17
ENDBRANCH  15  16
BRANCH  15  19
HETATM   19  O4  UNL     1      43.590 -18.360 117.333  1.00  0.00    -0.276 OA
BRANCH  19  20
HETATM   20  N4  UNL     1      43.707 -18.264 116.014  1.00  0.00    -0.077 NA
HETATM   21  C8  UNL     1      43.897 -19.509 115.341  1.00  0.00     0.250 C 
HETATM   22  C9  UNL     1      42.735 -19.599 114.389  1.00  0.00     0.272 C 
HETATM   23  O5  UNL     1      42.566 -20.443 113.471  1.00  0.00    -0.269 OA
HETATM   24  N5  UNL     1      41.880 -18.538 114.747  1.00  0.00    -0.153 N 
HETATM   25  N7  UNL     1      42.666 -17.583 115.400  1.00  0.00     0.004 NA
BRANCH  24  26
HETATM   26  N6  UNL     1      40.501 -18.463 114.491  1.00  0.00    -0.323 N 
ATOM     27  H62 UNL     1      40.055 -18.227 113.605  1.00  0.00     0.178 HD
ATOM     28  H61 UNL     1      39.755 -18.635 115.165  1.00  0.00     0.178 HD
ENDBRANCH  24  26
ENDBRANCH  19  20
ENDBRANCH  15  19
ENDBRANCH  14  15
ENDBRANCH   8  14
BRANCH   7  29
HETATM   29  O2  UNL     1      40.820 -18.379 117.876  1.00  0.00    -0.344 OA
ATOM     30  H2  UNL     1      40.465 -17.880 118.602  1.00  0.00     0.219 HD
ENDBRANCH   7  29
BRANCH   1  31
HETATM   31  N1  UNL     1      37.681 -23.682 116.116  1.00  0.00    -0.234 N 
ATOM     32  H12 UNL     1      37.658 -23.947 115.131  1.00  0.00     0.174 HD
ATOM     33  H11 UNL     1      37.142 -24.197 116.811  1.00  0.00     0.174 HD
ENDBRANCH   1  31
TORSDOF 9
ENDMDL
MODEL 2
REMARK VINA RESULT: -5.751772360      1.226      1.432
REMARK  9 active torsions:
REMARK  status: ('A' for Active; 'I' for Inactive)
REMARK    1  A    between atoms: N1_1  and  C1_4 
REMARK    2  A    between atoms: C4_10  and  O2_11 
REMARK    3  A    between atoms: N3_13  and  C5_14 
REMARK    4  A    between atoms: C5_14  and  C6_15 
REMARK    5  A    between atoms: C6_15  and  C7_16 
REMARK    6  A    between atoms: C6_15  and  O4_19 
REMARK    7  A    between atoms: C7_16  and  O3_17 
REMARK    8  A    between atoms: O4_19  and  N4_20 
REMARK    9  A    between atoms: N5_24  and  N6_25 
ROOT
HETATM    1  C1  UNL     1      38.485 -22.750 116.471  1.00  0.00     0.680 A 
HETATM    2  N2  UNL     1      37.940 -21.545 116.384  1.00  0.00    -0.155 N 
ATOM      3  H2  UNL     1      37.012 -21.431 115.977  1.00  0.00     0.187 HD
HETATM    4  C2  UNL     1      38.610 -20.484 116.831  1.00  0.00     0.278 A 
HETATM    5  O1  UNL     1      38.124 -19.317 116.765  1.00  0.00    -0.266 OA
HETATM    6  C3  UNL     1      39.861 -20.593 117.385  1.00  0.00     0.130 A 
HETATM    7  C4  UNL     1      40.805 -19.764 117.926  1.00  0.00     0.177 A 
HETATM    8  N3  UNL     1      41.883 -20.462 118.324  1.00  0.00    -0.266 N 
HETATM    9  N8  UNL     1      41.602 -21.722 118.028  1.00  0.00    -0.280 N 
ATOM     10  H8  UNL     1      42.235 -22.499 118.213  1.00  0.00     0.189 HD
HETATM   11  C10 UNL     1      40.411 -21.866 117.466  1.00  0.00     0.155 A 
HETATM   12  N9  UNL     1      39.706 -22.921 117.003  1.00  0.00    -0.174 N 
ATOM     13  H9  UNL     1      40.105 -23.858 117.060  1.00  0.00     0.186 HD
ENDROOT
BRANCH   8  14
HETATM   14  C5  UNL     1      43.100 -20.049 118.932  1.00  0.00     0.187 C 
BRANCH  14  15
HETATM   15  C6  UNL     1      44.176 -19.619 117.995  1.00  0.00     0.190 C 
BRANCH  15  16
HETATM   16  C7  UNL     1      45.425 -19.144 118.693  1.00  0.00     0.199 C 
BRANCH  16  17
HETATM   17  O3  UNL     1      45.563 -17.783 118.467  1.00  0.00    -0.398 OA
ATOM     18  H3  UNL     1      46.489 -17.572 118.457  1.00  0.00     0.209 HD
ENDBRANCH  16  17
ENDBRANCH  15  16
BRANCH  15  19
HETATM   19  O4  UNL     1      43.682 -18.511 117.297  1.00  0.00    -0.276 OA
BRANCH  19  20
HETATM   20  N4  UNL     1      43.947 -18.535 115.996  1.00  0.00    -0.077 NA
HETATM   21  C8  UNL     1      42.805 -18.724 115.161  1.00  0.00     0.250 C 
HETATM   22  C9  UNL     1      42.780 -17.504 114.279  1.00  0.00     0.272 C 
HETATM   23  O5  UNL     1      42.049 -17.304 113.275  1.00  0.00    -0.269 OA
HETATM   24  N5  UNL     1      43.749 -16.636 114.822  1.00  0.00    -0.153 N 
HETATM   25  N7  UNL     1      44.650 -17.429 115.540  1.00  0.00     0.004 NA
BRANCH  24  26
HETATM   26  N6  UNL     1      43.792 -15.242 114.666  1.00  0.00    -0.323 N 
ATOM     27  H62 UNL     1      44.217 -14.725 113.896  1.00  0.00     0.178 HD
ATOM     28  H61 UNL     1      43.402 -14.552 115.309  1.00  0.00     0.178 HD
ENDBRANCH  24  26
ENDBRANCH  19  20
ENDBRANCH  15  19
ENDBRANCH  14  15
ENDBRANCH   8  14
BRANCH   7  29
HETATM   29  O2  UNL     1      40.684 -18.406 118.052  1.00  0.00    -0.344 OA
ATOM     30  H2  UNL     1      40.263 -17.832 117.424  1.00  0.00     0.219 HD
ENDBRANCH   7  29
BRANCH   1  31
HETATM   31  N1  UNL     1      37.817 -23.768 116.030  1.00  0.00    -0.234 N 
ATOM     32  H12 UNL     1      38.242 -24.414 115.366  1.00  0.00     0.174 HD
ATOM     33  H11 UNL     1      36.862 -23.907 116.360  1.00  0.00     0.174 HD
ENDBRANCH   1  31
TORSDOF 9
ENDMDL
MODEL 3
REMARK VINA RESULT: -5.605849680      1.579      1.787
REMARK  9 active torsions:
REMARK  status: ('A' for Active; 'I' for Inactive)
REMARK    1  A    between atoms: N1_1  and  C1_4 
REMARK    2  A    between atoms: C4_10  and  O2_11 
REMARK    3  A    between atoms: N3_13  and  C5_14 
REMARK    4  A    between atoms: C5_14  and  C6_15 
REMARK    5  A    between atoms: C6_15  and  C7_16 
REMARK    6  A    between atoms: C6_15  and  O4_19 
REMARK    7  A    between atoms: C7_16  and  O3_17 
REMARK    8  A    between atoms: O4_19  and  N4_20 
REMARK    9  A    between atoms: N5_24  and  N6_25 
ROOT
HETATM    1  C1  UNL     1      38.423 -22.662 116.397  1.00  0.00     0.680 A 
HETATM    2  N2  UNL     1      37.882 -21.483 116.667  1.00  0.00    -0.155 N 
ATOM      3  H2  UNL     1      36.867 -21.375 116.681  1.00  0.00     0.187 HD
HETATM    4  C2  UNL     1      38.668 -20.438 116.921  1.00  0.00     0.278 A 
HETATM    5  O1  UNL     1      38.189 -19.296 117.182  1.00  0.00    -0.266 OA
HETATM    6  C3  UNL     1      40.036 -20.537 116.912  1.00  0.00     0.130 A 
HETATM    7  C4  UNL     1      41.113 -19.719 117.116  1.00  0.00     0.177 A 
HETATM    8  N3  UNL     1      42.265 -20.399 116.970  1.00  0.00    -0.266 N 
HETATM    9  N8  UNL     1      41.896 -21.636 116.677  1.00  0.00    -0.280 N 
ATOM     10  H8  UNL     1      42.555 -22.395 116.507  1.00  0.00     0.189 HD
HETATM   11  C10 UNL     1      40.580 -21.784 116.627  1.00  0.00     0.155 A 
HETATM   12  N9  UNL     1      39.756 -22.822 116.374  1.00  0.00    -0.174 N 
ATOM     13  H9  UNL     1      40.150 -23.740 116.164  1.00  0.00     0.186 HD
ENDROOT
BRANCH   8  14
HETATM   14  C5  UNL     1      43.621 -19.986 117.080  1.00  0.00     0.187 C 
BRANCH  14  15
HETATM   15  C6  UNL     1      44.129 -19.134 115.969  1.00  0.00     0.190 C 
BRANCH  15  16
HETATM   16  C7  UNL     1      44.660 -17.800 116.430  1.00  0.00     0.199 C 
BRANCH  16  17
HETATM   17  O3  UNL     1      43.585 -16.956 116.663  1.00  0.00    -0.398 OA
ATOM     18  H3  UNL     1      43.683 -16.186 116.116  1.00  0.00     0.209 HD
ENDBRANCH  16  17
ENDBRANCH  15  16
BRANCH  15  19
HETATM   19  O4  UNL     1      43.032 -18.846 115.149  1.00  0.00    -0.276 OA
BRANCH  19  20
HETATM   20  N4  UNL     1      43.329 -18.085 114.103  1.00  0.00    -0.077 NA
HETATM   21  C8  UNL     1      43.527 -18.801 112.883  1.00  0.00     0.250 C 
HETATM   22  C9  UNL     1      42.498 -18.231 111.944  1.00  0.00     0.272 C 
HETATM   23  O5  UNL     1      42.399 -18.437 110.706  1.00  0.00    -0.269 OA
HETATM   24  N5  UNL     1      41.672 -17.421 112.748  1.00  0.00    -0.153 N 
HETATM   25  N7  UNL     1      42.423 -17.059 113.871  1.00  0.00     0.004 NA
BRANCH  24  26
HETATM   26  N6  UNL     1      40.347 -17.052 112.466  1.00  0.00    -0.323 N 
ATOM     27  H62 UNL     1      39.616 -16.830 113.143  1.00  0.00     0.178 HD
ATOM     28  H61 UNL     1      39.934 -16.957 111.539  1.00  0.00     0.178 HD
ENDBRANCH  24  26
ENDBRANCH  19  20
ENDBRANCH  15  19
ENDBRANCH  14  15
ENDBRANCH   8  14
BRANCH   7  29
HETATM   29  O2  UNL     1      41.046 -18.387 117.427  1.00  0.00    -0.344 OA
ATOM     30  H2  UNL     1      41.020 -17.678 116.796  1.00  0.00     0.219 HD
ENDBRANCH   7  29
BRANCH   1  31
HETATM   31  N1  UNL     1      37.640 -23.664 116.153  1.00  0.00    -0.234 N 
ATOM     32  H12 UNL     1      37.631 -24.098 115.231  1.00  0.00     0.174 HD
ATOM     33  H11 UNL     1      37.036 -24.007 116.901  1.00  0.00     0.174 HD
ENDBRANCH   1  31
TORSDOF 9
ENDMDL
MODEL 4
REMARK VINA RESULT: -5.591966846      2.953      4.520
REMARK  9 active torsions:
REMARK  status: ('A' for Active; 'I' for Inactive)
REMARK    1  A    between atoms: N1_1  and  C1_4 
REMARK    2  A    between atoms: C4_10  and  O2_11 
REMARK    3  A    between atoms: N3_13  and  C5_14 
REMARK    4  A    between atoms: C5_14  and  C6_15 
REMARK    5  A    between atoms: C6_15  and  C7_16 
REMARK    6  A    between atoms: C6_15  and  O4_19 
REMARK    7  A    between atoms: C7_16  and  O3_17 
REMARK    8  A    between atoms: O4_19  and  N4_20 
REMARK    9  A    between atoms: N5_24  and  N6_25 
ROOT
HETATM    1  C1  UNL     1      39.116 -19.800 117.097  1.00  0.00     0.680 A 
HETATM    2  N2  UNL     1      39.812 -19.098 116.214  1.00  0.00    -0.155 N 
ATOM      3  H2  UNL     1      39.336 -18.627 115.445  1.00  0.00     0.187 HD
HETATM    4  C2  UNL     1      41.135 -19.010 116.337  1.00  0.00     0.278 A 
HETATM    5  O1  UNL     1      41.834 -18.349 115.513  1.00  0.00    -0.266 OA
HETATM    6  C3  UNL     1      41.815 -19.627 117.356  1.00  0.00     0.130 A 
HETATM    7  C4  UNL     1      43.109 -19.752 117.781  1.00  0.00     0.177 A 
HETATM    8  N3  UNL     1      43.178 -20.509 118.890  1.00  0.00    -0.266 N 
HETATM    9  N8  UNL     1      41.925 -20.851 119.147  1.00  0.00    -0.280 N 
ATOM     10  H8  UNL     1      41.651 -21.433 119.938  1.00  0.00     0.189 HD
HETATM   11  C10 UNL     1      41.064 -20.356 118.269  1.00  0.00     0.155 A 
HETATM   12  N9  UNL     1      39.725 -20.427 118.117  1.00  0.00    -0.174 N 
ATOM     13  H9  UNL     1      39.169 -20.961 118.785  1.00  0.00     0.186 HD
ENDROOT
BRANCH   8  14
HETATM   14  C5  UNL     1      44.284 -20.916 119.685  1.00  0.00     0.187 C 
BRANCH  14  15
HETATM   15  C6  UNL     1      44.704 -19.959 120.745  1.00  0.00     0.190 C 
BRANCH  15  16
HETATM   16  C7  UNL     1      43.655 -19.737 121.805  1.00  0.00     0.199 C 
BRANCH  16  17
HETATM   17  O3  UNL     1      44.002 -18.612 122.537  1.00  0.00    -0.398 OA
ATOM     18  H3  UNL     1      44.398 -17.980 121.950  1.00  0.00     0.209 HD
ENDBRANCH  16  17
ENDBRANCH  15  16
BRANCH  15  19
HETATM   19  O4  UNL     1      44.884 -18.720 120.120  1.00  0.00    -0.276 OA
BRANCH  19  20
HETATM   20  N4  UNL     1      46.069 -18.168 120.353  1.00  0.00    -0.077 NA
HETATM   21  C8  UNL     1      46.939 -18.127 119.221  1.00  0.00     0.250 C 
HETATM   22  C9  UNL     1      47.233 -16.663 119.028  1.00  0.00     0.272 C 
HETATM   23  O5  UNL     1      48.083 -16.152 118.254  1.00  0.00    -0.269 OA
HETATM   24  N5  UNL     1      46.352 -15.992 119.899  1.00  0.00    -0.153 N 
HETATM   25  N7  UNL     1      46.005 -16.897 120.907  1.00  0.00     0.004 NA
BRANCH  24  26
HETATM   26  N6  UNL     1      45.913 -14.664 119.771  1.00  0.00    -0.323 N 
ATOM     27  H62 UNL     1      46.185 -13.996 119.049  1.00  0.00     0.178 HD
ATOM     28  H61 UNL     1      45.257 -14.186 120.388  1.00  0.00     0.178 HD
ENDBRANCH  24  26
ENDBRANCH  19  20
ENDBRANCH  15  19
ENDBRANCH  14  15
ENDBRANCH   8  14
BRANCH   7  29
HETATM   29  O2  UNL     1      44.199 -19.188 117.172  1.00  0.00    -0.344 OA
ATOM     30  H2  UNL     1      44.320 -19.105 116.234  1.00  0.00     0.219 HD
ENDBRANCH   7  29
BRANCH   1  31
HETATM   31  N1  UNL     1      37.831 -19.874 116.960  1.00  0.00    -0.234 N 
ATOM     32  H12 UNL     1      37.410 -20.665 116.474  1.00  0.00     0.174 HD
ATOM     33  H11 UNL     1      37.253 -19.127 117.346  1.00  0.00     0.174 HD
ENDBRANCH   1  31
TORSDOF 9
ENDMDL
MODEL 5
REMARK VINA RESULT: -5.570843391      3.578      5.082
REMARK  9 active torsions:
REMARK  status: ('A' for Active; 'I' for Inactive)
REMARK    1  A    between atoms: N1_1  and  C1_4 
REMARK    2  A    between atoms: C4_10  and  O2_11 
REMARK    3  A    between atoms: N3_13  and  C5_14 
REMARK    4  A    between atoms: C5_14  and  C6_15 
REMARK    5  A    between atoms: C6_15  and  C7_16 
REMARK    6  A    between atoms: C6_15  and  O4_19 
REMARK    7  A    between atoms: C7_16  and  O3_17 
REMARK    8  A    between atoms: O4_19  and  N4_20 
REMARK    9  A    between atoms: N5_24  and  N6_25 
ROOT
HETATM    1  C1  UNL     1      37.234 -22.588 110.524  1.00  0.00     0.680 A 
HETATM    2  N2  UNL     1      36.206 -22.916 111.292  1.00  0.00    -0.155 N 
ATOM      3  H2  UNL     1      35.340 -23.254 110.873  1.00  0.00     0.187 HD
HETATM    4  C2  UNL     1      36.308 -22.801 112.616  1.00  0.00     0.278 A 
HETATM    5  O1  UNL     1      35.347 -23.103 113.383  1.00  0.00    -0.266 OA
HETATM    6  C3  UNL     1      37.453 -22.351 113.222  1.00  0.00     0.130 A 
HETATM    7  C4  UNL     1      37.902 -22.114 114.491  1.00  0.00     0.177 A 
HETATM    8  N3  UNL     1      39.166 -21.657 114.475  1.00  0.00    -0.266 N 
HETATM    9  N8  UNL     1      39.496 -21.613 113.194  1.00  0.00    -0.280 N 
ATOM     10  H8  UNL     1      40.408 -21.304 112.857  1.00  0.00     0.189 HD
HETATM   11  C10 UNL     1      38.518 -22.014 112.395  1.00  0.00     0.155 A 
HETATM   12  N9  UNL     1      38.382 -22.141 111.058  1.00  0.00    -0.174 N 
ATOM     13  H9  UNL     1      39.161 -21.895 110.447  1.00  0.00     0.186 HD
ENDROOT
BRANCH   8  14
HETATM   14  C5  UNL     1      40.043 -21.276 115.527  1.00  0.00     0.187 C 
BRANCH  14  15
HETATM   15  C6  UNL     1      40.124 -19.815 115.803  1.00  0.00     0.190 C 
BRANCH  15  16
HETATM   16  C7  UNL     1      39.246 -19.370 116.945  1.00  0.00     0.199 C 
BRANCH  16  17
HETATM   17  O3  UNL     1      37.950 -19.227 116.473  1.00  0.00    -0.398 OA
ATOM     18  H3  UNL     1      37.376 -19.769 117.002  1.00  0.00     0.209 HD
ENDBRANCH  16  17
ENDBRANCH  15  16
BRANCH  15  19
HETATM   19  O4  UNL     1      39.633 -19.163 114.667  1.00  0.00    -0.276 OA
BRANCH  19  20
HETATM   20  N4  UNL     1      40.525 -18.382 114.068  1.00  0.00    -0.077 NA
HETATM   21  C8  UNL     1      41.833 -18.944 113.964  1.00  0.00     0.250 C 
HETATM   22  C9  UNL     1      42.112 -18.973 112.486  1.00  0.00     0.272 C 
HETATM   23  O5  UNL     1      43.205 -19.233 111.921  1.00  0.00    -0.269 OA
HETATM   24  N5  UNL     1      40.886 -18.645 111.873  1.00  0.00    -0.153 N 
HETATM   25  N7  UNL     1      40.135 -17.934 112.814  1.00  0.00     0.004 NA
BRANCH  24  26
HETATM   26  N6  UNL     1      40.500 -18.976 110.564  1.00  0.00    -0.323 N 
ATOM     27  H62 UNL     1      39.802 -19.667 110.287  1.00  0.00     0.178 HD
ATOM     28  H61 UNL     1      40.871 -18.567 109.706  1.00  0.00     0.178 HD
ENDBRANCH  24  26
ENDBRANCH  19  20
ENDBRANCH  15  19
ENDBRANCH  14  15
ENDBRANCH   8  14
BRANCH   7  29
HETATM   29  O2  UNL     1      37.175 -22.310 115.636  1.00  0.00    -0.344 OA
ATOM     30  H2  UNL     1      37.166 -23.108 116.149  1.00  0.00     0.219 HD
ENDBRANCH   7  29
BRANCH   1  31
HETATM   31  N1  UNL     1      37.114 -22.707 109.240  1.00  0.00    -0.234 N 
ATOM     32  H12 UNL     1      36.213 -22.544 108.791  1.00  0.00     0.174 HD
ATOM     33  H11 UNL     1      37.935 -22.965 108.693  1.00  0.00     0.174 HD
ENDBRANCH   1  31
TORSDOF 9
ENDMDL
