MODEL 1
REMARK VINA RESULT: -6.507942651      0.000      0.000
REMARK  8 active torsions:
REMARK  status: ('A' for Active; 'I' for Inactive)
REMARK    1  A    between atoms: N1_1  and  N2_4 
REMARK       I    between atoms: N2_4  and  C1_6 
REMARK       I    between atoms: C1_6  and  N3_8 
REMARK    2  A    between atoms: C5_22  and  N8_23 
REMARK    3  A    between atoms: N8_23  and  N9_25 
REMARK    4  A    between atoms: C6_27  and  O4_28 
REMARK    5  A    between atoms: C6_27  and  C7_30 
REMARK    6  A    between atoms: C7_30  and  O5_31 
REMARK    7  A    between atoms: C7_30  and  C8_33 
REMARK    8  A    between atoms: C8_33  and  O6_34 
ROOT
HETATM    1  N2  UNL     1      38.372 -20.868 109.504  1.00  0.00    -0.256 N 
ATOM      2  H2  UNL     1      38.867 -20.664 108.636  1.00  0.00     0.191 HD
HETATM    3  C1  UNL     1      38.942 -20.488 110.747  1.00  0.00     0.361 C 
HETATM    4  O1  UNL     1      38.299 -20.765 111.739  1.00  0.00    -0.243 OA
HETATM    5  N3  UNL     1      40.194 -19.835 110.700  1.00  0.00    -0.183 N 
HETATM    6  N4  UNL     1      40.802 -19.460 109.534  1.00  0.00    -0.231 N 
ATOM      7  H4  UNL     1      40.409 -19.618 108.606  1.00  0.00     0.209 HD
HETATM    8  N5  UNL     1      41.946 -18.875 109.756  1.00  0.00    -0.278 N 
ATOM      9  H5  UNL     1      42.568 -18.516 109.032  1.00  0.00     0.189 HD
HETATM   10  C2  UNL     1      42.186 -18.815 111.067  1.00  0.00     0.150 A 
HETATM   11  C3  UNL     1      43.271 -18.258 111.723  1.00  0.00     0.280 C 
HETATM   12  O2  UNL     1      44.284 -18.097 111.011  1.00  0.00    -0.265 OA
HETATM   13  N6  UNL     1      43.352 -17.878 113.020  1.00  0.00    -0.273 N 
ATOM     14  H6  UNL     1      44.229 -17.456 113.326  1.00  0.00     0.173 HD
HETATM   15  C4  UNL     1      42.363 -18.008 113.959  1.00  0.00     0.328 C 
HETATM   16  O3  UNL     1      42.522 -17.205 114.913  1.00  0.00    -0.247 OA
HETATM   17  N7  UNL     1      41.313 -18.842 113.973  1.00  0.00    -0.291 N 
ATOM     18  H7  UNL     1      40.772 -18.867 114.837  1.00  0.00     0.172 HD
HETATM   19  C5  UNL     1      40.882 -19.661 112.973  1.00  0.00     0.156 C 
HETATM   20  C9  UNL     1      41.055 -19.436 111.632  1.00  0.00     0.142 A 
ENDROOT
BRANCH  19  21
HETATM   21  N8  UNL     1      40.296 -20.754 113.266  1.00  0.00    -0.282 N 
ATOM     22  H8  UNL     1      40.021 -21.427 112.551  1.00  0.00     0.188 HD
BRANCH  21  23
HETATM   23  N9  UNL     1      40.049 -20.977 114.640  1.00  0.00    -0.280 N 
HETATM   24  C6  UNL     1      38.927 -21.368 115.087  1.00  0.00     0.162 C 
ATOM     25  H9  UNL     1      40.807 -20.816 115.303  1.00  0.00     0.189 HD
BRANCH  24  26
HETATM   26  O4  UNL     1      37.840 -21.612 114.265  1.00  0.00    -0.346 OA
ATOM     27  H4  UNL     1      37.205 -20.942 114.045  1.00  0.00     0.219 HD
ENDBRANCH  24  26
BRANCH  24  28
HETATM   28  C7  UNL     1      38.761 -21.574 116.544  1.00  0.00     0.217 C 
BRANCH  28  29
HETATM   29  O5  UNL     1      39.813 -22.230 117.134  1.00  0.00    -0.385 OA
ATOM     30  H5  UNL     1      39.750 -23.177 117.086  1.00  0.00     0.210 HD
ENDBRANCH  28  29
BRANCH  28  31
HETATM   31  C8  UNL     1      38.505 -20.266 117.266  1.00  0.00     0.204 C 
BRANCH  31  32
HETATM   32  O6  UNL     1      37.831 -19.346 116.468  1.00  0.00    -0.398 OA
ATOM     33  H6  UNL     1      38.351 -19.065 115.724  1.00  0.00     0.209 HD
ENDBRANCH  31  32
ENDBRANCH  28  31
ENDBRANCH  24  28
ENDBRANCH  21  23
ENDBRANCH  19  21
BRANCH   1  34
HETATM   34  N1  UNL     1      37.148 -21.514 109.462  1.00  0.00    -0.341 N 
ATOM     35  H12 UNL     1      36.878 -22.107 110.247  1.00  0.00     0.177 HD
ATOM     36  H11 UNL     1      36.529 -21.396 108.660  1.00  0.00     0.177 HD
ENDBRANCH   1  34
TORSDOF 8
ENDMDL
MODEL 2
REMARK VINA RESULT: -6.355828755      2.075      2.960
REMARK  8 active torsions:
REMARK  status: ('A' for Active; 'I' for Inactive)
REMARK    1  A    between atoms: N1_1  and  N2_4 
REMARK       I    between atoms: N2_4  and  C1_6 
REMARK       I    between atoms: C1_6  and  N3_8 
REMARK    2  A    between atoms: C5_22  and  N8_23 
REMARK    3  A    between atoms: N8_23  and  N9_25 
REMARK    4  A    between atoms: C6_27  and  O4_28 
REMARK    5  A    between atoms: C6_27  and  C7_30 
REMARK    6  A    between atoms: C7_30  and  O5_31 
REMARK    7  A    between atoms: C7_30  and  C8_33 
REMARK    8  A    between atoms: C8_33  and  O6_34 
ROOT
HETATM    1  N2  UNL     1      40.666 -18.743 110.619  1.00  0.00    -0.256 N 
ATOM      2  H2  UNL     1      41.330 -18.693 109.846  1.00  0.00     0.191 HD
HETATM    3  C1  UNL     1      41.128 -18.623 111.955  1.00  0.00     0.361 C 
HETATM    4  O1  UNL     1      40.282 -18.694 112.824  1.00  0.00    -0.243 OA
HETATM    5  N3  UNL     1      42.517 -18.437 112.135  1.00  0.00    -0.183 N 
HETATM    6  N4  UNL     1      43.390 -18.255 111.098  1.00  0.00    -0.231 N 
ATOM      7  H4  UNL     1      43.117 -18.239 110.115  1.00  0.00     0.209 HD
HETATM    8  N5  UNL     1      44.614 -18.106 111.522  1.00  0.00    -0.278 N 
ATOM      9  H5  UNL     1      45.426 -17.958 110.922  1.00  0.00     0.189 HD
HETATM   10  C2  UNL     1      44.651 -18.173 112.854  1.00  0.00     0.150 A 
HETATM   11  C3  UNL     1      45.743 -18.044 113.696  1.00  0.00     0.280 C 
HETATM   12  O2  UNL     1      46.850 -18.216 113.146  1.00  0.00    -0.265 OA
HETATM   13  N6  UNL     1      45.742 -17.757 115.020  1.00  0.00    -0.273 N 
ATOM     14  H6  UNL     1      46.650 -17.671 115.476  1.00  0.00     0.173 HD
HETATM   15  C4  UNL     1      44.632 -17.570 115.801  1.00  0.00     0.328 C 
HETATM   16  O3  UNL     1      44.898 -16.902 116.831  1.00  0.00    -0.247 OA
HETATM   17  N7  UNL     1      43.375 -17.994 115.602  1.00  0.00    -0.291 N 
ATOM     18  H7  UNL     1      42.728 -17.860 116.379  1.00  0.00     0.172 HD
HETATM   19  C5  UNL     1      42.858 -18.582 114.487  1.00  0.00     0.156 C 
HETATM   20  C9  UNL     1      43.304 -18.388 113.206  1.00  0.00     0.142 A 
ENDROOT
BRANCH  19  21
HETATM   21  N8  UNL     1      41.902 -19.417 114.604  1.00  0.00    -0.282 N 
ATOM     22  H8  UNL     1      41.837 -20.250 114.018  1.00  0.00     0.188 HD
BRANCH  21  23
HETATM   23  N9  UNL     1      40.937 -19.120 115.594  1.00  0.00    -0.280 N 
HETATM   24  C6  UNL     1      40.479 -19.989 116.397  1.00  0.00     0.162 C 
ATOM     25  H9  UNL     1      40.593 -18.162 115.665  1.00  0.00     0.189 HD
BRANCH  24  26
HETATM   26  O4  UNL     1      40.887 -21.312 116.377  1.00  0.00    -0.346 OA
ATOM     27  H4  UNL     1      41.163 -21.774 117.159  1.00  0.00     0.219 HD
ENDBRANCH  24  26
BRANCH  24  28
HETATM   28  C7  UNL     1      39.469 -19.585 117.401  1.00  0.00     0.217 C 
BRANCH  28  29
HETATM   29  O5  UNL     1      39.324 -18.226 117.525  1.00  0.00    -0.385 OA
ATOM     30  H5  UNL     1      38.544 -17.884 117.104  1.00  0.00     0.210 HD
ENDBRANCH  28  29
BRANCH  28  31
HETATM   31  C8  UNL     1      38.121 -20.221 117.121  1.00  0.00     0.204 C 
BRANCH  31  32
HETATM   32  O6  UNL     1      37.924 -20.465 115.766  1.00  0.00    -0.398 OA
ATOM     33  H6  UNL     1      37.141 -20.978 115.602  1.00  0.00     0.209 HD
ENDBRANCH  31  32
ENDBRANCH  28  31
ENDBRANCH  24  28
ENDBRANCH  21  23
ENDBRANCH  19  21
BRANCH   1  34
HETATM   34  N1  UNL     1      39.319 -18.929 110.357  1.00  0.00    -0.341 N 
ATOM     35  H12 UNL     1      38.940 -19.875 110.380  1.00  0.00     0.177 HD
ATOM     36  H11 UNL     1      38.720 -18.131 110.145  1.00  0.00     0.177 HD
ENDBRANCH   1  34
TORSDOF 8
ENDMDL
MODEL 3
REMARK VINA RESULT: -6.254710565      1.660      4.499
REMARK  8 active torsions:
REMARK  status: ('A' for Active; 'I' for Inactive)
REMARK    1  A    between atoms: N1_1  and  N2_4 
REMARK       I    between atoms: N2_4  and  C1_6 
REMARK       I    between atoms: C1_6  and  N3_8 
REMARK    2  A    between atoms: C5_22  and  N8_23 
REMARK    3  A    between atoms: N8_23  and  N9_25 
REMARK    4  A    between atoms: C6_27  and  O4_28 
REMARK    5  A    between atoms: C6_27  and  C7_30 
REMARK    6  A    between atoms: C7_30  and  O5_31 
REMARK    7  A    between atoms: C7_30  and  C8_33 
REMARK    8  A    between atoms: C8_33  and  O6_34 
ROOT
HETATM    1  N2  UNL     1      45.000 -17.893 112.278  1.00  0.00    -0.256 N 
ATOM      2  H2  UNL     1      45.192 -17.658 111.304  1.00  0.00     0.191 HD
HETATM    3  C1  UNL     1      43.765 -18.500 112.627  1.00  0.00     0.361 C 
HETATM    4  O1  UNL     1      43.604 -18.750 113.804  1.00  0.00    -0.243 OA
HETATM    5  N3  UNL     1      42.856 -18.745 111.573  1.00  0.00    -0.183 N 
HETATM    6  N4  UNL     1      43.159 -18.535 110.256  1.00  0.00    -0.231 N 
ATOM      7  H4  UNL     1      44.058 -18.187 109.924  1.00  0.00     0.209 HD
HETATM    8  N5  UNL     1      42.156 -18.836 109.479  1.00  0.00    -0.278 N 
ATOM      9  H5  UNL     1      42.160 -18.756 108.463  1.00  0.00     0.189 HD
HETATM   10  C2  UNL     1      41.123 -19.264 110.207  1.00  0.00     0.150 A 
HETATM   11  C3  UNL     1      39.882 -19.699 109.774  1.00  0.00     0.280 C 
HETATM   12  O2  UNL     1      39.578 -19.341 108.617  1.00  0.00    -0.265 OA
HETATM   13  N6  UNL     1      38.983 -20.454 110.449  1.00  0.00    -0.273 N 
ATOM     14  H6  UNL     1      38.125 -20.706 109.958  1.00  0.00     0.173 HD
HETATM   15  C4  UNL     1      39.121 -20.910 111.734  1.00  0.00     0.328 C 
HETATM   16  O3  UNL     1      38.395 -21.912 111.950  1.00  0.00    -0.247 OA
HETATM   17  N7  UNL     1      39.895 -20.437 112.722  1.00  0.00    -0.291 N 
ATOM     18  H7  UNL     1      39.744 -20.846 113.644  1.00  0.00     0.172 HD
HETATM   19  C5  UNL     1      40.858 -19.478 112.643  1.00  0.00     0.156 C 
HETATM   20  C9  UNL     1      41.603 -19.188 111.529  1.00  0.00     0.142 A 
ENDROOT
BRANCH  19  21
HETATM   21  N8  UNL     1      41.095 -18.741 113.655  1.00  0.00    -0.282 N 
ATOM     22  H8  UNL     1      41.801 -18.005 113.635  1.00  0.00     0.188 HD
BRANCH  21  23
HETATM   23  N9  UNL     1      40.320 -19.004 114.808  1.00  0.00    -0.280 N 
HETATM   24  C6  UNL     1      40.788 -18.936 115.987  1.00  0.00     0.162 C 
ATOM     25  H9  UNL     1      39.340 -19.261 114.688  1.00  0.00     0.189 HD
BRANCH  24  26
HETATM   26  O4  UNL     1      42.103 -18.595 116.249  1.00  0.00    -0.346 OA
ATOM     27  H4  UNL     1      42.348 -17.770 116.650  1.00  0.00     0.219 HD
ENDBRANCH  24  26
BRANCH  24  28
HETATM   28  C7  UNL     1      39.900 -19.229 117.135  1.00  0.00     0.217 C 
BRANCH  28  29
HETATM   29  O5  UNL     1      39.341 -18.113 117.703  1.00  0.00    -0.385 OA
ATOM     30  H5  UNL     1      38.513 -18.277 118.138  1.00  0.00     0.210 HD
ENDBRANCH  28  29
BRANCH  28  31
HETATM   31  C8  UNL     1      38.809 -20.212 116.757  1.00  0.00     0.204 C 
BRANCH  31  32
HETATM   32  O6  UNL     1      37.653 -19.574 116.319  1.00  0.00    -0.398 OA
ATOM     33  H6  UNL     1      37.234 -19.072 117.010  1.00  0.00     0.209 HD
ENDBRANCH  31  32
ENDBRANCH  28  31
ENDBRANCH  24  28
ENDBRANCH  21  23
ENDBRANCH  19  21
BRANCH   1  34
HETATM   34  N1  UNL     1      45.946 -17.619 113.251  1.00  0.00    -0.341 N 
ATOM     35  H12 UNL     1      45.785 -16.836 113.885  1.00  0.00     0.177 HD
ATOM     36  H11 UNL     1      46.787 -18.190 113.330  1.00  0.00     0.177 HD
ENDBRANCH   1  34
TORSDOF 8
ENDMDL
MODEL 4
REMARK VINA RESULT: -6.234660567      1.732      2.073
REMARK  8 active torsions:
REMARK  status: ('A' for Active; 'I' for Inactive)
REMARK    1  A    between atoms: N1_1  and  N2_4 
REMARK       I    between atoms: N2_4  and  C1_6 
REMARK       I    between atoms: C1_6  and  N3_8 
REMARK    2  A    between atoms: C5_22  and  N8_23 
REMARK    3  A    between atoms: N8_23  and  N9_25 
REMARK    4  A    between atoms: C6_27  and  O4_28 
REMARK    5  A    between atoms: C6_27  and  C7_30 
REMARK    6  A    between atoms: C7_30  and  O5_31 
REMARK    7  A    between atoms: C7_30  and  C8_33 
REMARK    8  A    between atoms: C8_33  and  O6_34 
ROOT
HETATM    1  N2  UNL     1      39.947 -20.210 110.114  1.00  0.00    -0.256 N 
ATOM      2  H2  UNL     1      40.617 -20.856 109.696  1.00  0.00     0.191 HD
HETATM    3  C1  UNL     1      40.367 -19.321 111.137  1.00  0.00     0.361 C 
HETATM    4  O1  UNL     1      39.515 -18.583 111.589  1.00  0.00    -0.243 OA
HETATM    5  N3  UNL     1      41.725 -19.390 111.522  1.00  0.00    -0.183 N 
HETATM    6  N4  UNL     1      42.647 -20.173 110.884  1.00  0.00    -0.231 N 
ATOM      7  H4  UNL     1      42.437 -20.769 110.084  1.00  0.00     0.209 HD
HETATM    8  N5  UNL     1      43.828 -20.061 111.427  1.00  0.00    -0.278 N 
ATOM      9  H5  UNL     1      44.663 -20.555 111.113  1.00  0.00     0.189 HD
HETATM   10  C2  UNL     1      43.785 -19.208 112.452  1.00  0.00     0.150 A 
HETATM   11  C3  UNL     1      44.818 -18.795 113.276  1.00  0.00     0.280 C 
HETATM   12  O2  UNL     1      45.815 -19.545 113.279  1.00  0.00    -0.265 OA
HETATM   13  N6  UNL     1      44.864 -17.693 114.061  1.00  0.00    -0.273 N 
ATOM     14  H6  UNL     1      45.726 -17.531 114.584  1.00  0.00     0.173 HD
HETATM   15  C4  UNL     1      43.859 -16.774 114.218  1.00  0.00     0.328 C 
HETATM   16  O3  UNL     1      44.301 -15.669 114.620  1.00  0.00    -0.247 OA
HETATM   17  N7  UNL     1      42.543 -16.915 114.003  1.00  0.00    -0.291 N 
ATOM     18  H7  UNL     1      41.953 -16.142 114.313  1.00  0.00     0.172 HD
HETATM   19  C5  UNL     1      41.898 -17.964 113.422  1.00  0.00     0.156 C 
HETATM   20  C9  UNL     1      42.435 -18.806 112.483  1.00  0.00     0.142 A 
ENDROOT
BRANCH  19  21
HETATM   21  N8  UNL     1      40.706 -18.243 113.777  1.00  0.00    -0.282 N 
ATOM     22  H8  UNL     1      39.901 -18.014 113.194  1.00  0.00     0.188 HD
BRANCH  21  23
HETATM   23  N9  UNL     1      40.567 -18.889 115.027  1.00  0.00    -0.280 N 
HETATM   24  C6  UNL     1      39.947 -19.987 115.174  1.00  0.00     0.162 C 
ATOM     25  H9  UNL     1      40.983 -18.452 115.850  1.00  0.00     0.189 HD
BRANCH  24  26
HETATM   26  O4  UNL     1      39.351 -20.654 114.117  1.00  0.00    -0.346 OA
ATOM     27  H4  UNL     1      39.733 -20.679 113.248  1.00  0.00     0.219 HD
ENDBRANCH  24  26
BRANCH  24  28
HETATM   28  C7  UNL     1      39.852 -20.590 116.522  1.00  0.00     0.217 C 
BRANCH  28  29
HETATM   29  O5  UNL     1      40.905 -20.276 117.345  1.00  0.00    -0.385 OA
ATOM     30  H5  UNL     1      41.335 -21.034 117.724  1.00  0.00     0.210 HD
ENDBRANCH  28  29
BRANCH  28  31
HETATM   31  C8  UNL     1      38.546 -20.228 117.202  1.00  0.00     0.204 C 
BRANCH  31  32
HETATM   32  O6  UNL     1      37.798 -19.320 116.460  1.00  0.00    -0.398 OA
ATOM     33  H6  UNL     1      36.874 -19.349 116.679  1.00  0.00     0.209 HD
ENDBRANCH  31  32
ENDBRANCH  28  31
ENDBRANCH  24  28
ENDBRANCH  21  23
ENDBRANCH  19  21
BRANCH   1  34
HETATM   34  N1  UNL     1      38.632 -20.207 109.679  1.00  0.00    -0.341 N 
ATOM     35  H12 UNL     1      38.190 -19.316 109.457  1.00  0.00     0.177 HD
ATOM     36  H11 UNL     1      38.118 -21.083 109.583  1.00  0.00     0.177 HD
ENDBRANCH   1  34
TORSDOF 8
ENDMDL
MODEL 5
REMARK VINA RESULT: -6.034177016      2.461      3.272
REMARK  8 active torsions:
REMARK  status: ('A' for Active; 'I' for Inactive)
REMARK    1  A    between atoms: N1_1  and  N2_4 
REMARK       I    between atoms: N2_4  and  C1_6 
REMARK       I    between atoms: C1_6  and  N3_8 
REMARK    2  A    between atoms: C5_22  and  N8_23 
REMARK    3  A    between atoms: N8_23  and  N9_25 
REMARK    4  A    between atoms: C6_27  and  O4_28 
REMARK    5  A    between atoms: C6_27  and  C7_30 
REMARK    6  A    between atoms: C7_30  and  O5_31 
REMARK    7  A    between atoms: C7_30  and  C8_33 
REMARK    8  A    between atoms: C8_33  and  O6_34 
ROOT
HETATM    1  N2  UNL     1      40.443 -18.781 111.005  1.00  0.00    -0.256 N 
ATOM      2  H2  UNL     1      41.077 -19.196 110.322  1.00  0.00     0.191 HD
HETATM    3  C1  UNL     1      40.920 -18.448 112.299  1.00  0.00     0.361 C 
HETATM    4  O1  UNL     1      40.109 -17.958 113.060  1.00  0.00    -0.243 OA
HETATM    5  N3  UNL     1      42.280 -18.722 112.567  1.00  0.00    -0.183 N 
HETATM    6  N4  UNL     1      43.155 -19.172 111.618  1.00  0.00    -0.231 N 
ATOM      7  H4  UNL     1      42.905 -19.347 110.644  1.00  0.00     0.209 HD
HETATM    8  N5  UNL     1      44.349 -19.349 112.112  1.00  0.00    -0.278 N 
ATOM      9  H5  UNL     1      45.156 -19.679 111.583  1.00  0.00     0.189 HD
HETATM   10  C2  UNL     1      44.362 -19.034 113.408  1.00  0.00     0.150 A 
HETATM   11  C3  UNL     1      45.426 -19.060 114.294  1.00  0.00     0.280 C 
HETATM   12  O2  UNL     1      46.390 -19.766 113.931  1.00  0.00    -0.265 OA
HETATM   13  N6  UNL     1      45.535 -18.419 115.482  1.00  0.00    -0.273 N 
ATOM     14  H6  UNL     1      46.412 -18.532 115.991  1.00  0.00     0.173 HD
HETATM   15  C4  UNL     1      44.574 -17.633 116.062  1.00  0.00     0.328 C 
HETATM   16  O3  UNL     1      45.071 -16.833 116.894  1.00  0.00    -0.247 OA
HETATM   17  N7  UNL     1      43.250 -17.623 115.854  1.00  0.00    -0.291 N 
ATOM     18  H7  UNL     1      42.700 -17.048 116.492  1.00  0.00     0.172 HD
HETATM   19  C5  UNL     1      42.549 -18.287 114.893  1.00  0.00     0.156 C 
HETATM   20  C9  UNL     1      43.032 -18.645 113.661  1.00  0.00     0.142 A 
ENDROOT
BRANCH  19  21
HETATM   21  N8  UNL     1      41.353 -18.656 115.131  1.00  0.00    -0.282 N 
ATOM     22  H8  UNL     1      40.553 -18.240 114.653  1.00  0.00     0.188 HD
BRANCH  21  23
HETATM   23  N9  UNL     1      41.199 -19.678 116.097  1.00  0.00    -0.280 N 
HETATM   24  C6  UNL     1      40.346 -19.621 117.035  1.00  0.00     0.162 C 
ATOM     25  H9  UNL     1      41.802 -20.499 116.037  1.00  0.00     0.189 HD
BRANCH  24  26
HETATM   26  O4  UNL     1      39.486 -18.548 117.197  1.00  0.00    -0.346 OA
ATOM     27  H4  UNL     1      39.522 -17.973 117.951  1.00  0.00     0.219 HD
ENDBRANCH  24  26
BRANCH  24  28
HETATM   28  C7  UNL     1      40.258 -20.739 118.001  1.00  0.00     0.217 C 
BRANCH  28  29
HETATM   29  O5  UNL     1      40.346 -21.980 117.422  1.00  0.00    -0.385 OA
ATOM     30  H5  UNL     1      40.965 -22.560 117.850  1.00  0.00     0.210 HD
ENDBRANCH  28  29
BRANCH  28  31
HETATM   31  C8  UNL     1      41.299 -20.611 119.097  1.00  0.00     0.204 C 
BRANCH  31  32
HETATM   32  O6  UNL     1      41.594 -19.284 119.392  1.00  0.00    -0.398 OA
ATOM     33  H6  UNL     1      42.285 -19.203 120.040  1.00  0.00     0.209 HD
ENDBRANCH  31  32
ENDBRANCH  28  31
ENDBRANCH  24  28
ENDBRANCH  21  23
ENDBRANCH  19  21
BRANCH   1  34
HETATM   34  N1  UNL     1      39.122 -18.545 110.662  1.00  0.00    -0.341 N 
ATOM     35  H12 UNL     1      38.871 -17.638 110.268  1.00  0.00     0.177 HD
ATOM     36  H11 UNL     1      38.415 -19.266 110.803  1.00  0.00     0.177 HD
ENDBRANCH   1  34
TORSDOF 8
ENDMDL
