MODEL 1
REMARK VINA RESULT: -6.158483781      0.000      0.000
REMARK  7 active torsions:
REMARK  status: ('A' for Active; 'I' for Inactive)
REMARK       I    between atoms: C1_2  and  N5_21 
REMARK    1  A    between atoms: N2_3  and  C2_5 
REMARK    2  A    between atoms: C2_5  and  O1_6 
REMARK    3  A    between atoms: C2_5  and  C3_8 
REMARK    4  A    between atoms: N3_12  and  O3_13 
REMARK    5  A    between atoms: N5_21  and  C8_23 
REMARK    6  A    between atoms: C8_23  and  C9_24 
REMARK    7  A    between atoms: C10_27  and  O6_28 
ROOT
HETATM    1  C2  UNL     1      44.697 -17.962 116.734  1.00  0.00     0.271 C 
ENDROOT
BRANCH   1   2
HETATM    2  N2  UNL     1      45.717 -18.555 115.895  1.00  0.00    -0.333 N 
HETATM    3  C1  UNL     1      46.971 -18.448 116.119  1.00  0.00     0.186 C 
HETATM    4  N1  UNL     1      47.878 -19.068 115.232  1.00  0.00    -0.064 NA
HETATM    5  N5  UNL     1      47.434 -17.726 117.227  1.00  0.00    -0.361 N 
ATOM      6  H5  UNL     1      47.696 -16.752 117.076  1.00  0.00     0.162 HD
ATOM      7  H2  UNL     1      45.418 -19.087 115.078  1.00  0.00     0.165 HD
BRANCH   5   8
HETATM    8  C8  UNL     1      47.571 -18.249 118.560  1.00  0.00     0.173 C 
BRANCH   8   9
HETATM    9  C9  UNL     1      47.685 -17.116 119.558  1.00  0.00     0.252 C 
HETATM   10  N6  UNL     1      46.388 -16.465 119.602  1.00  0.00    -0.110 NA
HETATM   11  N7  UNL     1      46.648 -15.194 119.051  1.00  0.00    -0.086 NA
HETATM   12  C10 UNL     1      48.010 -14.972 119.563  1.00  0.00     0.375 C 
HETATM   13  O7  UNL     1      48.613 -16.174 119.194  1.00  0.00    -0.322 OA
BRANCH  12  14
HETATM   14  O6  UNL     1      47.899 -14.827 120.931  1.00  0.00    -0.357 OA
ATOM     15  H6  UNL     1      48.396 -14.051 121.163  1.00  0.00     0.214 HD
ENDBRANCH  12  14
ENDBRANCH   8   9
ENDBRANCH   5   8
ENDBRANCH   1   2
BRANCH   1  16
HETATM   16  O1  UNL     1      44.871 -16.598 116.892  1.00  0.00    -0.371 OA
ATOM     17  H1  UNL     1      44.825 -16.331 117.802  1.00  0.00     0.212 HD
ENDBRANCH   1  16
BRANCH   1  18
HETATM   18  C3  UNL     1      43.367 -18.187 116.090  1.00  0.00     0.066 C 
HETATM   19  C4  UNL     1      43.218 -17.686 114.809  1.00  0.00     0.106 C 
HETATM   20  C5  UNL     1      42.143 -17.723 113.944  1.00  0.00     0.276 C 
HETATM   21  O2  UNL     1      42.291 -17.225 112.798  1.00  0.00    -0.266 OA
HETATM   22  N3  UNL     1      40.923 -18.240 114.178  1.00  0.00    -0.145 N 
HETATM   23  C6  UNL     1      40.578 -19.081 115.191  1.00  0.00     0.342 C 
HETATM   24  O4  UNL     1      39.473 -19.642 115.036  1.00  0.00    -0.259 OA
HETATM   25  C7  UNL     1      41.292 -19.376 116.336  1.00  0.00     0.316 C 
HETATM   26  O5  UNL     1      40.814 -20.279 117.085  1.00  0.00    -0.262 OA
HETATM   27  N4  UNL     1      42.438 -18.852 116.801  1.00  0.00    -0.318 N 
ATOM     28  H4  UNL     1      42.624 -18.970 117.797  1.00  0.00     0.169 HD
BRANCH  22  29
HETATM   29  O3  UNL     1      39.967 -17.858 113.290  1.00  0.00    -0.277 OA
ATOM     30  H3  UNL     1      39.334 -17.237 113.632  1.00  0.00     0.245 HD
ENDBRANCH  22  29
ENDBRANCH   1  18
TORSDOF 7
ENDMDL
MODEL 2
REMARK VINA RESULT: -6.143235786      2.734      6.916
REMARK  7 active torsions:
REMARK  status: ('A' for Active; 'I' for Inactive)
REMARK       I    between atoms: C1_2  and  N5_21 
REMARK    1  A    between atoms: N2_3  and  C2_5 
REMARK    2  A    between atoms: C2_5  and  O1_6 
REMARK    3  A    between atoms: C2_5  and  C3_8 
REMARK    4  A    between atoms: N3_12  and  O3_13 
REMARK    5  A    between atoms: N5_21  and  C8_23 
REMARK    6  A    between atoms: C8_23  and  C9_24 
REMARK    7  A    between atoms: C10_27  and  O6_28 
ROOT
HETATM    1  C2  UNL     1      43.214 -18.505 112.347  1.00  0.00     0.271 C 
ENDROOT
BRANCH   1   2
HETATM    2  N2  UNL     1      42.027 -17.681 112.419  1.00  0.00    -0.333 N 
HETATM    3  C1  UNL     1      40.855 -18.141 112.643  1.00  0.00     0.186 C 
HETATM    4  N1  UNL     1      39.767 -17.243 112.692  1.00  0.00    -0.064 NA
HETATM    5  N5  UNL     1      40.658 -19.515 112.835  1.00  0.00    -0.361 N 
ATOM      6  H5  UNL     1      40.380 -20.067 112.023  1.00  0.00     0.162 HD
ATOM      7  H2  UNL     1      42.130 -16.676 112.284  1.00  0.00     0.165 HD
BRANCH   5   8
HETATM    8  C8  UNL     1      40.816 -20.210 114.084  1.00  0.00     0.173 C 
BRANCH   8   9
HETATM    9  C9  UNL     1      40.247 -19.383 115.219  1.00  0.00     0.252 C 
HETATM   10  N6  UNL     1      41.036 -19.695 116.398  1.00  0.00    -0.110 NA
HETATM   11  N7  UNL     1      40.115 -20.360 117.233  1.00  0.00    -0.086 NA
HETATM   12  C10 UNL     1      38.887 -19.623 116.890  1.00  0.00     0.375 C 
HETATM   13  O7  UNL     1      38.939 -19.686 115.498  1.00  0.00    -0.322 OA
BRANCH  12  14
HETATM   14  O6  UNL     1      39.049 -18.341 117.374  1.00  0.00    -0.357 OA
ATOM     15  H6  UNL     1      38.666 -17.757 116.730  1.00  0.00     0.214 HD
ENDBRANCH  12  14
ENDBRANCH   8   9
ENDBRANCH   5   8
ENDBRANCH   1   2
BRANCH   1  16
HETATM   16  O1  UNL     1      43.948 -18.272 111.196  1.00  0.00    -0.371 OA
ATOM     17  H1  UNL     1      44.354 -17.413 111.194  1.00  0.00     0.212 HD
ENDBRANCH   1  16
BRANCH   1  18
HETATM   18  C3  UNL     1      44.081 -18.188 113.521  1.00  0.00     0.066 C 
HETATM   19  C4  UNL     1      45.393 -17.851 113.237  1.00  0.00     0.106 C 
HETATM   20  C5  UNL     1      46.437 -17.506 114.069  1.00  0.00     0.276 C 
HETATM   21  O2  UNL     1      47.535 -17.193 113.540  1.00  0.00    -0.266 OA
HETATM   22  N3  UNL     1      46.430 -17.457 115.415  1.00  0.00    -0.145 N 
HETATM   23  C6  UNL     1      45.332 -17.458 116.220  1.00  0.00     0.342 C 
HETATM   24  O4  UNL     1      45.566 -17.125 117.401  1.00  0.00    -0.259 OA
HETATM   25  C7  UNL     1      44.030 -17.774 115.888  1.00  0.00     0.316 C 
HETATM   26  O5  UNL     1      43.156 -17.593 116.789  1.00  0.00    -0.262 OA
HETATM   27  N4  UNL     1      43.520 -18.254 114.742  1.00  0.00    -0.318 N 
ATOM     28  H4  UNL     1      42.613 -18.716 114.804  1.00  0.00     0.169 HD
BRANCH  22  29
HETATM   29  O3  UNL     1      47.663 -17.406 115.986  1.00  0.00    -0.277 OA
ATOM     30  H3  UNL     1      48.098 -16.564 115.914  1.00  0.00     0.245 HD
ENDBRANCH  22  29
ENDBRANCH   1  18
TORSDOF 7
ENDMDL
MODEL 3
REMARK VINA RESULT: -6.056840828      3.134      5.191
REMARK  7 active torsions:
REMARK  status: ('A' for Active; 'I' for Inactive)
REMARK       I    between atoms: C1_2  and  N5_21 
REMARK    1  A    between atoms: N2_3  and  C2_5 
REMARK    2  A    between atoms: C2_5  and  O1_6 
REMARK    3  A    between atoms: C2_5  and  C3_8 
REMARK    4  A    between atoms: N3_12  and  O3_13 
REMARK    5  A    between atoms: N5_21  and  C8_23 
REMARK    6  A    between atoms: C8_23  and  C9_24 
REMARK    7  A    between atoms: C10_27  and  O6_28 
ROOT
HETATM    1  C2  UNL     1      43.898 -16.894 115.056  1.00  0.00     0.271 C 
ENDROOT
BRANCH   1   2
HETATM    2  N2  UNL     1      45.104 -17.627 115.378  1.00  0.00    -0.333 N 
HETATM    3  C1  UNL     1      45.191 -18.463 116.342  1.00  0.00     0.186 C 
HETATM    4  N1  UNL     1      46.419 -19.121 116.565  1.00  0.00    -0.064 NA
HETATM    5  N5  UNL     1      44.083 -18.717 117.162  1.00  0.00    -0.361 N 
ATOM      6  H5  UNL     1      44.016 -18.194 118.036  1.00  0.00     0.162 HD
ATOM      7  H2  UNL     1      45.931 -17.468 114.804  1.00  0.00     0.165 HD
BRANCH   5   8
HETATM    8  C8  UNL     1      43.034 -19.657 116.872  1.00  0.00     0.173 C 
BRANCH   8   9
HETATM    9  C9  UNL     1      41.685 -19.058 117.210  1.00  0.00     0.252 C 
HETATM   10  N6  UNL     1      41.018 -20.000 118.091  1.00  0.00    -0.110 NA
HETATM   11  N7  UNL     1      39.937 -20.458 117.311  1.00  0.00    -0.086 NA
HETATM   12  C10 UNL     1      39.619 -19.225 116.572  1.00  0.00     0.375 C 
HETATM   13  O7  UNL     1      40.888 -18.879 116.108  1.00  0.00    -0.322 OA
BRANCH  12  14
HETATM   14  O6  UNL     1      39.125 -18.328 117.497  1.00  0.00    -0.357 OA
ATOM     15  H6  UNL     1      38.970 -17.514 117.031  1.00  0.00     0.214 HD
ENDBRANCH  12  14
ENDBRANCH   8   9
ENDBRANCH   5   8
ENDBRANCH   1   2
BRANCH   1  16
HETATM   16  O1  UNL     1      44.153 -15.568 114.751  1.00  0.00    -0.371 OA
ATOM     17  H1  UNL     1      44.032 -14.995 115.499  1.00  0.00     0.212 HD
ENDBRANCH   1  16
BRANCH   1  18
HETATM   18  C3  UNL     1      43.264 -17.530 113.862  1.00  0.00     0.066 C 
HETATM   19  C4  UNL     1      44.067 -18.387 113.129  1.00  0.00     0.106 C 
HETATM   20  C5  UNL     1      43.800 -19.127 111.996  1.00  0.00     0.276 C 
HETATM   21  O2  UNL     1      44.709 -19.874 111.552  1.00  0.00    -0.266 OA
HETATM   22  N3  UNL     1      42.657 -19.152 111.286  1.00  0.00    -0.145 N 
HETATM   23  C6  UNL     1      41.442 -18.685 111.686  1.00  0.00     0.342 C 
HETATM   24  O4  UNL     1      40.489 -19.070 110.978  1.00  0.00    -0.259 OA
HETATM   25  C7  UNL     1      41.156 -17.858 112.754  1.00  0.00     0.316 C 
HETATM   26  O5  UNL     1      39.929 -17.647 112.994  1.00  0.00    -0.262 OA
HETATM   27  N4  UNL     1      41.980 -17.222 113.604  1.00  0.00    -0.318 N 
ATOM     28  H4  UNL     1      41.592 -16.423 114.105  1.00  0.00     0.169 HD
BRANCH  22  29
HETATM   29  O3  UNL     1      42.771 -19.706 110.049  1.00  0.00    -0.277 OA
ATOM     30  H3  UNL     1      42.976 -19.089 109.356  1.00  0.00     0.245 HD
ENDBRANCH  22  29
ENDBRANCH   1  18
TORSDOF 7
ENDMDL
MODEL 4
REMARK VINA RESULT: -6.037721330      3.717      7.577
REMARK  7 active torsions:
REMARK  status: ('A' for Active; 'I' for Inactive)
REMARK       I    between atoms: C1_2  and  N5_21 
REMARK    1  A    between atoms: N2_3  and  C2_5 
REMARK    2  A    between atoms: C2_5  and  O1_6 
REMARK    3  A    between atoms: C2_5  and  C3_8 
REMARK    4  A    between atoms: N3_12  and  O3_13 
REMARK    5  A    between atoms: N5_21  and  C8_23 
REMARK    6  A    between atoms: C8_23  and  C9_24 
REMARK    7  A    between atoms: C10_27  and  O6_28 
ROOT
HETATM    1  C2  UNL     1      41.797 -19.543 117.512  1.00  0.00     0.271 C 
ENDROOT
BRANCH   1   2
HETATM    2  N2  UNL     1      40.373 -19.693 117.728  1.00  0.00    -0.333 N 
HETATM    3  C1  UNL     1      39.491 -19.466 116.831  1.00  0.00     0.186 C 
HETATM    4  N1  UNL     1      38.128 -19.645 117.153  1.00  0.00    -0.064 NA
HETATM    5  N5  UNL     1      39.874 -19.046 115.550  1.00  0.00    -0.361 N 
ATOM      6  H5  UNL     1      39.869 -18.042 115.365  1.00  0.00     0.162 HD
ATOM      7  H2  UNL     1      40.056 -19.997 118.648  1.00  0.00     0.165 HD
BRANCH   5   8
HETATM    8  C8  UNL     1      40.274 -19.915 114.476  1.00  0.00     0.173 C 
BRANCH   8   9
HETATM    9  C9  UNL     1      40.983 -19.123 113.397  1.00  0.00     0.252 C 
HETATM   10  N6  UNL     1      42.243 -18.678 113.966  1.00  0.00    -0.110 NA
HETATM   11  N7  UNL     1      42.087 -17.279 114.036  1.00  0.00    -0.086 NA
HETATM   12  C10 UNL     1      41.284 -17.054 112.823  1.00  0.00     0.375 C 
HETATM   13  O7  UNL     1      40.285 -18.010 113.004  1.00  0.00    -0.322 OA
BRANCH  12  14
HETATM   14  O6  UNL     1      42.105 -17.336 111.749  1.00  0.00    -0.357 OA
ATOM     15  H6  UNL     1      41.715 -16.916 110.991  1.00  0.00     0.214 HD
ENDBRANCH  12  14
ENDBRANCH   8   9
ENDBRANCH   5   8
ENDBRANCH   1   2
BRANCH   1  16
HETATM   16  O1  UNL     1      42.141 -18.253 117.144  1.00  0.00    -0.371 OA
ATOM     17  H1  UNL     1      42.847 -17.902 117.673  1.00  0.00     0.212 HD
ENDBRANCH   1  16
BRANCH   1  18
HETATM   18  C3  UNL     1      42.504 -19.863 118.789  1.00  0.00     0.066 C 
HETATM   19  C4  UNL     1      43.887 -19.826 118.745  1.00  0.00     0.106 C 
HETATM   20  C5  UNL     1      44.828 -20.061 119.726  1.00  0.00     0.276 C 
HETATM   21  O2  UNL     1      46.041 -19.910 119.429  1.00  0.00    -0.266 OA
HETATM   22  N3  UNL     1      44.606 -20.441 120.999  1.00  0.00    -0.145 N 
HETATM   23  C6  UNL     1      43.419 -20.395 121.664  1.00  0.00     0.342 C 
HETATM   24  O4  UNL     1      43.521 -20.531 122.901  1.00  0.00    -0.259 OA
HETATM   25  C7  UNL     1      42.153 -20.222 121.140  1.00  0.00     0.316 C 
HETATM   26  O5  UNL     1      41.206 -20.103 121.974  1.00  0.00    -0.262 OA
HETATM   27  N4  UNL     1      41.746 -20.156 119.861  1.00  0.00    -0.318 N 
ATOM     28  H4  UNL     1      40.760 -20.347 119.686  1.00  0.00     0.169 HD
BRANCH  22  29
HETATM   29  O3  UNL     1      45.704 -20.912 121.648  1.00  0.00    -0.277 OA
ATOM     30  H3  UNL     1      46.533 -20.653 121.264  1.00  0.00     0.245 HD
ENDBRANCH  22  29
ENDBRANCH   1  18
TORSDOF 7
ENDMDL
MODEL 5
REMARK VINA RESULT: -6.007972395      6.048      8.415
REMARK  7 active torsions:
REMARK  status: ('A' for Active; 'I' for Inactive)
REMARK       I    between atoms: C1_2  and  N5_21 
REMARK    1  A    between atoms: N2_3  and  C2_5 
REMARK    2  A    between atoms: C2_5  and  O1_6 
REMARK    3  A    between atoms: C2_5  and  C3_8 
REMARK    4  A    between atoms: N3_12  and  O3_13 
REMARK    5  A    between atoms: N5_21  and  C8_23 
REMARK    6  A    between atoms: C8_23  and  C9_24 
REMARK    7  A    between atoms: C10_27  and  O6_28 
ROOT
HETATM    1  C2  UNL     1      40.069 -19.026 111.225  1.00  0.00     0.271 C 
ENDROOT
BRANCH   1   2
HETATM    2  N2  UNL     1      41.278 -18.289 111.524  1.00  0.00    -0.333 N 
HETATM    3  C1  UNL     1      41.584 -17.870 112.693  1.00  0.00     0.186 C 
HETATM    4  N1  UNL     1      42.791 -17.160 112.869  1.00  0.00    -0.064 NA
HETATM    5  N5  UNL     1      40.732 -18.113 113.778  1.00  0.00    -0.361 N 
ATOM      6  H5  UNL     1      40.070 -17.378 114.029  1.00  0.00     0.162 HD
ATOM      7  H2  UNL     1      41.923 -18.092 110.759  1.00  0.00     0.165 HD
BRANCH   5   8
HETATM    8  C8  UNL     1      40.716 -19.315 114.568  1.00  0.00     0.173 C 
BRANCH   8   9
HETATM    9  C9  UNL     1      39.599 -19.256 115.589  1.00  0.00     0.252 C 
HETATM   10  N6  UNL     1      40.225 -19.047 116.882  1.00  0.00    -0.110 NA
HETATM   11  N7  UNL     1      39.962 -20.252 117.565  1.00  0.00    -0.086 NA
HETATM   12  C10 UNL     1      38.628 -20.561 117.023  1.00  0.00     0.375 C 
HETATM   13  O7  UNL     1      38.875 -20.419 115.658  1.00  0.00    -0.322 OA
BRANCH  12  14
HETATM   14  O6  UNL     1      37.770 -19.599 117.514  1.00  0.00    -0.357 OA
ATOM     15  H6  UNL     1      37.007 -19.600 116.948  1.00  0.00     0.214 HD
ENDBRANCH  12  14
ENDBRANCH   8   9
ENDBRANCH   5   8
ENDBRANCH   1   2
BRANCH   1  16
HETATM   16  O1  UNL     1      38.947 -18.216 111.215  1.00  0.00    -0.371 OA
ATOM     17  H1  UNL     1      39.107 -17.372 111.621  1.00  0.00     0.212 HD
ENDBRANCH   1  16
BRANCH   1  18
HETATM   18  C3  UNL     1      40.211 -19.636 109.868  1.00  0.00     0.066 C 
HETATM   19  C4  UNL     1      39.518 -20.815 109.654  1.00  0.00     0.106 C 
HETATM   20  C5  UNL     1      39.430 -21.620 108.538  1.00  0.00     0.276 C 
HETATM   21  O2  UNL     1      38.679 -22.627 108.595  1.00  0.00    -0.266 OA
HETATM   22  N3  UNL     1      40.062 -21.458 107.360  1.00  0.00    -0.145 N 
HETATM   23  C6  UNL     1      40.688 -20.331 106.923  1.00  0.00     0.342 C 
HETATM   24  O4  UNL     1      40.949 -20.333 105.702  1.00  0.00    -0.259 OA
HETATM   25  C7  UNL     1      41.054 -19.220 107.656  1.00  0.00     0.316 C 
HETATM   26  O5  UNL     1      41.529 -18.242 107.003  1.00  0.00    -0.262 OA
HETATM   27  N4  UNL     1      40.990 -18.994 108.979  1.00  0.00    -0.318 N 
ATOM     28  H4  UNL     1      41.595 -18.260 109.347  1.00  0.00     0.169 HD
BRANCH  22  29
HETATM   29  O3  UNL     1      40.052 -22.556 106.557  1.00  0.00    -0.277 OA
ATOM     30  H3  UNL     1      40.469 -22.432 105.713  1.00  0.00     0.245 HD
ENDBRANCH  22  29
ENDBRANCH   1  18
TORSDOF 7
ENDMDL
