MODEL 1
REMARK VINA RESULT: -7.304444109      0.000      0.000
REMARK  11 active torsions:
REMARK  status: ('A' for Active; 'I' for Inactive)
REMARK    1  A    between atoms: C3_5  and  O1_6 
REMARK    2  A    between atoms: C4_8  and  C5_9 
REMARK    3  A    between atoms: C5_9  and  C6_10 
REMARK    4  A    between atoms: C6_10  and  C7_11 
REMARK    5  A    between atoms: C16_24  and  C17_25 
REMARK    6  A    between atoms: C17_25  and  C18_26 
REMARK    7  A    between atoms: C18_26  and  C19_27 
REMARK    8  A    between atoms: C19_27  and  C20_28 
REMARK    9  A    between atoms: C20_28  and  N4_29 
REMARK   10  A    between atoms: C22_35  and  O3_36 
REMARK   11  A    between atoms: C23_38  and  C24_39 
ROOT
HETATM    1  C1  UNL     1      -1.265  22.969  15.957  1.00  0.00     0.042 C 
HETATM    2  C2  UNL     1      -1.067  21.556  15.439  1.00  0.00     0.171 C 
HETATM    3  N1  UNL     1      -0.318  20.823  16.457  1.00  0.00    -0.361 N 
ATOM      4  H1  UNL     1      -0.792  20.911  17.357  1.00  0.00     0.162 HD
HETATM    5  C3  UNL     1       0.779  20.078  16.606  1.00  0.00     0.118 C 
HETATM    6  C4  UNL     1       2.207  20.343  17.110  1.00  0.00     0.088 C 
HETATM    7  C11 UNL     1       2.078  20.752  18.593  1.00  0.00     0.146 C 
HETATM    8  C12 UNL     1       3.077  21.693  19.011  1.00  0.00     0.003 C 
HETATM    9  C13 UNL     1       3.948  21.453  19.977  1.00  0.00     0.017 C 
HETATM   10  C14 UNL     1       3.861  20.187  20.678  1.00  0.00     0.107 C 
HETATM   11  N2  UNL     1       2.920  19.370  20.383  1.00  0.00    -0.306 N 
ATOM     12  H2  UNL     1       2.907  18.477  20.876  1.00  0.00     0.186 HD
HETATM   13  N3  UNL     1       1.886  19.599  19.424  1.00  0.00    -0.247 N 
HETATM   14  C15 UNL     1       0.801  18.698  19.511  1.00  0.00     0.285 C 
HETATM   15  O2  UNL     1       1.149  17.480  19.335  1.00  0.00    -0.264 OA
HETATM   16  C16 UNL     1      -0.653  18.862  19.770  1.00  0.00     0.086 C 
HETATM   17  N5  UNL     1      -1.568  18.204  18.858  1.00  0.00    -0.333 N 
HETATM   18  C21 UNL     1      -1.171  16.799  18.572  1.00  0.00     0.158 C 
HETATM   19  C22 UNL     1      -2.757  18.605  18.262  1.00  0.00     0.141 C 
HETATM   20  C23 UNL     1      -3.234  19.832  17.600  1.00  0.00     0.163 C 
HETATM   21  N6  UNL     1      -2.969  19.927  16.184  1.00  0.00    -0.347 N 
ATOM     22  H6  UNL     1      -3.191  19.077  15.666  1.00  0.00     0.163 HD
HETATM   23  C27 UNL     1      -2.468  20.958  15.384  1.00  0.00     0.240 C 
HETATM   24  O4  UNL     1      -3.193  21.504  14.496  1.00  0.00    -0.271 OA
ENDROOT
BRANCH  16  25
HETATM   25  C17 UNL     1      -1.097  20.142  20.327  1.00  0.00     0.090 C 
BRANCH  25  26
HETATM   26  C18 UNL     1      -1.662  20.199  21.681  1.00  0.00    -0.023 C 
BRANCH  26  27
HETATM   27  C19 UNL     1      -0.884  20.016  22.905  1.00  0.00    -0.004 C 
BRANCH  27  28
HETATM   28  C20 UNL     1      -0.237  18.751  23.288  1.00  0.00     0.256 C 
BRANCH  28  29
HETATM   29  N4  UNL     1      -1.230  17.632  23.087  1.00  0.00    -0.076 N 
ATOM     30  H43 UNL     1      -2.071  17.937  22.598  1.00  0.00     0.274 HD
ATOM     31  H42 UNL     1      -0.913  16.944  22.403  1.00  0.00     0.274 HD
ATOM     32  H41 UNL     1      -1.432  17.216  23.996  1.00  0.00     0.274 HD
ENDBRANCH  28  29
ENDBRANCH  27  28
ENDBRANCH  26  27
ENDBRANCH  25  26
ENDBRANCH  16  25
BRANCH  19  33
HETATM   33  O3  UNL     1      -3.681  17.670  18.295  1.00  0.00    -0.348 OA
ATOM     34  H3  UNL     1      -4.502  17.954  17.912  1.00  0.00     0.219 HD
ENDBRANCH  19  33
BRANCH  20  35
HETATM   35  C24 UNL     1      -4.785  19.932  17.663  1.00  0.00     0.008 C 
HETATM   36  C25 UNL     1      -5.293  21.190  18.244  1.00  0.00     0.012 C 
HETATM   37  C26 UNL     1      -5.371  19.605  16.308  1.00  0.00     0.012 C 
ENDBRANCH  20  35
BRANCH   6  38
HETATM   38  C5  UNL     1       2.740  21.305  16.170  1.00  0.00     0.016 C 
BRANCH  38  39
HETATM   39  C6  UNL     1       3.603  20.924  15.026  1.00  0.00     0.009 C 
BRANCH  39  40
HETATM   40  C7  UNL     1       4.986  21.538  15.022  1.00  0.00    -0.051 C 
HETATM   41  C8  UNL     1       5.983  20.518  14.495  1.00  0.00     0.014 C 
HETATM   42  C9  UNL     1       4.899  22.661  13.963  1.00  0.00     0.014 C 
HETATM   43  C10 UNL     1       5.503  22.135  16.250  1.00  0.00     0.014 C 
ENDBRANCH  39  40
ENDBRANCH  38  39
ENDBRANCH   6  38
BRANCH   5  44
HETATM   44  O1  UNL     1       0.739  18.797  16.273  1.00  0.00    -0.349 OA
ATOM     45  H1  UNL     1       0.869  18.550  15.365  1.00  0.00     0.219 HD
ENDBRANCH   5  44
TORSDOF 11
ENDMDL
MODEL 2
REMARK VINA RESULT: -7.162569121      0.820      1.313
REMARK  11 active torsions:
REMARK  status: ('A' for Active; 'I' for Inactive)
REMARK    1  A    between atoms: C3_5  and  O1_6 
REMARK    2  A    between atoms: C4_8  and  C5_9 
REMARK    3  A    between atoms: C5_9  and  C6_10 
REMARK    4  A    between atoms: C6_10  and  C7_11 
REMARK    5  A    between atoms: C16_24  and  C17_25 
REMARK    6  A    between atoms: C17_25  and  C18_26 
REMARK    7  A    between atoms: C18_26  and  C19_27 
REMARK    8  A    between atoms: C19_27  and  C20_28 
REMARK    9  A    between atoms: C20_28  and  N4_29 
REMARK   10  A    between atoms: C22_35  and  O3_36 
REMARK   11  A    between atoms: C23_38  and  C24_39 
ROOT
HETATM    1  C1  UNL     1      -1.413  22.939  16.105  1.00  0.00     0.042 C 
HETATM    2  C2  UNL     1      -1.176  21.549  15.540  1.00  0.00     0.171 C 
HETATM    3  N1  UNL     1      -0.393  20.810  16.528  1.00  0.00    -0.361 N 
ATOM      4  H1  UNL     1      -0.860  20.854  17.434  1.00  0.00     0.162 HD
HETATM    5  C3  UNL     1       0.729  20.096  16.643  1.00  0.00     0.118 C 
HETATM    6  C4  UNL     1       2.152  20.391  17.141  1.00  0.00     0.088 C 
HETATM    7  C11 UNL     1       2.026  20.749  18.637  1.00  0.00     0.146 C 
HETATM    8  C12 UNL     1       2.999  21.708  19.075  1.00  0.00     0.003 C 
HETATM    9  C13 UNL     1       3.887  21.466  20.025  1.00  0.00     0.017 C 
HETATM   10  C14 UNL     1       3.848  20.177  20.686  1.00  0.00     0.107 C 
HETATM   11  N2  UNL     1       2.930  19.339  20.374  1.00  0.00    -0.306 N 
ATOM     12  H2  UNL     1       2.951  18.431  20.839  1.00  0.00     0.186 HD
HETATM   13  N3  UNL     1       1.880  19.565  19.433  1.00  0.00    -0.247 N 
HETATM   14  C15 UNL     1       0.825  18.627  19.502  1.00  0.00     0.285 C 
HETATM   15  O2  UNL     1       1.210  17.428  19.284  1.00  0.00    -0.264 OA
HETATM   16  C16 UNL     1      -0.631  18.736  19.780  1.00  0.00     0.086 C 
HETATM   17  N5  UNL     1      -1.534  18.078  18.856  1.00  0.00    -0.333 N 
HETATM   18  C21 UNL     1      -1.095  16.695  18.522  1.00  0.00     0.158 C 
HETATM   19  C22 UNL     1      -2.741  18.459  18.285  1.00  0.00     0.141 C 
HETATM   20  C23 UNL     1      -3.264  19.690  17.667  1.00  0.00     0.163 C 
HETATM   21  N6  UNL     1      -3.017  19.838  16.251  1.00  0.00    -0.347 N 
ATOM     22  H6  UNL     1      -3.217  18.998  15.709  1.00  0.00     0.163 HD
HETATM   23  C27 UNL     1      -2.558  20.909  15.480  1.00  0.00     0.240 C 
HETATM   24  O4  UNL     1      -3.309  21.458  14.616  1.00  0.00    -0.271 OA
ENDROOT
BRANCH  16  25
HETATM   25  C17 UNL     1      -1.109  19.983  20.381  1.00  0.00     0.090 C 
BRANCH  25  26
HETATM   26  C18 UNL     1      -1.366  20.052  21.825  1.00  0.00    -0.023 C 
BRANCH  26  27
HETATM   27  C19 UNL     1      -0.372  19.745  22.853  1.00  0.00    -0.004 C 
BRANCH  27  28
HETATM   28  C20 UNL     1      -0.268  18.445  23.533  1.00  0.00     0.256 C 
BRANCH  28  29
HETATM   29  N4  UNL     1      -1.336  17.533  22.980  1.00  0.00    -0.076 N 
ATOM     30  H43 UNL     1      -1.809  17.930  22.168  1.00  0.00     0.274 HD
ATOM     31  H42 UNL     1      -0.949  16.706  22.525  1.00  0.00     0.274 HD
ATOM     32  H41 UNL     1      -1.981  17.300  23.735  1.00  0.00     0.274 HD
ENDBRANCH  28  29
ENDBRANCH  27  28
ENDBRANCH  26  27
ENDBRANCH  25  26
ENDBRANCH  16  25
BRANCH  19  33
HETATM   33  O3  UNL     1      -3.634  17.494  18.297  1.00  0.00    -0.348 OA
ATOM     34  H3  UNL     1      -3.239  16.630  18.295  1.00  0.00     0.219 HD
ENDBRANCH  19  33
BRANCH  20  35
HETATM   35  C24 UNL     1      -4.816  19.737  17.747  1.00  0.00     0.008 C 
HETATM   36  C25 UNL     1      -5.356  20.928  18.432  1.00  0.00     0.012 C 
HETATM   37  C26 UNL     1      -5.404  19.505  16.374  1.00  0.00     0.012 C 
ENDBRANCH  20  35
BRANCH   6  38
HETATM   38  C5  UNL     1       2.644  21.399  16.227  1.00  0.00     0.016 C 
BRANCH  38  39
HETATM   39  C6  UNL     1       3.217  21.074  14.898  1.00  0.00     0.009 C 
BRANCH  39  40
HETATM   40  C7  UNL     1       2.508  21.698  13.715  1.00  0.00    -0.051 C 
HETATM   41  C8  UNL     1       1.937  23.045  14.131  1.00  0.00     0.014 C 
HETATM   42  C9  UNL     1       3.643  21.990  12.706  1.00  0.00     0.014 C 
HETATM   43  C10 UNL     1       1.485  20.931  13.012  1.00  0.00     0.014 C 
ENDBRANCH  39  40
ENDBRANCH  38  39
ENDBRANCH   6  38
BRANCH   5  44
HETATM   44  O1  UNL     1       0.726  18.826  16.270  1.00  0.00    -0.349 OA
ATOM     45  H1  UNL     1       1.306  18.547  15.571  1.00  0.00     0.219 HD
ENDBRANCH   5  44
TORSDOF 11
ENDMDL
MODEL 3
REMARK VINA RESULT: -6.345597619      1.242      1.428
REMARK  11 active torsions:
REMARK  status: ('A' for Active; 'I' for Inactive)
REMARK    1  A    between atoms: C3_5  and  O1_6 
REMARK    2  A    between atoms: C4_8  and  C5_9 
REMARK    3  A    between atoms: C5_9  and  C6_10 
REMARK    4  A    between atoms: C6_10  and  C7_11 
REMARK    5  A    between atoms: C16_24  and  C17_25 
REMARK    6  A    between atoms: C17_25  and  C18_26 
REMARK    7  A    between atoms: C18_26  and  C19_27 
REMARK    8  A    between atoms: C19_27  and  C20_28 
REMARK    9  A    between atoms: C20_28  and  N4_29 
REMARK   10  A    between atoms: C22_35  and  O3_36 
REMARK   11  A    between atoms: C23_38  and  C24_39 
ROOT
HETATM    1  C1  UNL     1       0.160  23.643  15.001  1.00  0.00     0.042 C 
HETATM    2  C2  UNL     1       0.241  22.215  14.489  1.00  0.00     0.171 C 
HETATM    3  N1  UNL     1       0.620  21.372  15.621  1.00  0.00    -0.361 N 
ATOM      4  H1  UNL     1      -0.021  21.537  16.398  1.00  0.00     0.162 HD
HETATM    5  C3  UNL     1       1.525  20.459  15.980  1.00  0.00     0.118 C 
HETATM    6  C4  UNL     1       2.829  20.490  16.793  1.00  0.00     0.088 C 
HETATM    7  C11 UNL     1       2.442  20.916  18.225  1.00  0.00     0.146 C 
HETATM    8  C12 UNL     1       3.460  21.683  18.884  1.00  0.00     0.003 C 
HETATM    9  C13 UNL     1       4.046  21.306  20.007  1.00  0.00     0.017 C 
HETATM   10  C14 UNL     1       3.607  20.072  20.628  1.00  0.00     0.107 C 
HETATM   11  N2  UNL     1       2.636  19.418  20.107  1.00  0.00    -0.306 N 
ATOM     12  H2  UNL     1       2.373  18.540  20.554  1.00  0.00     0.186 HD
HETATM   13  N3  UNL     1       1.890  19.811  18.954  1.00  0.00    -0.247 N 
HETATM   14  C15 UNL     1       0.684  19.098  18.771  1.00  0.00     0.285 C 
HETATM   15  O2  UNL     1       0.865  17.840  18.633  1.00  0.00    -0.264 OA
HETATM   16  C16 UNL     1      -0.747  19.497  18.711  1.00  0.00     0.086 C 
HETATM   17  N5  UNL     1      -1.529  18.994  17.599  1.00  0.00    -0.333 N 
HETATM   18  C21 UNL     1      -1.307  17.542  17.358  1.00  0.00     0.158 C 
HETATM   19  C22 UNL     1      -2.478  19.582  16.772  1.00  0.00     0.141 C 
HETATM   20  C23 UNL     1      -2.596  20.869  16.064  1.00  0.00     0.163 C 
HETATM   21  N6  UNL     1      -2.012  20.918  14.744  1.00  0.00    -0.347 N 
ATOM     22  H6  UNL     1      -2.246  20.114  14.161  1.00  0.00     0.163 HD
HETATM   23  C27 UNL     1      -1.190  21.853  14.109  1.00  0.00     0.240 C 
HETATM   24  O4  UNL     1      -1.604  22.507  13.103  1.00  0.00    -0.271 OA
ENDROOT
BRANCH  16  25
HETATM   25  C17 UNL     1      -1.094  20.832  19.201  1.00  0.00     0.090 C 
BRANCH  25  26
HETATM   26  C18 UNL     1      -1.073  21.116  20.641  1.00  0.00    -0.023 C 
BRANCH  26  27
HETATM   27  C19 UNL     1      -1.348  20.123  21.679  1.00  0.00    -0.004 C 
BRANCH  27  28
HETATM   28  C20 UNL     1      -0.305  19.377  22.401  1.00  0.00     0.256 C 
BRANCH  28  29
HETATM   29  N4  UNL     1      -0.977  18.330  23.255  1.00  0.00    -0.076 N 
ATOM     30  H43 UNL     1      -0.309  17.710  23.714  1.00  0.00     0.274 HD
ATOM     31  H42 UNL     1      -1.402  18.722  24.096  1.00  0.00     0.274 HD
ATOM     32  H41 UNL     1      -1.647  17.825  22.675  1.00  0.00     0.274 HD
ENDBRANCH  28  29
ENDBRANCH  27  28
ENDBRANCH  26  27
ENDBRANCH  25  26
ENDBRANCH  16  25
BRANCH  19  33
HETATM   33  O3  UNL     1      -3.522  18.809  16.570  1.00  0.00    -0.348 OA
ATOM     34  H3  UNL     1      -4.234  19.263  16.134  1.00  0.00     0.219 HD
ENDBRANCH  19  33
BRANCH  20  35
HETATM   35  C24 UNL     1      -4.086  21.219  15.789  1.00  0.00     0.008 C 
HETATM   36  C25 UNL     1      -4.789  21.834  16.932  1.00  0.00     0.012 C 
HETATM   37  C26 UNL     1      -4.195  22.013  14.508  1.00  0.00     0.012 C 
ENDBRANCH  20  35
BRANCH   6  38
HETATM   38  C5  UNL     1       3.702  21.351  16.026  1.00  0.00     0.016 C 
BRANCH  38  39
HETATM   39  C6  UNL     1       4.441  20.890  14.826  1.00  0.00     0.009 C 
BRANCH  39  40
HETATM   40  C7  UNL     1       5.867  21.386  14.710  1.00  0.00    -0.051 C 
HETATM   41  C8  UNL     1       6.735  20.277  14.137  1.00  0.00     0.014 C 
HETATM   42  C9  UNL     1       5.795  22.494  13.634  1.00  0.00     0.014 C 
HETATM   43  C10 UNL     1       6.519  21.958  15.883  1.00  0.00     0.014 C 
ENDBRANCH  39  40
ENDBRANCH  38  39
ENDBRANCH   6  38
BRANCH   5  44
HETATM   44  O1  UNL     1       1.357  19.201  15.603  1.00  0.00    -0.349 OA
ATOM     45  H1  UNL     1       1.709  18.504  16.144  1.00  0.00     0.219 HD
ENDBRANCH   5  44
TORSDOF 11
ENDMDL
MODEL 4
REMARK VINA RESULT: -6.255286289      2.301      5.556
REMARK  11 active torsions:
REMARK  status: ('A' for Active; 'I' for Inactive)
REMARK    1  A    between atoms: C3_5  and  O1_6 
REMARK    2  A    between atoms: C4_8  and  C5_9 
REMARK    3  A    between atoms: C5_9  and  C6_10 
REMARK    4  A    between atoms: C6_10  and  C7_11 
REMARK    5  A    between atoms: C16_24  and  C17_25 
REMARK    6  A    between atoms: C17_25  and  C18_26 
REMARK    7  A    between atoms: C18_26  and  C19_27 
REMARK    8  A    between atoms: C19_27  and  C20_28 
REMARK    9  A    between atoms: C20_28  and  N4_29 
REMARK   10  A    between atoms: C22_35  and  O3_36 
REMARK   11  A    between atoms: C23_38  and  C24_39 
ROOT
HETATM    1  C1  UNL     1       2.385  23.801  19.182  1.00  0.00     0.042 C 
HETATM    2  C2  UNL     1       3.072  22.447  19.209  1.00  0.00     0.171 C 
HETATM    3  N1  UNL     1       2.265  21.571  20.056  1.00  0.00    -0.361 N 
ATOM      4  H1  UNL     1       1.298  21.580  19.729  1.00  0.00     0.162 HD
HETATM    5  C3  UNL     1       2.367  20.763  21.113  1.00  0.00     0.118 C 
HETATM    6  C4  UNL     1       2.068  20.904  22.614  1.00  0.00     0.088 C 
HETATM    7  C11 UNL     1       0.550  21.149  22.736  1.00  0.00     0.146 C 
HETATM    8  C12 UNL     1       0.198  21.990  23.845  1.00  0.00     0.003 C 
HETATM    9  C13 UNL     1      -0.590  21.603  24.834  1.00  0.00     0.017 C 
HETATM   10  C14 UNL     1      -1.161  20.271  24.773  1.00  0.00     0.107 C 
HETATM   11  N2  UNL     1      -0.934  19.537  23.748  1.00  0.00    -0.306 N 
ATOM     12  H2  UNL     1      -1.328  18.596  23.753  1.00  0.00     0.186 HD
HETATM   13  N3  UNL     1      -0.178  19.921  22.599  1.00  0.00    -0.247 N 
HETATM   14  C15 UNL     1      -0.340  19.067  21.485  1.00  0.00     0.285 C 
HETATM   15  O2  UNL     1       0.014  17.862  21.724  1.00  0.00    -0.264 OA
HETATM   16  C16 UNL     1      -0.839  19.269  20.099  1.00  0.00     0.086 C 
HETATM   17  N5  UNL     1      -0.018  18.760  19.018  1.00  0.00    -0.333 N 
HETATM   18  C21 UNL     1       0.471  17.379  19.277  1.00  0.00     0.158 C 
HETATM   19  C22 UNL     1       0.339  19.281  17.781  1.00  0.00     0.141 C 
HETATM   20  C23 UNL     1       0.788  20.595  17.288  1.00  0.00     0.163 C 
HETATM   21  N6  UNL     1       2.211  20.836  17.342  1.00  0.00    -0.347 N 
ATOM     22  H6  UNL     1       2.773  20.061  16.991  1.00  0.00     0.163 HD
HETATM   23  C27 UNL     1       2.968  21.926  17.781  1.00  0.00     0.240 C 
HETATM   24  O4  UNL     1       3.671  22.600  16.967  1.00  0.00    -0.271 OA
ENDROOT
BRANCH  16  25
HETATM   25  C17 UNL     1      -1.588  20.498  19.826  1.00  0.00     0.090 C 
BRANCH  25  26
HETATM   26  C18 UNL     1      -2.921  20.426  19.216  1.00  0.00    -0.023 C 
BRANCH  26  27
HETATM   27  C19 UNL     1      -3.173  20.015  17.835  1.00  0.00    -0.004 C 
BRANCH  27  28
HETATM   28  C20 UNL     1      -3.364  18.618  17.415  1.00  0.00     0.256 C 
BRANCH  28  29
HETATM   29  N4  UNL     1      -2.746  18.445  16.049  1.00  0.00    -0.076 N 
ATOM     30  H43 UNL     1      -1.962  17.793  16.052  1.00  0.00     0.274 HD
ATOM     31  H42 UNL     1      -3.350  17.932  15.407  1.00  0.00     0.274 HD
ATOM     32  H41 UNL     1      -2.490  19.367  15.695  1.00  0.00     0.274 HD
ENDBRANCH  28  29
ENDBRANCH  27  28
ENDBRANCH  26  27
ENDBRANCH  25  26
ENDBRANCH  16  25
BRANCH  19  33
HETATM   33  O3  UNL     1       0.259  18.392  16.815  1.00  0.00    -0.348 OA
ATOM     34  H3  UNL     1       0.663  18.691  16.009  1.00  0.00     0.219 HD
ENDBRANCH  19  33
BRANCH  20  35
HETATM   35  C24 UNL     1       0.474  20.759  15.774  1.00  0.00     0.008 C 
HETATM   36  C25 UNL     1      -0.343  21.944  15.445  1.00  0.00     0.012 C 
HETATM   37  C26 UNL     1       1.753  20.659  14.975  1.00  0.00     0.012 C 
ENDBRANCH  20  35
BRANCH   6  38
HETATM   38  C5  UNL     1       2.975  21.939  23.060  1.00  0.00     0.016 C 
BRANCH  38  39
HETATM   39  C6  UNL     1       4.380  21.669  23.451  1.00  0.00     0.009 C 
BRANCH  39  40
HETATM   40  C7  UNL     1       5.409  22.618  22.874  1.00  0.00    -0.051 C 
HETATM   41  C8  UNL     1       5.898  22.073  21.542  1.00  0.00     0.014 C 
HETATM   42  C9  UNL     1       4.605  23.901  22.561  1.00  0.00     0.014 C 
HETATM   43  C10 UNL     1       6.554  23.008  23.690  1.00  0.00     0.014 C 
ENDBRANCH  39  40
ENDBRANCH  38  39
ENDBRANCH   6  38
BRANCH   5  44
HETATM   44  O1  UNL     1       2.821  19.531  20.943  1.00  0.00    -0.349 OA
ATOM     45  H1  UNL     1       3.452  19.180  21.559  1.00  0.00     0.219 HD
ENDBRANCH   5  44
TORSDOF 11
ENDMDL
MODEL 5
REMARK VINA RESULT: -6.114165645      1.953      2.572
REMARK  11 active torsions:
REMARK  status: ('A' for Active; 'I' for Inactive)
REMARK    1  A    between atoms: C3_5  and  O1_6 
REMARK    2  A    between atoms: C4_8  and  C5_9 
REMARK    3  A    between atoms: C5_9  and  C6_10 
REMARK    4  A    between atoms: C6_10  and  C7_11 
REMARK    5  A    between atoms: C16_24  and  C17_25 
REMARK    6  A    between atoms: C17_25  and  C18_26 
REMARK    7  A    between atoms: C18_26  and  C19_27 
REMARK    8  A    between atoms: C19_27  and  C20_28 
REMARK    9  A    between atoms: C20_28  and  N4_29 
REMARK   10  A    between atoms: C22_35  and  O3_36 
REMARK   11  A    between atoms: C23_38  and  C24_39 
ROOT
HETATM    1  C1  UNL     1       0.567  23.958  14.964  1.00  0.00     0.042 C 
HETATM    2  C2  UNL     1       0.576  22.555  14.385  1.00  0.00     0.171 C 
HETATM    3  N1  UNL     1       0.801  21.632  15.496  1.00  0.00    -0.361 N 
ATOM      4  H1  UNL     1       0.117  21.811  16.231  1.00  0.00     0.162 HD
HETATM    5  C3  UNL     1       1.602  20.632  15.871  1.00  0.00     0.118 C 
HETATM    6  C4  UNL     1       2.839  20.520  16.778  1.00  0.00     0.088 C 
HETATM    7  C11 UNL     1       2.376  20.909  18.198  1.00  0.00     0.146 C 
HETATM    8  C12 UNL     1       3.397  21.559  18.969  1.00  0.00     0.003 C 
HETATM    9  C13 UNL     1       3.863  21.084  20.111  1.00  0.00     0.017 C 
HETATM   10  C14 UNL     1       3.284  19.861  20.632  1.00  0.00     0.107 C 
HETATM   11  N2  UNL     1       2.309  19.313  20.007  1.00  0.00    -0.306 N 
ATOM     12  H2  UNL     1       1.945  18.439  20.387  1.00  0.00     0.186 HD
HETATM   13  N3  UNL     1       1.687  19.819  18.825  1.00  0.00    -0.247 N 
HETATM   14  C15 UNL     1       0.447  19.214  18.517  1.00  0.00     0.285 C 
HETATM   15  O2  UNL     1       0.541  17.954  18.326  1.00  0.00    -0.264 OA
HETATM   16  C16 UNL     1      -0.940  19.730  18.374  1.00  0.00     0.086 C 
HETATM   17  N5  UNL     1      -1.671  19.345  17.182  1.00  0.00    -0.333 N 
HETATM   18  C21 UNL     1      -1.543  17.893  16.882  1.00  0.00     0.158 C 
HETATM   19  C22 UNL     1      -2.505  20.046  16.321  1.00  0.00     0.141 C 
HETATM   20  C23 UNL     1      -2.469  21.369  15.675  1.00  0.00     0.163 C 
HETATM   21  N6  UNL     1      -1.783  21.433  14.406  1.00  0.00    -0.347 N 
ATOM     22  H6  UNL     1      -2.032  20.679  13.766  1.00  0.00     0.163 HD
HETATM   23  C27 UNL     1      -0.845  22.327  13.883  1.00  0.00     0.240 C 
HETATM   24  O4  UNL     1      -1.129  23.059  12.885  1.00  0.00    -0.271 OA
ENDROOT
BRANCH  16  25
HETATM   25  C17 UNL     1      -1.220  21.065  18.907  1.00  0.00     0.090 C 
BRANCH  25  26
HETATM   26  C18 UNL     1      -2.300  21.255  19.883  1.00  0.00    -0.023 C 
BRANCH  26  27
HETATM   27  C19 UNL     1      -3.470  22.103  19.661  1.00  0.00    -0.004 C 
BRANCH  27  28
HETATM   28  C20 UNL     1      -4.843  21.592  19.526  1.00  0.00     0.256 C 
BRANCH  28  29
HETATM   29  N4  UNL     1      -4.787  20.273  18.795  1.00  0.00    -0.076 N 
ATOM     30  H43 UNL     1      -4.165  19.601  19.244  1.00  0.00     0.274 HD
ATOM     31  H42 UNL     1      -5.653  19.739  18.883  1.00  0.00     0.274 HD
ATOM     32  H41 UNL     1      -4.535  20.455  17.824  1.00  0.00     0.274 HD
ENDBRANCH  28  29
ENDBRANCH  27  28
ENDBRANCH  26  27
ENDBRANCH  25  26
ENDBRANCH  16  25
BRANCH  19  33
HETATM   33  O3  UNL     1      -3.587  19.370  16.002  1.00  0.00    -0.348 OA
ATOM     34  H3  UNL     1      -4.189  19.875  15.468  1.00  0.00     0.219 HD
ENDBRANCH  19  33
BRANCH  20  35
HETATM   35  C24 UNL     1      -3.901  21.851  15.311  1.00  0.00     0.008 C 
HETATM   36  C25 UNL     1      -4.400  22.967  16.139  1.00  0.00     0.012 C 
HETATM   37  C26 UNL     1      -3.990  22.109  13.825  1.00  0.00     0.012 C 
ENDBRANCH  20  35
BRANCH   6  38
HETATM   38  C5  UNL     1       3.832  21.343  16.123  1.00  0.00     0.016 C 
BRANCH  38  39
HETATM   39  C6  UNL     1       4.427  20.999  14.809  1.00  0.00     0.009 C 
BRANCH  39  40
HETATM   40  C7  UNL     1       5.848  21.474  14.595  1.00  0.00    -0.051 C 
HETATM   41  C8  UNL     1       6.361  22.107  15.879  1.00  0.00     0.014 C 
HETATM   42  C9  UNL     1       6.655  20.170  14.391  1.00  0.00     0.014 C 
HETATM   43  C10 UNL     1       6.144  22.352  13.468  1.00  0.00     0.014 C 
ENDBRANCH  39  40
ENDBRANCH  38  39
ENDBRANCH   6  38
BRANCH   5  44
HETATM   44  O1  UNL     1       1.368  19.411  15.417  1.00  0.00    -0.349 OA
ATOM     45  H1  UNL     1       0.992  18.764  16.001  1.00  0.00     0.219 HD
ENDBRANCH   5  44
TORSDOF 11
ENDMDL
