MODEL 1
REMARK VINA RESULT: -6.566084121      0.000      0.000
REMARK  8 active torsions:
REMARK  status: ('A' for Active; 'I' for Inactive)
REMARK    1  A    between atoms: C2_2  and  C3_3 
REMARK    2  A    between atoms: C3_3  and  N1_4 
REMARK       I    between atoms: N1_4  and  C4_6 
REMARK    3  A    between atoms: C4_6  and  C5_8 
REMARK    4  A    between atoms: C9_12  and  N2_13 
REMARK    5  A    between atoms: N2_13  and  N3_15 
REMARK    6  A    between atoms: C12_24  and  C13_25 
REMARK    7  A    between atoms: C13_25  and  C14_26 
REMARK    8  A    between atoms: C14_26  and  C15_27 
ROOT
HETATM    1  C5  UNL     1      -0.836   3.986  22.547  1.00  0.00     0.207 C 
HETATM    2  C6  UNL     1      -0.676   2.916  21.455  1.00  0.00     0.064 C 
HETATM    3  C7  UNL     1      -1.996   2.859  20.766  1.00  0.00    -0.026 C 
HETATM    4  C8  UNL     1      -3.145   2.318  21.156  1.00  0.00     0.005 C 
HETATM    5  C9  UNL     1      -3.745   1.590  22.255  1.00  0.00     0.217 C 
HETATM    6  C10 UNL     1      -3.266   1.914  23.618  1.00  0.00     0.270 C 
HETATM    7  O2  UNL     1      -3.970   1.291  24.452  1.00  0.00    -0.269 OA
HETATM    8  N5  UNL     1      -2.248   2.717  24.299  1.00  0.00    -0.230 N 
HETATM    9  C11 UNL     1      -2.836   2.763  25.582  1.00  0.00     0.118 C 
HETATM   10  C12 UNL     1      -2.254   3.382  26.754  1.00  0.00     0.125 C 
HETATM   11  N6  UNL     1      -2.735   2.697  27.946  1.00  0.00    -0.370 N 
HETATM   12  C17 UNL     1      -3.984   3.077  28.591  1.00  0.00     0.151 C 
HETATM   13  C18 UNL     1      -2.043   1.626  28.555  1.00  0.00     0.075 C 
HETATM   14  S1  UNL     1      -2.191   1.488  30.213  1.00  0.00    -0.066 SA
HETATM   15  C19 UNL     1      -1.218   0.618  27.889  1.00  0.00     0.071 C 
HETATM   16  C20 UNL     1       0.226   0.950  27.718  1.00  0.00     0.037 C 
HETATM   17  C21 UNL     1       0.768   0.302  26.433  1.00  0.00     0.273 C 
HETATM   18  N7  UNL     1       0.180   0.937  25.241  1.00  0.00     0.093 N 
HETATM   19  C22 UNL     1       0.463  -0.013  24.154  1.00  0.00     0.310 C 
HETATM   20  C23 UNL     1       0.942   2.111  24.997  1.00  0.00     0.376 C 
HETATM   21  C24 UNL     1       0.250   3.211  24.295  1.00  0.00     0.268 C 
HETATM   22  O3  UNL     1       1.031   4.239  24.185  1.00  0.00    -0.270 OA
HETATM   23  N8  UNL     1      -1.066   3.250  23.776  1.00  0.00    -0.237 N 
ENDROOT
BRANCH   1  24
HETATM   24  C4  UNL     1      -1.829   4.963  22.143  1.00  0.00     0.243 C 
HETATM   25  N1  UNL     1      -1.631   5.618  20.893  1.00  0.00    -0.356 N 
ATOM     26  H1  UNL     1      -0.815   5.390  20.325  1.00  0.00     0.162 HD
HETATM   27  O1  UNL     1      -2.817   5.239  22.833  1.00  0.00    -0.271 OA
BRANCH  25  28
HETATM   28  C3  UNL     1      -2.583   6.605  20.427  1.00  0.00     0.149 C 
BRANCH  28  29
HETATM   29  C2  UNL     1      -1.956   7.446  19.377  1.00  0.00    -0.018 C 
HETATM   30  C1  UNL     1      -1.994   8.752  19.424  1.00  0.00     0.008 C 
ENDBRANCH  28  29
ENDBRANCH  25  28
ENDBRANCH   1  24
BRANCH   5  31
HETATM   31  N2  UNL     1      -3.530   0.156  22.001  1.00  0.00    -0.305 N 
ATOM     32  H2  UNL     1      -2.635  -0.153  21.623  1.00  0.00     0.183 HD
BRANCH  31  33
HETATM   33  N3  UNL     1      -4.520  -0.787  22.263  1.00  0.00    -0.253 N 
HETATM   34  N4  UNL     1      -5.713  -0.505  22.578  1.00  0.00    -0.331 N 
ATOM     35  H42 UNL     1      -5.949   0.486  22.640  1.00  0.00     0.178 HD
ATOM     36  H41 UNL     1      -6.438  -1.196  22.770  1.00  0.00     0.178 HD
ATOM     37  H3  UNL     1      -4.266  -1.773  22.197  1.00  0.00     0.207 HD
ENDBRANCH  31  33
ENDBRANCH   5  31
BRANCH  10  38
HETATM   38  C13 UNL     1      -2.651   4.871  26.786  1.00  0.00     0.031 C 
BRANCH  38  39
HETATM   39  C14 UNL     1      -1.659   5.687  27.544  1.00  0.00     0.002 C 
BRANCH  39  40
HETATM   40  C15 UNL     1      -2.271   6.371  28.750  1.00  0.00    -0.004 C 
HETATM   41  C16 UNL     1      -1.242   7.187  29.503  1.00  0.00     0.005 C 
ENDBRANCH  39  40
ENDBRANCH  38  39
ENDBRANCH  10  38
TORSDOF 8
ENDMDL
MODEL 2
REMARK VINA RESULT: -6.247719862      2.539      5.659
REMARK  8 active torsions:
REMARK  status: ('A' for Active; 'I' for Inactive)
REMARK    1  A    between atoms: C2_2  and  C3_3 
REMARK    2  A    between atoms: C3_3  and  N1_4 
REMARK       I    between atoms: N1_4  and  C4_6 
REMARK    3  A    between atoms: C4_6  and  C5_8 
REMARK    4  A    between atoms: C9_12  and  N2_13 
REMARK    5  A    between atoms: N2_13  and  N3_15 
REMARK    6  A    between atoms: C12_24  and  C13_25 
REMARK    7  A    between atoms: C13_25  and  C14_26 
REMARK    8  A    between atoms: C14_26  and  C15_27 
ROOT
HETATM    1  C5  UNL     1      -2.112   1.373  22.589  1.00  0.00     0.207 C 
HETATM    2  C6  UNL     1      -2.290   1.444  21.064  1.00  0.00     0.064 C 
HETATM    3  C7  UNL     1      -1.249   2.401  20.593  1.00  0.00    -0.026 C 
HETATM    4  C8  UNL     1      -1.205   3.727  20.669  1.00  0.00     0.005 C 
HETATM    5  C9  UNL     1      -1.961   4.864  21.150  1.00  0.00     0.217 C 
HETATM    6  C10 UNL     1      -2.753   4.673  22.386  1.00  0.00     0.270 C 
HETATM    7  O2  UNL     1      -3.241   5.779  22.728  1.00  0.00    -0.269 OA
HETATM    8  N5  UNL     1      -3.147   3.622  23.326  1.00  0.00    -0.230 N 
HETATM    9  C11 UNL     1      -3.510   4.439  24.419  1.00  0.00     0.118 C 
HETATM   10  C12 UNL     1      -4.061   3.972  25.674  1.00  0.00     0.125 C 
HETATM   11  N6  UNL     1      -4.904   5.015  26.244  1.00  0.00    -0.370 N 
HETATM   12  C17 UNL     1      -4.350   6.064  27.088  1.00  0.00     0.151 C 
HETATM   13  C18 UNL     1      -6.296   5.091  26.022  1.00  0.00     0.075 C 
HETATM   14  S1  UNL     1      -7.218   5.722  27.264  1.00  0.00    -0.066 SA
HETATM   15  C19 UNL     1      -7.020   4.685  24.817  1.00  0.00     0.071 C 
HETATM   16  C20 UNL     1      -7.476   3.266  24.762  1.00  0.00     0.037 C 
HETATM   17  C21 UNL     1      -7.477   2.768  23.308  1.00  0.00     0.273 C 
HETATM   18  N7  UNL     1      -6.101   2.650  22.796  1.00  0.00     0.093 N 
HETATM   19  C22 UNL     1      -6.268   2.564  21.337  1.00  0.00     0.310 C 
HETATM   20  C23 UNL     1      -5.611   1.396  23.250  1.00  0.00     0.376 C 
HETATM   21  C24 UNL     1      -4.148   1.282  23.415  1.00  0.00     0.268 C 
HETATM   22  O3  UNL     1      -3.836   0.116  23.885  1.00  0.00    -0.270 OA
HETATM   23  N8  UNL     1      -3.141   2.237  23.136  1.00  0.00    -0.237 N 
ENDROOT
BRANCH   1  24
HETATM   24  C4  UNL     1      -0.733   1.649  22.941  1.00  0.00     0.243 C 
HETATM   25  N1  UNL     1      -0.501   2.483  24.073  1.00  0.00    -0.356 N 
ATOM     26  H1  UNL     1      -1.292   2.859  24.596  1.00  0.00     0.162 HD
HETATM   27  O1  UNL     1       0.225   1.194  22.306  1.00  0.00    -0.271 OA
BRANCH  25  28
HETATM   28  C3  UNL     1       0.851   2.800  24.482  1.00  0.00     0.149 C 
BRANCH  28  29
HETATM   29  C2  UNL     1       1.222   1.980  25.662  1.00  0.00    -0.018 C 
HETATM   30  C1  UNL     1       1.750   0.791  25.538  1.00  0.00     0.008 C 
ENDBRANCH  28  29
ENDBRANCH  25  28
ENDBRANCH   1  24
BRANCH   5  31
HETATM   31  N2  UNL     1      -2.863   5.282  20.064  1.00  0.00    -0.305 N 
ATOM     32  H2  UNL     1      -3.363   4.571  19.531  1.00  0.00     0.183 HD
BRANCH  31  33
HETATM   33  N3  UNL     1      -3.050   6.625  19.746  1.00  0.00    -0.253 N 
HETATM   34  N4  UNL     1      -3.933   7.367  20.268  1.00  0.00    -0.331 N 
ATOM     35  H42 UNL     1      -4.539   6.938  20.967  1.00  0.00     0.178 HD
ATOM     36  H41 UNL     1      -4.070   8.351  20.036  1.00  0.00     0.178 HD
ATOM     37  H3  UNL     1      -2.435   7.038  19.045  1.00  0.00     0.207 HD
ENDBRANCH  31  33
ENDBRANCH   5  31
BRANCH  10  38
HETATM   38  C13 UNL     1      -2.905   3.624  26.632  1.00  0.00     0.031 C 
BRANCH  38  39
HETATM   39  C14 UNL     1      -2.795   2.152  26.848  1.00  0.00     0.002 C 
BRANCH  39  40
HETATM   40  C15 UNL     1      -1.732   1.793  27.865  1.00  0.00    -0.004 C 
HETATM   41  C16 UNL     1      -1.029   3.028  28.389  1.00  0.00     0.005 C 
ENDBRANCH  39  40
ENDBRANCH  38  39
ENDBRANCH  10  38
TORSDOF 8
ENDMDL
MODEL 3
REMARK VINA RESULT: -6.123745146      2.669      3.524
REMARK  8 active torsions:
REMARK  status: ('A' for Active; 'I' for Inactive)
REMARK    1  A    between atoms: C2_2  and  C3_3 
REMARK    2  A    between atoms: C3_3  and  N1_4 
REMARK       I    between atoms: N1_4  and  C4_6 
REMARK    3  A    between atoms: C4_6  and  C5_8 
REMARK    4  A    between atoms: C9_12  and  N2_13 
REMARK    5  A    between atoms: N2_13  and  N3_15 
REMARK    6  A    between atoms: C12_24  and  C13_25 
REMARK    7  A    between atoms: C13_25  and  C14_26 
REMARK    8  A    between atoms: C14_26  and  C15_27 
ROOT
HETATM    1  C5  UNL     1      -2.584   3.375  23.101  1.00  0.00     0.207 C 
HETATM    2  C6  UNL     1      -3.197   2.436  22.050  1.00  0.00     0.064 C 
HETATM    3  C7  UNL     1      -3.933   3.329  21.110  1.00  0.00    -0.026 C 
HETATM    4  C8  UNL     1      -5.094   3.958  21.255  1.00  0.00     0.005 C 
HETATM    5  C9  UNL     1      -6.171   4.153  22.203  1.00  0.00     0.217 C 
HETATM    6  C10 UNL     1      -5.809   4.182  23.638  1.00  0.00     0.270 C 
HETATM    7  O2  UNL     1      -6.830   4.481  24.306  1.00  0.00    -0.269 OA
HETATM    8  N5  UNL     1      -4.658   3.976  24.519  1.00  0.00    -0.230 N 
HETATM    9  C11 UNL     1      -5.136   4.657  25.659  1.00  0.00     0.118 C 
HETATM   10  C12 UNL     1      -4.453   4.755  26.931  1.00  0.00     0.125 C 
HETATM   11  N6  UNL     1      -5.439   4.897  27.994  1.00  0.00    -0.370 N 
HETATM   12  C17 UNL     1      -5.958   6.201  28.381  1.00  0.00     0.151 C 
HETATM   13  C18 UNL     1      -5.961   3.800  28.715  1.00  0.00     0.075 C 
HETATM   14  S1  UNL     1      -6.376   4.084  30.309  1.00  0.00    -0.066 SA
HETATM   15  C19 UNL     1      -6.189   2.445  28.216  1.00  0.00     0.071 C 
HETATM   16  C20 UNL     1      -5.049   1.491  28.340  1.00  0.00     0.037 C 
HETATM   17  C21 UNL     1      -5.076   0.481  27.182  1.00  0.00     0.273 C 
HETATM   18  N7  UNL     1      -4.762   1.144  25.904  1.00  0.00     0.093 N 
HETATM   19  C22 UNL     1      -5.209   0.183  24.884  1.00  0.00     0.310 C 
HETATM   20  C23 UNL     1      -3.345   1.222  25.833  1.00  0.00     0.376 C 
HETATM   21  C24 UNL     1      -2.787   2.322  25.020  1.00  0.00     0.268 C 
HETATM   22  O3  UNL     1      -1.493   2.317  25.081  1.00  0.00    -0.270 OA
HETATM   23  N8  UNL     1      -3.466   3.295  24.249  1.00  0.00    -0.237 N 
ENDROOT
BRANCH   1  24
HETATM   24  C4  UNL     1      -2.340   4.680  22.519  1.00  0.00     0.243 C 
HETATM   25  N1  UNL     1      -1.575   4.728  21.317  1.00  0.00    -0.356 N 
ATOM     26  H1  UNL     1      -1.225   3.864  20.904  1.00  0.00     0.162 HD
HETATM   27  O1  UNL     1      -2.763   5.728  23.021  1.00  0.00    -0.271 OA
BRANCH  25  28
HETATM   28  C3  UNL     1      -1.293   5.999  20.681  1.00  0.00     0.149 C 
BRANCH  28  29
HETATM   29  C2  UNL     1      -2.323   6.281  19.651  1.00  0.00    -0.018 C 
HETATM   30  C1  UNL     1      -3.209   7.230  19.802  1.00  0.00     0.008 C 
ENDBRANCH  28  29
ENDBRANCH  25  28
ENDBRANCH   1  24
BRANCH   5  31
HETATM   31  N2  UNL     1      -7.152   3.079  21.979  1.00  0.00    -0.305 N 
ATOM     32  H2  UNL     1      -6.822   2.126  21.834  1.00  0.00     0.183 HD
BRANCH  31  33
HETATM   33  N3  UNL     1      -8.521   3.333  21.959  1.00  0.00    -0.253 N 
HETATM   34  N4  UNL     1      -9.273   3.286  22.977  1.00  0.00    -0.331 N 
ATOM     35  H42 UNL     1      -8.830   3.044  23.863  1.00  0.00     0.178 HD
ATOM     36  H41 UNL     1     -10.275   3.472  22.963  1.00  0.00     0.178 HD
ATOM     37  H3  UNL     1      -8.947   3.573  21.064  1.00  0.00     0.207 HD
ENDBRANCH  31  33
ENDBRANCH   5  31
BRANCH  10  38
HETATM   38  C13 UNL     1      -3.507   5.971  26.902  1.00  0.00     0.031 C 
BRANCH  38  39
HETATM   39  C14 UNL     1      -2.282   5.734  27.720  1.00  0.00     0.002 C 
BRANCH  39  40
HETATM   40  C15 UNL     1      -2.305   6.491  29.032  1.00  0.00    -0.004 C 
HETATM   41  C16 UNL     1      -0.942   7.062  29.364  1.00  0.00     0.005 C 
ENDBRANCH  39  40
ENDBRANCH  38  39
ENDBRANCH  10  38
TORSDOF 8
ENDMDL
MODEL 4
REMARK VINA RESULT: -6.075503239      3.407      6.643
REMARK  8 active torsions:
REMARK  status: ('A' for Active; 'I' for Inactive)
REMARK    1  A    between atoms: C2_2  and  C3_3 
REMARK    2  A    between atoms: C3_3  and  N1_4 
REMARK       I    between atoms: N1_4  and  C4_6 
REMARK    3  A    between atoms: C4_6  and  C5_8 
REMARK    4  A    between atoms: C9_12  and  N2_13 
REMARK    5  A    between atoms: N2_13  and  N3_15 
REMARK    6  A    between atoms: C12_24  and  C13_25 
REMARK    7  A    between atoms: C13_25  and  C14_26 
REMARK    8  A    between atoms: C14_26  and  C15_27 
ROOT
HETATM    1  C5  UNL     1      -2.213   2.749  21.968  1.00  0.00     0.207 C 
HETATM    2  C6  UNL     1      -2.739   3.239  23.327  1.00  0.00     0.064 C 
HETATM    3  C7  UNL     1      -1.701   4.182  23.831  1.00  0.00    -0.026 C 
HETATM    4  C8  UNL     1      -0.505   3.940  24.358  1.00  0.00     0.005 C 
HETATM    5  C9  UNL     1       0.383   2.853  24.713  1.00  0.00     0.217 C 
HETATM    6  C10 UNL     1       0.362   1.655  23.843  1.00  0.00     0.270 C 
HETATM    7  O2  UNL     1       1.270   0.871  24.216  1.00  0.00    -0.269 OA
HETATM    8  N5  UNL     1      -0.368   1.097  22.704  1.00  0.00    -0.230 N 
HETATM    9  C11 UNL     1       0.590   0.151  22.279  1.00  0.00     0.118 C 
HETATM   10  C12 UNL     1       0.421  -0.791  21.193  1.00  0.00     0.125 C 
HETATM   11  N6  UNL     1       1.226  -1.976  21.458  1.00  0.00    -0.370 N 
HETATM   12  C17 UNL     1       2.626  -2.049  21.060  1.00  0.00     0.151 C 
HETATM   13  C18 UNL     1       0.724  -3.122  22.113  1.00  0.00     0.075 C 
HETATM   14  S1  UNL     1       1.376  -4.590  21.653  1.00  0.00    -0.066 SA
HETATM   15  C19 UNL     1      -0.298  -3.163  23.158  1.00  0.00     0.071 C 
HETATM   16  C20 UNL     1      -1.713  -3.276  22.699  1.00  0.00     0.037 C 
HETATM   17  C21 UNL     1      -2.647  -2.554  23.683  1.00  0.00     0.273 C 
HETATM   18  N7  UNL     1      -2.439  -1.097  23.626  1.00  0.00     0.093 N 
HETATM   19  C22 UNL     1      -3.075  -0.596  24.854  1.00  0.00     0.310 C 
HETATM   20  C23 UNL     1      -3.201  -0.627  22.523  1.00  0.00     0.376 C 
HETATM   21  C24 UNL     1      -2.727   0.613  21.875  1.00  0.00     0.268 C 
HETATM   22  O3  UNL     1      -3.470   0.902  20.854  1.00  0.00    -0.270 OA
HETATM   23  N8  UNL     1      -1.637   1.443  22.228  1.00  0.00    -0.237 N 
ENDROOT
BRANCH   1  24
HETATM   24  C4  UNL     1      -1.365   3.761  21.369  1.00  0.00     0.243 C 
HETATM   25  N1  UNL     1      -1.973   5.001  21.020  1.00  0.00    -0.356 N 
ATOM     26  H1  UNL     1      -2.968   5.145  21.195  1.00  0.00     0.162 HD
HETATM   27  O1  UNL     1      -0.160   3.585  21.156  1.00  0.00    -0.271 OA
BRANCH  25  28
HETATM   28  C3  UNL     1      -1.186   6.057  20.418  1.00  0.00     0.149 C 
BRANCH  28  29
HETATM   29  C2  UNL     1      -2.073   6.965  19.649  1.00  0.00    -0.018 C 
HETATM   30  C1  UNL     1      -1.663   8.129  19.219  1.00  0.00     0.008 C 
ENDBRANCH  28  29
ENDBRANCH  25  28
ENDBRANCH   1  24
BRANCH   5  31
HETATM   31  N2  UNL     1       0.054   2.451  26.090  1.00  0.00    -0.305 N 
ATOM     32  H2  UNL     1      -0.849   2.713  26.483  1.00  0.00     0.183 HD
BRANCH  31  33
HETATM   33  N3  UNL     1       0.948   1.722  26.870  1.00  0.00    -0.253 N 
HETATM   34  N4  UNL     1       0.764   1.435  28.090  1.00  0.00    -0.331 N 
ATOM     35  H42 UNL     1      -0.102   1.767  28.514  1.00  0.00     0.178 HD
ATOM     36  H41 UNL     1       1.418   0.900  28.662  1.00  0.00     0.178 HD
ATOM     37  H3  UNL     1       1.808   1.397  26.430  1.00  0.00     0.207 HD
ENDBRANCH  31  33
ENDBRANCH   5  31
BRANCH  10  38
HETATM   38  C13 UNL     1       0.855  -0.122  19.875  1.00  0.00     0.031 C 
BRANCH  38  39
HETATM   39  C14 UNL     1      -0.319   0.329  19.075  1.00  0.00     0.002 C 
BRANCH  39  40
HETATM   40  C15 UNL     1      -1.247  -0.812  18.711  1.00  0.00    -0.004 C 
HETATM   41  C16 UNL     1      -1.259  -1.060  17.217  1.00  0.00     0.005 C 
ENDBRANCH  39  40
ENDBRANCH  38  39
ENDBRANCH  10  38
TORSDOF 8
ENDMDL
MODEL 5
REMARK VINA RESULT: -6.056508272      2.820      6.831
REMARK  8 active torsions:
REMARK  status: ('A' for Active; 'I' for Inactive)
REMARK    1  A    between atoms: C2_2  and  C3_3 
REMARK    2  A    between atoms: C3_3  and  N1_4 
REMARK       I    between atoms: N1_4  and  C4_6 
REMARK    3  A    between atoms: C4_6  and  C5_8 
REMARK    4  A    between atoms: C9_12  and  N2_13 
REMARK    5  A    between atoms: N2_13  and  N3_15 
REMARK    6  A    between atoms: C12_24  and  C13_25 
REMARK    7  A    between atoms: C13_25  and  C14_26 
REMARK    8  A    between atoms: C14_26  and  C15_27 
ROOT
HETATM    1  C5  UNL     1      -3.649   3.570  27.678  1.00  0.00     0.207 C 
HETATM    2  C6  UNL     1      -3.362   2.653  28.877  1.00  0.00     0.064 C 
HETATM    3  C7  UNL     1      -2.110   3.186  29.486  1.00  0.00    -0.026 C 
HETATM    4  C8  UNL     1      -0.849   3.085  29.081  1.00  0.00     0.005 C 
HETATM    5  C9  UNL     1      -0.035   2.523  28.024  1.00  0.00     0.217 C 
HETATM    6  C10 UNL     1      -0.627   2.481  26.667  1.00  0.00     0.270 C 
HETATM    7  O2  UNL     1       0.248   2.084  25.857  1.00  0.00    -0.269 OA
HETATM    8  N5  UNL     1      -1.889   2.748  25.976  1.00  0.00    -0.230 N 
HETATM    9  C11 UNL     1      -1.390   2.869  24.660  1.00  0.00     0.118 C 
HETATM   10  C12 UNL     1      -2.188   3.080  23.472  1.00  0.00     0.125 C 
HETATM   11  N6  UNL     1      -1.502   2.500  22.325  1.00  0.00    -0.370 N 
HETATM   12  C17 UNL     1      -0.511   3.254  21.570  1.00  0.00     0.151 C 
HETATM   13  C18 UNL     1      -1.736   1.184  21.868  1.00  0.00     0.075 C 
HETATM   14  S1  UNL     1      -1.578   0.925  20.225  1.00  0.00    -0.066 SA
HETATM   15  C19 UNL     1      -2.093   0.020  22.679  1.00  0.00     0.071 C 
HETATM   16  C20 UNL     1      -3.549  -0.210  22.906  1.00  0.00     0.037 C 
HETATM   17  C21 UNL     1      -3.772  -0.865  24.278  1.00  0.00     0.273 C 
HETATM   18  N7  UNL     1      -3.455   0.079  25.364  1.00  0.00     0.093 N 
HETATM   19  C22 UNL     1      -3.326  -0.776  26.554  1.00  0.00     0.310 C 
HETATM   20  C23 UNL     1      -4.607   0.891  25.538  1.00  0.00     0.376 C 
HETATM   21  C24 UNL     1      -4.383   2.244  26.085  1.00  0.00     0.268 C 
HETATM   22  O3  UNL     1      -5.499   2.899  26.142  1.00  0.00    -0.270 OA
HETATM   23  N8  UNL     1      -3.176   2.843  26.516  1.00  0.00    -0.237 N 
ENDROOT
BRANCH   1  24
HETATM   24  C4  UNL     1      -3.106   4.893  27.923  1.00  0.00     0.243 C 
HETATM   25  N1  UNL     1      -3.536   5.569  29.100  1.00  0.00    -0.356 N 
ATOM     26  H1  UNL     1      -4.201   5.119  29.730  1.00  0.00     0.162 HD
HETATM   27  O1  UNL     1      -2.301   5.438  27.159  1.00  0.00    -0.271 OA
BRANCH  25  28
HETATM   28  C3  UNL     1      -3.034   6.893  29.407  1.00  0.00     0.149 C 
BRANCH  28  29
HETATM   29  C2  UNL     1      -1.718   6.783  30.083  1.00  0.00    -0.018 C 
HETATM   30  C1  UNL     1      -0.629   7.284  29.560  1.00  0.00     0.008 C 
ENDBRANCH  28  29
ENDBRANCH  25  28
ENDBRANCH   1  24
BRANCH   5  31
HETATM   31  N2  UNL     1       0.329   1.156  28.430  1.00  0.00    -0.305 N 
ATOM     32  H2  UNL     1      -0.266   0.659  29.092  1.00  0.00     0.183 HD
BRANCH  31  33
HETATM   33  N3  UNL     1       1.465   0.524  27.932  1.00  0.00    -0.253 N 
HETATM   34  N4  UNL     1       2.573   1.102  27.724  1.00  0.00    -0.331 N 
ATOM     35  H42 UNL     1       2.618   2.098  27.940  1.00  0.00     0.178 HD
ATOM     36  H41 UNL     1       3.405   0.640  27.360  1.00  0.00     0.178 HD
ATOM     37  H3  UNL     1       1.402  -0.472  27.721  1.00  0.00     0.207 HD
ENDBRANCH  31  33
ENDBRANCH   5  31
BRANCH  10  38
HETATM   38  C13 UNL     1      -2.400   4.593  23.269  1.00  0.00     0.031 C 
BRANCH  38  39
HETATM   39  C14 UNL     1      -3.669   4.876  22.538  1.00  0.00     0.002 C 
BRANCH  39  40
HETATM   40  C15 UNL     1      -3.464   5.807  21.360  1.00  0.00    -0.004 C 
HETATM   41  C16 UNL     1      -3.413   5.041  20.054  1.00  0.00     0.005 C 
ENDBRANCH  39  40
ENDBRANCH  38  39
ENDBRANCH  10  38
TORSDOF 8
ENDMDL
