MODEL 1
REMARK VINA RESULT: -6.828334242      0.000      0.000
REMARK  9 active torsions:
REMARK  status: ('A' for Active; 'I' for Inactive)
REMARK    1  A    between atoms: C2_2  and  C3_3 
REMARK    2  A    between atoms: C3_3  and  C5_5 
REMARK    3  A    between atoms: C15_19  and  C16_20 
REMARK    4  A    between atoms: C16_20  and  C17_21 
REMARK    5  A    between atoms: C17_21  and  C18_22 
REMARK    6  A    between atoms: C18_22  and  N2_23 
REMARK    7  A    between atoms: N6_34  and  C22_35 
REMARK    8  A    between atoms: C23_37  and  C24_38 
REMARK    9  A    between atoms: C24_38  and  C25_39 
ROOT
HETATM    1  C5  UNL     1       0.086  -0.573  24.525  1.00  0.00     0.180 C 
HETATM    2  N1  UNL     1       0.647   0.712  24.295  1.00  0.00    -0.344 N 
ATOM      3  H1  UNL     1       1.039   0.915  23.374  1.00  0.00     0.163 HD
HETATM    4  C6  UNL     1       0.688   1.721  25.283  1.00  0.00     0.250 C 
HETATM    5  O1  UNL     1       1.751   2.402  25.503  1.00  0.00    -0.268 OA
HETATM    6  C7  UNL     1      -0.481   2.093  26.156  1.00  0.00     0.138 C 
HETATM    7  C8  UNL     1      -1.264   3.132  25.598  1.00  0.00    -0.073 C 
HETATM    8  C9  UNL     1      -1.873   3.946  25.128  1.00  0.00    -0.102 C 
HETATM    9  C10 UNL     1      -2.627   4.957  24.510  1.00  0.00     0.095 C 
HETATM   10  C11 UNL     1      -2.288   4.979  23.029  1.00  0.00     0.020 C 
HETATM   11  C12 UNL     1      -2.732   3.696  22.432  1.00  0.00     0.030 C 
HETATM   12  C13 UNL     1      -1.495   2.907  21.965  1.00  0.00     0.156 C 
HETATM   13  C14 UNL     1      -1.748   1.472  22.075  1.00  0.00     0.163 C 
HETATM   14  O2  UNL     1      -2.630   1.130  22.885  1.00  0.00    -0.295 OA
HETATM   15  C15 UNL     1      -1.089   0.396  21.348  1.00  0.00     0.155 C 
HETATM   16  N5  UNL     1      -0.815  -0.811  22.091  1.00  0.00    -0.348 N 
ATOM     17  H5  UNL     1      -0.589  -1.615  21.506  1.00  0.00     0.163 HD
HETATM   18  C20 UNL     1      -0.802  -1.083  23.444  1.00  0.00     0.241 C 
HETATM   19  O3  UNL     1      -1.690  -1.915  23.874  1.00  0.00    -0.271 OA
HETATM   20  C21 UNL     1      -1.289   3.447  20.624  1.00  0.00     0.238 C 
HETATM   21  O4  UNL     1      -0.439   3.139  19.788  1.00  0.00    -0.272 OA
HETATM   22  N6  UNL     1      -2.301   4.471  20.402  1.00  0.00    -0.290 N 
HETATM   23  C23 UNL     1      -3.472   3.895  21.083  1.00  0.00     0.101 C 
ENDROOT
BRANCH  15  24
HETATM   24  C16 UNL     1      -1.924   0.004  20.117  1.00  0.00     0.034 C 
BRANCH  24  25
HETATM   25  C17 UNL     1      -1.220  -0.964  19.221  1.00  0.00     0.022 C 
BRANCH  25  26
HETATM   26  C18 UNL     1      -0.561  -0.118  18.120  1.00  0.00     0.122 C 
BRANCH  26  27
HETATM   27  N2  UNL     1       0.145  -1.002  17.190  1.00  0.00    -0.367 N 
HETATM   28  C19 UNL     1      -0.380  -1.248  16.039  1.00  0.00     0.196 C 
HETATM   29  N3  UNL     1      -1.623  -0.688  15.645  1.00  0.00    -0.067 NA
HETATM   30  N4  UNL     1       0.333  -2.114  15.156  1.00  0.00    -0.067 NA
ATOM     31  H2  UNL     1       1.040  -1.417  17.450  1.00  0.00     0.161 HD
ENDBRANCH  26  27
ENDBRANCH  25  26
ENDBRANCH  24  25
ENDBRANCH  15  24
BRANCH   1  32
HETATM   32  C3  UNL     1       1.190  -1.584  24.821  1.00  0.00     0.013 C 
HETATM   33  C4  UNL     1       2.438  -1.242  24.013  1.00  0.00     0.012 C 
BRANCH  32  34
HETATM   34  C2  UNL     1       1.613  -1.638  26.243  1.00  0.00     0.002 C 
HETATM   35  C1  UNL     1       2.909  -0.997  26.587  1.00  0.00     0.005 C 
ENDBRANCH  32  34
ENDBRANCH   1  32
BRANCH  23  36
HETATM   36  C24 UNL     1      -4.656   4.755  21.166  1.00  0.00     0.030 C 
BRANCH  36  37
HETATM   37  C25 UNL     1      -5.955   4.074  21.516  1.00  0.00    -0.021 C 
HETATM   38  C26 UNL     1      -6.182   4.242  23.026  1.00  0.00     0.009 C 
HETATM   39  C27 UNL     1      -5.684   2.546  21.392  1.00  0.00     0.009 C 
ENDBRANCH  36  37
ENDBRANCH  23  36
BRANCH  22  40
HETATM   40  C22 UNL     1      -2.109   5.706  19.783  1.00  0.00     0.358 C 
HETATM   41  O5  UNL     1      -1.042   6.310  19.653  1.00  0.00    -0.283 OA
ENDBRANCH  22  40
TORSDOF 9
ENDMDL
MODEL 2
REMARK VINA RESULT: -6.716372809      1.605      6.679
REMARK  9 active torsions:
REMARK  status: ('A' for Active; 'I' for Inactive)
REMARK    1  A    between atoms: C2_2  and  C3_3 
REMARK    2  A    between atoms: C3_3  and  C5_5 
REMARK    3  A    between atoms: C15_19  and  C16_20 
REMARK    4  A    between atoms: C16_20  and  C17_21 
REMARK    5  A    between atoms: C17_21  and  C18_22 
REMARK    6  A    between atoms: C18_22  and  N2_23 
REMARK    7  A    between atoms: N6_34  and  C22_35 
REMARK    8  A    between atoms: C23_37  and  C24_38 
REMARK    9  A    between atoms: C24_38  and  C25_39 
ROOT
HETATM    1  C5  UNL     1      -2.778   4.610  21.386  1.00  0.00     0.180 C 
HETATM    2  N1  UNL     1      -3.430   3.814  22.367  1.00  0.00    -0.344 N 
ATOM      3  H1  UNL     1      -3.738   2.876  22.108  1.00  0.00     0.163 HD
HETATM    4  C6  UNL     1      -3.673   4.265  23.683  1.00  0.00     0.250 C 
HETATM    5  O1  UNL     1      -4.814   4.108  24.246  1.00  0.00    -0.268 OA
HETATM    6  C7  UNL     1      -2.647   4.957  24.541  1.00  0.00     0.138 C 
HETATM    7  C8  UNL     1      -1.910   4.049  25.340  1.00  0.00    -0.073 C 
HETATM    8  C9  UNL     1      -1.334   3.309  25.953  1.00  0.00    -0.102 C 
HETATM    9  C10 UNL     1      -0.618   2.358  26.697  1.00  0.00     0.095 C 
HETATM   10  C11 UNL     1      -0.795   0.997  26.046  1.00  0.00     0.020 C 
HETATM   11  C12 UNL     1      -0.168   1.040  24.703  1.00  0.00     0.030 C 
HETATM   12  C13 UNL     1      -1.267   0.890  23.634  1.00  0.00     0.156 C 
HETATM   13  C14 UNL     1      -0.892   1.625  22.427  1.00  0.00     0.163 C 
HETATM   14  O2  UNL     1      -0.074   2.552  22.579  1.00  0.00    -0.295 OA
HETATM   15  C15 UNL     1      -1.363   1.398  21.068  1.00  0.00     0.155 C 
HETATM   16  N5  UNL     1      -1.600   2.574  20.264  1.00  0.00    -0.348 N 
ATOM     17  H5  UNL     1      -1.683   2.381  19.266  1.00  0.00     0.163 HD
HETATM   18  C20 UNL     1      -1.734   3.908  20.589  1.00  0.00     0.241 C 
HETATM   19  O3  UNL     1      -0.822   4.706  20.143  1.00  0.00    -0.271 OA
HETATM   20  C21 UNL     1      -1.377  -0.561  23.524  1.00  0.00     0.238 C 
HETATM   21  O4  UNL     1      -2.099  -1.229  22.782  1.00  0.00    -0.272 OA
HETATM   22  N6  UNL     1      -0.449  -1.146  24.483  1.00  0.00    -0.290 N 
HETATM   23  C23 UNL     1       0.691  -0.217  24.409  1.00  0.00     0.101 C 
ENDROOT
BRANCH  15  24
HETATM   24  C16 UNL     1      -0.366   0.507  20.307  1.00  0.00     0.034 C 
BRANCH  24  25
HETATM   25  C17 UNL     1      -0.128   0.967  18.904  1.00  0.00     0.022 C 
BRANCH  25  26
HETATM   26  C18 UNL     1      -0.071  -0.307  18.047  1.00  0.00     0.122 C 
BRANCH  26  27
HETATM   27  N2  UNL     1      -1.388  -0.948  18.045  1.00  0.00    -0.367 N 
HETATM   28  C19 UNL     1      -1.991  -1.137  16.923  1.00  0.00     0.196 C 
HETATM   29  N3  UNL     1      -1.418  -0.744  15.686  1.00  0.00    -0.067 NA
HETATM   30  N4  UNL     1      -3.274  -1.763  16.956  1.00  0.00    -0.067 NA
ATOM     31  H2  UNL     1      -1.821  -1.240  18.921  1.00  0.00     0.161 HD
ENDBRANCH  26  27
ENDBRANCH  25  26
ENDBRANCH  24  25
ENDBRANCH  15  24
BRANCH   1  32
HETATM   32  C3  UNL     1      -3.806   5.251  20.458  1.00  0.00     0.013 C 
HETATM   33  C4  UNL     1      -5.196   4.704  20.767  1.00  0.00     0.012 C 
BRANCH  32  34
HETATM   34  C2  UNL     1      -3.902   6.728  20.569  1.00  0.00     0.002 C 
HETATM   35  C1  UNL     1      -2.983   7.530  19.722  1.00  0.00     0.005 C 
ENDBRANCH  32  34
ENDBRANCH   1  32
BRANCH  23  36
HETATM   36  C24 UNL     1       1.771  -0.447  25.372  1.00  0.00     0.030 C 
BRANCH  36  37
HETATM   37  C25 UNL     1       3.090  -0.907  24.802  1.00  0.00    -0.021 C 
HETATM   38  C26 UNL     1       2.930  -2.372  24.371  1.00  0.00     0.009 C 
HETATM   39  C27 UNL     1       4.061  -1.025  26.013  1.00  0.00     0.009 C 
ENDBRANCH  36  37
ENDBRANCH  23  36
BRANCH  22  40
HETATM   40  C22 UNL     1      -0.689  -2.248  25.302  1.00  0.00     0.358 C 
HETATM   41  O5  UNL     1      -1.718  -2.486  25.939  1.00  0.00    -0.283 OA
ENDBRANCH  22  40
TORSDOF 9
ENDMDL
MODEL 3
REMARK VINA RESULT: -6.671926488      2.161      6.772
REMARK  9 active torsions:
REMARK  status: ('A' for Active; 'I' for Inactive)
REMARK    1  A    between atoms: C2_2  and  C3_3 
REMARK    2  A    between atoms: C3_3  and  C5_5 
REMARK    3  A    between atoms: C15_19  and  C16_20 
REMARK    4  A    between atoms: C16_20  and  C17_21 
REMARK    5  A    between atoms: C17_21  and  C18_22 
REMARK    6  A    between atoms: C18_22  and  N2_23 
REMARK    7  A    between atoms: N6_34  and  C22_35 
REMARK    8  A    between atoms: C23_37  and  C24_38 
REMARK    9  A    between atoms: C24_38  and  C25_39 
ROOT
HETATM    1  C5  UNL     1      -1.414   3.745  20.975  1.00  0.00     0.180 C 
HETATM    2  N1  UNL     1      -1.919   3.435  22.266  1.00  0.00    -0.344 N 
ATOM      3  H1  UNL     1      -2.668   2.745  22.344  1.00  0.00     0.163 HD
HETATM    4  C6  UNL     1      -1.433   4.038  23.447  1.00  0.00     0.250 C 
HETATM    5  O1  UNL     1      -2.226   4.490  24.346  1.00  0.00    -0.268 OA
HETATM    6  C7  UNL     1       0.029   4.208  23.766  1.00  0.00     0.138 C 
HETATM    7  C8  UNL     1       0.553   3.117  24.502  1.00  0.00    -0.073 C 
HETATM    8  C9  UNL     1       0.944   2.236  25.072  1.00  0.00    -0.102 C 
HETATM    9  C10 UNL     1       1.411   1.113  25.773  1.00  0.00     0.095 C 
HETATM   10  C11 UNL     1       0.443  -0.037  25.551  1.00  0.00     0.020 C 
HETATM   11  C12 UNL     1       0.470  -0.396  24.113  1.00  0.00     0.030 C 
HETATM   12  C13 UNL     1      -0.901  -0.072  23.490  1.00  0.00     0.156 C 
HETATM   13  C14 UNL     1      -0.735   0.303  22.087  1.00  0.00     0.163 C 
HETATM   14  O2  UNL     1       0.389   0.729  21.761  1.00  0.00    -0.295 OA
HETATM   15  C15 UNL     1      -1.731   0.236  21.027  1.00  0.00     0.155 C 
HETATM   16  N5  UNL     1      -1.730   1.320  20.074  1.00  0.00    -0.348 N 
ATOM     17  H5  UNL     1      -2.257   1.123  19.223  1.00  0.00     0.163 HD
HETATM   18  C20 UNL     1      -1.152   2.573  20.094  1.00  0.00     0.241 C 
HETATM   19  O3  UNL     1      -0.232   2.799  19.218  1.00  0.00    -0.271 OA
HETATM   20  C21 UNL     1      -1.648  -1.295  23.770  1.00  0.00     0.238 C 
HETATM   21  O4  UNL     1      -2.805  -1.582  23.460  1.00  0.00    -0.272 OA
HETATM   22  N6  UNL     1      -0.771  -2.185  24.518  1.00  0.00    -0.290 N 
HETATM   23  C23 UNL     1       0.534  -1.929  23.885  1.00  0.00     0.101 C 
ENDROOT
BRANCH  15  24
HETATM   24  C16 UNL     1      -1.574  -1.076  20.240  1.00  0.00     0.034 C 
BRANCH  24  25
HETATM   25  C17 UNL     1      -1.276  -0.853  18.791  1.00  0.00     0.022 C 
BRANCH  25  26
HETATM   26  C18 UNL     1       0.039  -1.598  18.513  1.00  0.00     0.122 C 
BRANCH  26  27
HETATM   27  N2  UNL     1       1.113  -0.994  19.304  1.00  0.00    -0.367 N 
HETATM   28  C19 UNL     1       2.301  -1.487  19.229  1.00  0.00     0.196 C 
HETATM   29  N3  UNL     1       2.601  -2.600  18.401  1.00  0.00    -0.067 NA
HETATM   30  N4  UNL     1       3.325  -0.875  20.013  1.00  0.00    -0.067 NA
ATOM     31  H2  UNL     1       0.923  -0.193  19.906  1.00  0.00     0.161 HD
ENDBRANCH  26  27
ENDBRANCH  25  26
ENDBRANCH  24  25
ENDBRANCH  15  24
BRANCH   1  32
HETATM   32  C3  UNL     1      -2.338   4.735  20.272  1.00  0.00     0.013 C 
HETATM   33  C4  UNL     1      -3.783   4.487  20.695  1.00  0.00     0.012 C 
BRANCH  32  34
HETATM   34  C2  UNL     1      -2.055   6.162  20.566  1.00  0.00     0.002 C 
HETATM   35  C1  UNL     1      -1.026   6.834  19.730  1.00  0.00     0.005 C 
ENDBRANCH  32  34
ENDBRANCH   1  32
BRANCH  23  36
HETATM   36  C24 UNL     1       1.690  -2.583  24.507  1.00  0.00     0.030 C 
BRANCH  36  37
HETATM   37  C25 UNL     1       3.049  -2.119  24.048  1.00  0.00    -0.021 C 
HETATM   38  C26 UNL     1       3.822  -3.350  23.551  1.00  0.00     0.009 C 
HETATM   39  C27 UNL     1       3.830  -1.740  25.339  1.00  0.00     0.009 C 
ENDBRANCH  36  37
ENDBRANCH  23  36
BRANCH  22  40
HETATM   40  C22 UNL     1      -1.127  -2.974  25.611  1.00  0.00     0.358 C 
HETATM   41  O5  UNL     1      -1.817  -2.634  26.574  1.00  0.00    -0.283 OA
ENDBRANCH  22  40
TORSDOF 9
ENDMDL
MODEL 4
REMARK VINA RESULT: -6.660127743      3.689      6.174
REMARK  9 active torsions:
REMARK  status: ('A' for Active; 'I' for Inactive)
REMARK    1  A    between atoms: C2_2  and  C3_3 
REMARK    2  A    between atoms: C3_3  and  C5_5 
REMARK    3  A    between atoms: C15_19  and  C16_20 
REMARK    4  A    between atoms: C16_20  and  C17_21 
REMARK    5  A    between atoms: C17_21  and  C18_22 
REMARK    6  A    between atoms: C18_22  and  N2_23 
REMARK    7  A    between atoms: N6_34  and  C22_35 
REMARK    8  A    between atoms: C23_37  and  C24_38 
REMARK    9  A    between atoms: C24_38  and  C25_39 
ROOT
HETATM    1  C5  UNL     1      -5.802   2.418  26.126  1.00  0.00     0.180 C 
HETATM    2  N1  UNL     1      -4.603   1.703  25.863  1.00  0.00    -0.344 N 
ATOM      3  H1  UNL     1      -4.618   0.969  25.154  1.00  0.00     0.163 HD
HETATM    4  C6  UNL     1      -3.390   1.962  26.539  1.00  0.00     0.250 C 
HETATM    5  O1  UNL     1      -2.668   1.013  27.009  1.00  0.00    -0.268 OA
HETATM    6  C7  UNL     1      -2.833   3.342  26.773  1.00  0.00     0.138 C 
HETATM    7  C8  UNL     1      -1.960   3.754  25.737  1.00  0.00    -0.073 C 
HETATM    8  C9  UNL     1      -1.283   4.061  24.898  1.00  0.00    -0.102 C 
HETATM    9  C10 UNL     1      -0.452   4.425  23.827  1.00  0.00     0.095 C 
HETATM   10  C11 UNL     1      -0.776   3.538  22.636  1.00  0.00     0.020 C 
HETATM   11  C12 UNL     1      -2.166   3.824  22.208  1.00  0.00     0.030 C 
HETATM   12  C13 UNL     1      -3.033   2.576  22.456  1.00  0.00     0.156 C 
HETATM   13  C14 UNL     1      -4.404   2.975  22.767  1.00  0.00     0.163 C 
HETATM   14  O2  UNL     1      -4.554   4.128  23.213  1.00  0.00    -0.295 OA
HETATM   15  C15 UNL     1      -5.615   2.180  22.615  1.00  0.00     0.155 C 
HETATM   16  N5  UNL     1      -6.612   2.321  23.650  1.00  0.00    -0.348 N 
ATOM     17  H5  UNL     1      -7.529   1.956  23.394  1.00  0.00     0.163 HD
HETATM   18  C20 UNL     1      -6.559   2.857  24.921  1.00  0.00     0.241 C 
HETATM   19  O3  UNL     1      -7.274   3.911  25.134  1.00  0.00    -0.271 OA
HETATM   20  C21 UNL     1      -2.821   1.820  21.224  1.00  0.00     0.238 C 
HETATM   21  O4  UNL     1      -3.309   0.742  20.884  1.00  0.00    -0.272 OA
HETATM   22  N6  UNL     1      -1.885   2.574  20.401  1.00  0.00    -0.290 N 
HETATM   23  C23 UNL     1      -2.295   3.963  20.669  1.00  0.00     0.101 C 
ENDROOT
BRANCH  15  24
HETATM   24  C16 UNL     1      -6.291   2.503  21.272  1.00  0.00     0.034 C 
BRANCH  24  25
HETATM   25  C17 UNL     1      -7.547   1.722  21.050  1.00  0.00     0.022 C 
BRANCH  25  26
HETATM   26  C18 UNL     1      -8.556   2.709  20.444  1.00  0.00     0.122 C 
BRANCH  26  27
HETATM   27  N2  UNL     1      -8.608   2.517  18.994  1.00  0.00    -0.367 N 
HETATM   28  C19 UNL     1      -9.106   3.448  18.255  1.00  0.00     0.196 C 
HETATM   29  N3  UNL     1      -9.606   4.656  18.805  1.00  0.00    -0.067 NA
HETATM   30  N4  UNL     1      -9.143   3.228  16.845  1.00  0.00    -0.067 NA
ATOM     31  H2  UNL     1      -8.256   1.656  18.573  1.00  0.00     0.161 HD
ENDBRANCH  26  27
ENDBRANCH  25  26
ENDBRANCH  24  25
ENDBRANCH  15  24
BRANCH   1  32
HETATM   32  C3  UNL     1      -6.707   1.607  27.049  1.00  0.00     0.013 C 
HETATM   33  C4  UNL     1      -6.502   0.116  26.799  1.00  0.00     0.012 C 
BRANCH  32  34
HETATM   34  C2  UNL     1      -6.468   1.826  28.498  1.00  0.00     0.002 C 
HETATM   35  C1  UNL     1      -6.112   3.204  28.923  1.00  0.00     0.005 C 
ENDBRANCH  32  34
ENDBRANCH   1  32
BRANCH  23  36
HETATM   36  C24 UNL     1      -1.449   5.008  20.085  1.00  0.00     0.030 C 
BRANCH  36  37
HETATM   37  C25 UNL     1      -1.796   6.430  20.444  1.00  0.00    -0.021 C 
HETATM   38  C26 UNL     1      -3.251   6.681  20.017  1.00  0.00     0.009 C 
HETATM   39  C27 UNL     1      -1.003   7.328  19.451  1.00  0.00     0.009 C 
ENDBRANCH  36  37
ENDBRANCH  23  36
BRANCH  22  40
HETATM   40  C22 UNL     1      -0.829   2.052  19.656  1.00  0.00     0.358 C 
HETATM   41  O5  UNL     1       0.358   2.007  19.987  1.00  0.00    -0.283 OA
ENDBRANCH  22  40
TORSDOF 9
ENDMDL
MODEL 5
REMARK VINA RESULT: -6.650308874      1.934      6.825
REMARK  9 active torsions:
REMARK  status: ('A' for Active; 'I' for Inactive)
REMARK    1  A    between atoms: C2_2  and  C3_3 
REMARK    2  A    between atoms: C3_3  and  C5_5 
REMARK    3  A    between atoms: C15_19  and  C16_20 
REMARK    4  A    between atoms: C16_20  and  C17_21 
REMARK    5  A    between atoms: C17_21  and  C18_22 
REMARK    6  A    between atoms: C18_22  and  N2_23 
REMARK    7  A    between atoms: N6_34  and  C22_35 
REMARK    8  A    between atoms: C23_37  and  C24_38 
REMARK    9  A    between atoms: C24_38  and  C25_39 
ROOT
HETATM    1  C5  UNL     1      -2.746   4.698  21.436  1.00  0.00     0.180 C 
HETATM    2  N1  UNL     1      -3.412   3.888  22.394  1.00  0.00    -0.344 N 
ATOM      3  H1  UNL     1      -3.709   2.951  22.118  1.00  0.00     0.163 HD
HETATM    4  C6  UNL     1      -3.683   4.321  23.711  1.00  0.00     0.250 C 
HETATM    5  O1  UNL     1      -4.834   4.151  24.250  1.00  0.00    -0.268 OA
HETATM    6  C7  UNL     1      -2.678   5.009  24.596  1.00  0.00     0.138 C 
HETATM    7  C8  UNL     1      -1.951   4.097  25.399  1.00  0.00    -0.073 C 
HETATM    8  C9  UNL     1      -1.382   3.353  26.014  1.00  0.00    -0.102 C 
HETATM    9  C10 UNL     1      -0.675   2.397  26.760  1.00  0.00     0.095 C 
HETATM   10  C11 UNL     1      -0.830   1.043  26.090  1.00  0.00     0.020 C 
HETATM   11  C12 UNL     1      -0.179   1.105  24.760  1.00  0.00     0.030 C 
HETATM   12  C13 UNL     1      -1.256   0.962  23.669  1.00  0.00     0.156 C 
HETATM   13  C14 UNL     1      -0.862   1.713  22.478  1.00  0.00     0.163 C 
HETATM   14  O2  UNL     1      -0.053   2.643  22.657  1.00  0.00    -0.295 OA
HETATM   15  C15 UNL     1      -1.306   1.499  21.107  1.00  0.00     0.155 C 
HETATM   16  N5  UNL     1      -1.534   2.683  20.313  1.00  0.00    -0.348 N 
ATOM     17  H5  UNL     1      -1.597   2.502  19.311  1.00  0.00     0.163 HD
HETATM   18  C20 UNL     1      -1.682   4.013  20.651  1.00  0.00     0.241 C 
HETATM   19  O3  UNL     1      -0.768   4.821  20.232  1.00  0.00    -0.271 OA
HETATM   20  C21 UNL     1      -1.355  -0.489  23.540  1.00  0.00     0.238 C 
HETATM   21  O4  UNL     1      -2.058  -1.152  22.776  1.00  0.00    -0.272 OA
HETATM   22  N6  UNL     1      -0.442  -1.080  24.509  1.00  0.00    -0.290 N 
HETATM   23  C23 UNL     1       0.693  -0.143  24.468  1.00  0.00     0.101 C 
ENDROOT
BRANCH  15  24
HETATM   24  C16 UNL     1      -0.289   0.623  20.356  1.00  0.00     0.034 C 
BRANCH  24  25
HETATM   25  C17 UNL     1       0.150   1.225  19.059  1.00  0.00     0.022 C 
BRANCH  25  26
HETATM   26  C18 UNL     1       1.634   0.856  18.904  1.00  0.00     0.122 C 
BRANCH  26  27
HETATM   27  N2  UNL     1       1.740  -0.495  18.351  1.00  0.00    -0.367 N 
HETATM   28  C19 UNL     1       2.532  -1.343  18.914  1.00  0.00     0.196 C 
HETATM   29  N3  UNL     1       3.304  -1.005  20.056  1.00  0.00    -0.067 NA
HETATM   30  N4  UNL     1       2.613  -2.651  18.349  1.00  0.00    -0.067 NA
ATOM     31  H2  UNL     1       1.196  -0.763  17.531  1.00  0.00     0.161 HD
ENDBRANCH  26  27
ENDBRANCH  25  26
ENDBRANCH  24  25
ENDBRANCH  15  24
BRANCH   1  32
HETATM   32  C3  UNL     1      -3.760   5.345  20.496  1.00  0.00     0.013 C 
HETATM   33  C4  UNL     1      -5.159   4.815  20.799  1.00  0.00     0.012 C 
BRANCH  32  34
HETATM   34  C2  UNL     1      -3.841   6.823  20.596  1.00  0.00     0.002 C 
HETATM   35  C1  UNL     1      -2.979   7.611  19.676  1.00  0.00     0.005 C 
ENDBRANCH  32  34
ENDBRANCH   1  32
BRANCH  23  36
HETATM   36  C24 UNL     1       1.757  -0.378  25.449  1.00  0.00     0.030 C 
BRANCH  36  37
HETATM   37  C25 UNL     1       3.097  -0.795  24.898  1.00  0.00    -0.021 C 
HETATM   38  C26 UNL     1       2.967  -2.239  24.390  1.00  0.00     0.009 C 
HETATM   39  C27 UNL     1       4.033  -0.963  26.130  1.00  0.00     0.009 C 
ENDBRANCH  36  37
ENDBRANCH  23  36
BRANCH  22  40
HETATM   40  C22 UNL     1      -0.691  -2.193  25.311  1.00  0.00     0.358 C 
HETATM   41  O5  UNL     1      -0.361  -3.358  25.082  1.00  0.00    -0.283 OA
ENDBRANCH  22  40
TORSDOF 9
ENDMDL
