MODEL 1
REMARK VINA RESULT: -6.594660823      0.000      0.000
REMARK  11 active torsions:
REMARK  status: ('A' for Active; 'I' for Inactive)
REMARK    1  A    between atoms: C4_4  and  C6_6 
REMARK    2  A    between atoms: C6_6  and  N1_7 
REMARK    3  A    between atoms: N1_7  and  C9_10 
REMARK    4  A    between atoms: C11_12  and  C12_13 
REMARK    5  A    between atoms: C13_14  and  C14_15 
REMARK    6  A    between atoms: C16_20  and  C17_21 
REMARK       I    between atoms: C17_21  and  N3_23 
REMARK       I    between atoms: N4_26  and  C20_27 
REMARK    7  A    between atoms: C20_27  and  C21_29 
REMARK    8  A    between atoms: C21_29  and  O3_30 
REMARK    9  A    between atoms: N5_35  and  C25_36 
REMARK   10  A    between atoms: C25_36  and  C26_40 
REMARK   11  A    between atoms: C26_40  and  S1_41 
ROOT
HETATM    1  C12 UNL     1      -2.660   3.959  24.421  1.00  0.00    -0.004 C 
HETATM    2  C13 UNL     1      -2.952   4.906  25.262  1.00  0.00    -0.022 C 
ENDROOT
BRANCH   1   3
HETATM    3  C11 UNL     1      -3.357   3.778  23.095  1.00  0.00     0.123 C 
HETATM    4  C4  UNL     1      -4.058   2.462  23.021  1.00  0.00     0.010 C 
HETATM    5  C3  UNL     1      -3.651   1.834  21.715  1.00  0.00     0.069 C 
HETATM    6  C5  UNL     1      -3.248   1.576  24.024  1.00  0.00     0.020 C 
HETATM    7  C2  UNL     1      -2.274   2.423  21.595  1.00  0.00     0.005 C 
HETATM    8  C1  UNL     1      -1.205   1.806  21.201  1.00  0.00     0.038 C 
HETATM    9  N5  UNL     1      -2.377   3.793  21.994  1.00  0.00    -0.332 N 
BRANCH   4  10
HETATM   10  C6  UNL     1      -5.427   2.337  23.443  1.00  0.00     0.248 C 
BRANCH  10  11
HETATM   11  N1  UNL     1      -6.433   3.313  23.322  1.00  0.00    -0.074 N 
HETATM   12  C7  UNL     1      -6.577   3.902  22.006  1.00  0.00     0.272 C 
HETATM   13  C8  UNL     1      -7.685   2.504  23.454  1.00  0.00     0.272 C 
BRANCH  11  14
HETATM   14  C9  UNL     1      -6.565   4.285  24.364  1.00  0.00     0.232 C 
HETATM   15  C10 UNL     1      -6.368   3.747  25.759  1.00  0.00     0.034 C 
ENDBRANCH  11  14
ENDBRANCH  10  11
ENDBRANCH   4  10
BRANCH   9  16
HETATM   16  C25 UNL     1      -1.692   4.910  21.451  1.00  0.00     0.087 C 
HETATM   17  N6  UNL     1      -0.409   4.951  21.542  1.00  0.00    -0.388 N 
ATOM     18  H62 UNL     1       0.050   4.166  22.003  1.00  0.00     0.157 HD
ATOM     19  H61 UNL     1       0.083   5.754  21.152  1.00  0.00     0.157 HD
BRANCH  16  20
HETATM   20  C26 UNL     1      -2.357   6.049  20.783  1.00  0.00     0.149 C 
BRANCH  20  21
HETATM   21  S1  UNL     1      -1.252   6.926  19.654  1.00  0.00    -0.166 SA
HETATM   22  C27 UNL     1      -1.818   8.583  19.271  1.00  0.00     0.090 C 
ENDBRANCH  20  21
ENDBRANCH  16  20
ENDBRANCH   9  16
ENDBRANCH   1   3
BRANCH   2  23
HETATM   23  C14 UNL     1      -2.340   5.166  26.564  1.00  0.00     0.036 C 
HETATM   24  C15 UNL     1      -1.944   3.862  27.277  1.00  0.00     0.242 C 
HETATM   25  N2  UNL     1      -1.551   4.362  28.552  1.00  0.00    -0.062 N 
HETATM   26  C16 UNL     1      -2.580   5.310  28.904  1.00  0.00     0.277 C 
ATOM     27  H22 UNL     1      -1.397   3.637  29.253  1.00  0.00     0.278 HD
ATOM     28  H21 UNL     1      -0.607   4.746  28.574  1.00  0.00     0.278 HD
HETATM   29  C24 UNL     1      -3.221   5.767  27.604  1.00  0.00     0.053 C 
BRANCH  26  30
HETATM   30  C17 UNL     1      -1.920   6.457  29.600  1.00  0.00     0.250 C 
HETATM   31  O1  UNL     1      -0.718   6.732  29.330  1.00  0.00    -0.271 OA
HETATM   32  N3  UNL     1      -2.630   7.233  30.553  1.00  0.00    -0.347 N 
HETATM   33  C18 UNL     1      -3.979   7.028  30.973  1.00  0.00     0.145 C 
HETATM   34  C23 UNL     1      -1.920   8.364  31.167  1.00  0.00     0.145 C 
HETATM   35  C19 UNL     1      -4.004   6.805  32.476  1.00  0.00     0.145 C 
HETATM   36  N4  UNL     1      -2.706   7.074  33.016  1.00  0.00    -0.347 N 
HETATM   37  C20 UNL     1      -1.998   6.179  33.867  1.00  0.00     0.243 C 
HETATM   38  C22 UNL     1      -2.082   8.332  32.668  1.00  0.00     0.145 C 
HETATM   39  O2  UNL     1      -0.861   6.504  34.293  1.00  0.00    -0.271 OA
BRANCH  37  40
HETATM   40  C21 UNL     1      -2.552   4.868  34.276  1.00  0.00     0.267 C 
BRANCH  40  41
HETATM   41  O3  UNL     1      -1.938   3.873  33.528  1.00  0.00    -0.392 OA
ATOM     42  H3  UNL     1      -2.156   3.030  33.906  1.00  0.00     0.210 HD
ENDBRANCH  40  41
ENDBRANCH  37  40
ENDBRANCH  26  30
ENDBRANCH   2  23
TORSDOF 11
ENDMDL
MODEL 2
REMARK VINA RESULT: -6.551066614      6.002     10.691
REMARK  11 active torsions:
REMARK  status: ('A' for Active; 'I' for Inactive)
REMARK    1  A    between atoms: C4_4  and  C6_6 
REMARK    2  A    between atoms: C6_6  and  N1_7 
REMARK    3  A    between atoms: N1_7  and  C9_10 
REMARK    4  A    between atoms: C11_12  and  C12_13 
REMARK    5  A    between atoms: C13_14  and  C14_15 
REMARK    6  A    between atoms: C16_20  and  C17_21 
REMARK       I    between atoms: C17_21  and  N3_23 
REMARK       I    between atoms: N4_26  and  C20_27 
REMARK    7  A    between atoms: C20_27  and  C21_29 
REMARK    8  A    between atoms: C21_29  and  O3_30 
REMARK    9  A    between atoms: N5_35  and  C25_36 
REMARK   10  A    between atoms: C25_36  and  C26_40 
REMARK   11  A    between atoms: C26_40  and  S1_41 
ROOT
HETATM    1  C12 UNL     1      -2.400   2.817  21.581  1.00  0.00    -0.004 C 
HETATM    2  C13 UNL     1      -1.117   2.674  21.433  1.00  0.00    -0.022 C 
ENDROOT
BRANCH   1   3
HETATM    3  C11 UNL     1      -3.023   3.865  22.471  1.00  0.00     0.123 C 
HETATM    4  C4  UNL     1      -3.864   3.245  23.538  1.00  0.00     0.010 C 
HETATM    5  C3  UNL     1      -5.184   3.969  23.516  1.00  0.00     0.069 C 
HETATM    6  C5  UNL     1      -4.283   1.877  22.905  1.00  0.00     0.020 C 
HETATM    7  C2  UNL     1      -5.234   4.314  22.055  1.00  0.00     0.005 C 
HETATM    8  C1  UNL     1      -6.272   4.245  21.283  1.00  0.00     0.038 C 
HETATM    9  N5  UNL     1      -3.917   4.737  21.687  1.00  0.00    -0.332 N 
BRANCH   4  10
HETATM   10  C6  UNL     1      -3.293   2.902  24.812  1.00  0.00     0.248 C 
BRANCH  10  11
HETATM   11  N1  UNL     1      -2.297   3.614  25.503  1.00  0.00    -0.074 N 
HETATM   12  C7  UNL     1      -2.636   4.977  25.859  1.00  0.00     0.272 C 
HETATM   13  C8  UNL     1      -2.272   2.929  26.833  1.00  0.00     0.272 C 
BRANCH  11  14
HETATM   14  C9  UNL     1      -0.943   3.497  25.054  1.00  0.00     0.232 C 
HETATM   15  C10 UNL     1      -0.402   2.089  25.040  1.00  0.00     0.034 C 
ENDBRANCH  11  14
ENDBRANCH  10  11
ENDBRANCH   4  10
BRANCH   9  16
HETATM   16  C25 UNL     1      -3.557   5.763  20.777  1.00  0.00     0.087 C 
HETATM   17  N6  UNL     1      -4.136   6.908  20.876  1.00  0.00    -0.388 N 
ATOM     18  H62 UNL     1      -4.831   7.015  21.615  1.00  0.00     0.157 HD
ATOM     19  H61 UNL     1      -3.877   7.645  20.221  1.00  0.00     0.157 HD
BRANCH  16  20
HETATM   20  C26 UNL     1      -2.550   5.607  19.705  1.00  0.00     0.149 C 
BRANCH  20  21
HETATM   21  S1  UNL     1      -1.148   6.729  19.909  1.00  0.00    -0.166 SA
HETATM   22  C27 UNL     1      -1.501   8.394  19.347  1.00  0.00     0.090 C 
ENDBRANCH  20  21
ENDBRANCH  16  20
ENDBRANCH   9  16
ENDBRANCH   1   3
BRANCH   2  23
HETATM   23  C14 UNL     1      -0.416   1.697  20.600  1.00  0.00     0.036 C 
HETATM   24  C15 UNL     1      -1.393   0.879  19.739  1.00  0.00     0.242 C 
HETATM   25  N2  UNL     1      -0.511  -0.087  19.177  1.00  0.00    -0.062 N 
HETATM   26  C16 UNL     1       0.303  -0.524  20.285  1.00  0.00     0.277 C 
ATOM     27  H22 UNL     1      -0.983  -0.845  18.684  1.00  0.00     0.278 HD
ATOM     28  H21 UNL     1       0.023   0.253  18.377  1.00  0.00     0.278 HD
HETATM   29  C24 UNL     1       0.279   0.592  21.316  1.00  0.00     0.053 C 
BRANCH  26  30
HETATM   30  C17 UNL     1       1.692  -0.738  19.770  1.00  0.00     0.250 C 
HETATM   31  O1  UNL     1       2.095  -0.057  18.786  1.00  0.00    -0.271 OA
HETATM   32  N3  UNL     1       2.552  -1.691  20.376  1.00  0.00    -0.347 N 
HETATM   33  C18 UNL     1       2.227  -2.543  21.474  1.00  0.00     0.145 C 
HETATM   34  C23 UNL     1       3.912  -1.816  19.832  1.00  0.00     0.145 C 
HETATM   35  C19 UNL     1       2.406  -3.991  21.051  1.00  0.00     0.145 C 
HETATM   36  N4  UNL     1       3.032  -4.034  19.765  1.00  0.00    -0.347 N 
HETATM   37  C20 UNL     1       2.533  -4.782  18.661  1.00  0.00     0.243 C 
HETATM   38  C22 UNL     1       4.246  -3.267  19.584  1.00  0.00     0.145 C 
HETATM   39  O2  UNL     1       3.154  -4.758  17.569  1.00  0.00    -0.271 OA
BRANCH  37  40
HETATM   40  C21 UNL     1       1.298  -5.595  18.749  1.00  0.00     0.267 C 
BRANCH  40  41
HETATM   41  O3  UNL     1       1.106  -6.242  17.536  1.00  0.00    -0.392 OA
ATOM     42  H3  UNL     1       0.176  -6.257  17.343  1.00  0.00     0.210 HD
ENDBRANCH  40  41
ENDBRANCH  37  40
ENDBRANCH  26  30
ENDBRANCH   2  23
TORSDOF 11
ENDMDL
MODEL 3
REMARK VINA RESULT: -6.432739864      6.578     12.016
REMARK  11 active torsions:
REMARK  status: ('A' for Active; 'I' for Inactive)
REMARK    1  A    between atoms: C4_4  and  C6_6 
REMARK    2  A    between atoms: C6_6  and  N1_7 
REMARK    3  A    between atoms: N1_7  and  C9_10 
REMARK    4  A    between atoms: C11_12  and  C12_13 
REMARK    5  A    between atoms: C13_14  and  C14_15 
REMARK    6  A    between atoms: C16_20  and  C17_21 
REMARK       I    between atoms: C17_21  and  N3_23 
REMARK       I    between atoms: N4_26  and  C20_27 
REMARK    7  A    between atoms: C20_27  and  C21_29 
REMARK    8  A    between atoms: C21_29  and  O3_30 
REMARK    9  A    between atoms: N5_35  and  C25_36 
REMARK   10  A    between atoms: C25_36  and  C26_40 
REMARK   11  A    between atoms: C26_40  and  S1_41 
ROOT
HETATM    1  C12 UNL     1      -1.691   2.278  21.016  1.00  0.00    -0.004 C 
HETATM    2  C13 UNL     1      -0.485   1.806  20.917  1.00  0.00    -0.022 C 
ENDROOT
BRANCH   1   3
HETATM    3  C11 UNL     1      -2.089   3.345  22.007  1.00  0.00     0.123 C 
HETATM    4  C4  UNL     1      -3.152   2.859  22.936  1.00  0.00     0.010 C 
HETATM    5  C3  UNL     1      -4.226   3.914  22.945  1.00  0.00     0.069 C 
HETATM    6  C5  UNL     1      -3.862   1.741  22.103  1.00  0.00     0.020 C 
HETATM    7  C2  UNL     1      -4.057   4.428  21.544  1.00  0.00     0.005 C 
HETATM    8  C1  UNL     1      -5.007   4.737  20.718  1.00  0.00     0.038 C 
HETATM    9  N5  UNL     1      -2.650   4.514  21.304  1.00  0.00    -0.332 N 
BRANCH   4  10
HETATM   10  C6  UNL     1      -2.804   2.226  24.179  1.00  0.00     0.248 C 
BRANCH  10  11
HETATM   11  N1  UNL     1      -1.719   2.555  25.012  1.00  0.00    -0.074 N 
HETATM   12  C7  UNL     1      -1.601   3.956  25.360  1.00  0.00     0.272 C 
HETATM   13  C8  UNL     1      -2.109   1.930  26.313  1.00  0.00     0.272 C 
BRANCH  11  14
HETATM   14  C9  UNL     1      -0.447   1.960  24.736  1.00  0.00     0.232 C 
HETATM   15  C10 UNL     1       0.674   2.944  24.511  1.00  0.00     0.034 C 
ENDBRANCH  11  14
ENDBRANCH  10  11
ENDBRANCH   4  10
BRANCH   9  16
HETATM   16  C25 UNL     1      -1.953   5.501  20.561  1.00  0.00     0.087 C 
HETATM   17  N6  UNL     1      -0.684   5.620  20.732  1.00  0.00    -0.388 N 
ATOM     18  H62 UNL     1      -0.242   4.987  21.399  1.00  0.00     0.157 HD
ATOM     19  H61 UNL     1      -0.183   6.331  20.197  1.00  0.00     0.157 HD
BRANCH  16  20
HETATM   20  C26 UNL     1      -2.593   6.419  19.595  1.00  0.00     0.149 C 
BRANCH  20  21
HETATM   21  S1  UNL     1      -1.709   7.988  19.446  1.00  0.00    -0.166 SA
HETATM   22  C27 UNL     1      -2.784   9.413  19.607  1.00  0.00     0.090 C 
ENDBRANCH  20  21
ENDBRANCH  16  20
ENDBRANCH   9  16
ENDBRANCH   1   3
BRANCH   2  23
HETATM   23  C14 UNL     1       0.000   0.779  19.996  1.00  0.00     0.036 C 
HETATM   24  C15 UNL     1       0.765   1.391  18.811  1.00  0.00     0.242 C 
HETATM   25  N2  UNL     1       0.968   0.239  17.999  1.00  0.00    -0.062 N 
HETATM   26  C16 UNL     1      -0.305  -0.438  18.002  1.00  0.00     0.277 C 
ATOM     27  H22 UNL     1       1.326   0.446  17.066  1.00  0.00     0.278 HD
ATOM     28  H21 UNL     1       1.750  -0.345  18.295  1.00  0.00     0.278 HD
HETATM   29  C24 UNL     1      -1.036   0.005  19.259  1.00  0.00     0.053 C 
BRANCH  26  30
HETATM   30  C17 UNL     1      -0.037  -1.909  18.038  1.00  0.00     0.250 C 
HETATM   31  O1  UNL     1       1.136  -2.315  18.271  1.00  0.00    -0.271 OA
HETATM   32  N3  UNL     1      -1.081  -2.844  17.814  1.00  0.00    -0.347 N 
HETATM   33  C18 UNL     1      -2.443  -2.533  17.519  1.00  0.00     0.145 C 
HETATM   34  C23 UNL     1      -0.741  -4.271  17.901  1.00  0.00     0.145 C 
HETATM   35  C19 UNL     1      -2.819  -3.161  16.187  1.00  0.00     0.145 C 
HETATM   36  N4  UNL     1      -1.763  -4.026  15.757  1.00  0.00    -0.347 N 
HETATM   37  C20 UNL     1      -1.168  -3.971  14.466  1.00  0.00     0.243 C 
HETATM   38  C22 UNL     1      -1.278  -5.011  16.699  1.00  0.00     0.145 C 
HETATM   39  O2  UNL     1      -0.245  -4.774  14.179  1.00  0.00    -0.271 OA
BRANCH  37  40
HETATM   40  C21 UNL     1      -1.595  -2.996  13.436  1.00  0.00     0.267 C 
BRANCH  40  41
HETATM   41  O3  UNL     1      -0.487  -2.267  13.027  1.00  0.00    -0.392 OA
ATOM     42  H3  UNL     1      -0.379  -2.378  12.090  1.00  0.00     0.210 HD
ENDBRANCH  40  41
ENDBRANCH  37  40
ENDBRANCH  26  30
ENDBRANCH   2  23
TORSDOF 11
ENDMDL
MODEL 4
REMARK VINA RESULT: -6.345855476      7.112     12.731
REMARK  11 active torsions:
REMARK  status: ('A' for Active; 'I' for Inactive)
REMARK    1  A    between atoms: C4_4  and  C6_6 
REMARK    2  A    between atoms: C6_6  and  N1_7 
REMARK    3  A    between atoms: N1_7  and  C9_10 
REMARK    4  A    between atoms: C11_12  and  C12_13 
REMARK    5  A    between atoms: C13_14  and  C14_15 
REMARK    6  A    between atoms: C16_20  and  C17_21 
REMARK       I    between atoms: C17_21  and  N3_23 
REMARK       I    between atoms: N4_26  and  C20_27 
REMARK    7  A    between atoms: C20_27  and  C21_29 
REMARK    8  A    between atoms: C21_29  and  O3_30 
REMARK    9  A    between atoms: N5_35  and  C25_36 
REMARK   10  A    between atoms: C25_36  and  C26_40 
REMARK   11  A    between atoms: C26_40  and  S1_41 
ROOT
HETATM    1  C12 UNL     1      -2.148   1.528  20.779  1.00  0.00    -0.004 C 
HETATM    2  C13 UNL     1      -1.241   0.841  20.151  1.00  0.00    -0.022 C 
ENDROOT
BRANCH   1   3
HETATM    3  C11 UNL     1      -1.852   2.403  21.973  1.00  0.00     0.123 C 
HETATM    4  C4  UNL     1      -2.607   1.952  23.180  1.00  0.00     0.010 C 
HETATM    5  C3  UNL     1      -3.266   3.177  23.754  1.00  0.00     0.069 C 
HETATM    6  C5  UNL     1      -3.848   1.224  22.567  1.00  0.00     0.020 C 
HETATM    7  C2  UNL     1      -3.470   3.948  22.480  1.00  0.00     0.005 C 
HETATM    8  C1  UNL     1      -4.524   4.626  22.152  1.00  0.00     0.038 C 
HETATM    9  N5  UNL     1      -2.275   3.791  21.709  1.00  0.00    -0.332 N 
BRANCH   4  10
HETATM   10  C6  UNL     1      -2.031   0.997  24.087  1.00  0.00     0.248 C 
BRANCH  10  11
HETATM   11  N1  UNL     1      -0.868   1.170  24.860  1.00  0.00    -0.074 N 
HETATM   12  C7  UNL     1      -1.064   1.797  26.151  1.00  0.00     0.272 C 
HETATM   13  C8  UNL     1      -0.516  -0.235  25.233  1.00  0.00     0.272 C 
BRANCH  11  14
HETATM   14  C9  UNL     1       0.316   1.638  24.209  1.00  0.00     0.232 C 
HETATM   15  C10 UNL     1       0.691   3.064  24.529  1.00  0.00     0.034 C 
ENDBRANCH  11  14
ENDBRANCH  10  11
ENDBRANCH   4  10
BRANCH   9  16
HETATM   16  C25 UNL     1      -1.642   4.753  20.881  1.00  0.00     0.087 C 
HETATM   17  N6  UNL     1      -0.434   5.102  21.153  1.00  0.00    -0.388 N 
ATOM     18  H62 UNL     1       0.008   4.659  21.959  1.00  0.00     0.157 HD
ATOM     19  H61 UNL     1       0.021   5.794  20.558  1.00  0.00     0.157 HD
BRANCH  16  20
HETATM   20  C26 UNL     1      -2.283   5.395  19.714  1.00  0.00     0.149 C 
BRANCH  20  21
HETATM   21  S1  UNL     1      -2.711   7.123  20.028  1.00  0.00    -0.166 SA
HETATM   22  C27 UNL     1      -1.559   8.274  19.279  1.00  0.00     0.090 C 
ENDBRANCH  20  21
ENDBRANCH  16  20
ENDBRANCH   9  16
ENDBRANCH   1   3
BRANCH   2  23
HETATM   23  C14 UNL     1      -1.423  -0.031  18.991  1.00  0.00     0.036 C 
HETATM   24  C15 UNL     1      -1.643  -1.495  19.409  1.00  0.00     0.242 C 
HETATM   25  N2  UNL     1      -1.614  -2.142  18.141  1.00  0.00    -0.062 N 
HETATM   26  C16 UNL     1      -0.487  -1.555  17.458  1.00  0.00     0.277 C 
ATOM     27  H22 UNL     1      -1.583  -3.160  18.194  1.00  0.00     0.278 HD
ATOM     28  H21 UNL     1      -2.491  -2.082  17.624  1.00  0.00     0.278 HD
HETATM   29  C24 UNL     1      -0.247  -0.196  18.093  1.00  0.00     0.053 C 
BRANCH  26  30
HETATM   30  C17 UNL     1      -0.858  -1.406  16.016  1.00  0.00     0.250 C 
HETATM   31  O1  UNL     1      -1.559  -0.418  15.661  1.00  0.00    -0.271 OA
HETATM   32  N3  UNL     1      -0.431  -2.358  15.054  1.00  0.00    -0.347 N 
HETATM   33  C18 UNL     1       0.342  -3.530  15.312  1.00  0.00     0.145 C 
HETATM   34  C23 UNL     1      -0.809  -2.120  13.654  1.00  0.00     0.145 C 
HETATM   35  C19 UNL     1      -0.434  -4.751  14.848  1.00  0.00     0.145 C 
HETATM   36  N4  UNL     1      -1.592  -4.327  14.121  1.00  0.00    -0.347 N 
HETATM   37  C20 UNL     1      -2.912  -4.787  14.390  1.00  0.00     0.243 C 
HETATM   38  C22 UNL     1      -1.399  -3.372  13.051  1.00  0.00     0.145 C 
HETATM   39  O2  UNL     1      -3.867  -4.357  13.695  1.00  0.00    -0.271 OA
BRANCH  37  40
HETATM   40  C21 UNL     1      -3.208  -5.760  15.465  1.00  0.00     0.267 C 
BRANCH  40  41
HETATM   41  O3  UNL     1      -3.499  -5.062  16.629  1.00  0.00    -0.392 OA
ATOM     42  H3  UNL     1      -2.978  -5.422  17.338  1.00  0.00     0.210 HD
ENDBRANCH  40  41
ENDBRANCH  37  40
ENDBRANCH  26  30
ENDBRANCH   2  23
TORSDOF 11
ENDMDL
MODEL 5
REMARK VINA RESULT: -6.336518698      6.873     12.117
REMARK  11 active torsions:
REMARK  status: ('A' for Active; 'I' for Inactive)
REMARK    1  A    between atoms: C4_4  and  C6_6 
REMARK    2  A    between atoms: C6_6  and  N1_7 
REMARK    3  A    between atoms: N1_7  and  C9_10 
REMARK    4  A    between atoms: C11_12  and  C12_13 
REMARK    5  A    between atoms: C13_14  and  C14_15 
REMARK    6  A    between atoms: C16_20  and  C17_21 
REMARK       I    between atoms: C17_21  and  N3_23 
REMARK       I    between atoms: N4_26  and  C20_27 
REMARK    7  A    between atoms: C20_27  and  C21_29 
REMARK    8  A    between atoms: C21_29  and  O3_30 
REMARK    9  A    between atoms: N5_35  and  C25_36 
REMARK   10  A    between atoms: C25_36  and  C26_40 
REMARK   11  A    between atoms: C26_40  and  S1_41 
ROOT
HETATM    1  C12 UNL     1      -1.909   2.372  20.885  1.00  0.00    -0.004 C 
HETATM    2  C13 UNL     1      -0.907   1.658  20.467  1.00  0.00    -0.022 C 
ENDROOT
BRANCH   1   3
HETATM    3  C11 UNL     1      -1.787   3.439  21.945  1.00  0.00     0.123 C 
HETATM    4  C4  UNL     1      -2.497   3.048  23.199  1.00  0.00     0.010 C 
HETATM    5  C3  UNL     1      -3.354   4.223  23.589  1.00  0.00     0.069 C 
HETATM    6  C5  UNL     1      -3.593   2.056  22.688  1.00  0.00     0.020 C 
HETATM    7  C2  UNL     1      -3.638   4.766  22.217  1.00  0.00     0.005 C 
HETATM    8  C1  UNL     1      -4.774   5.218  21.789  1.00  0.00     0.038 C 
HETATM    9  N5  UNL     1      -2.412   4.693  21.484  1.00  0.00    -0.332 N 
BRANCH   4  10
HETATM   10  C6  UNL     1      -1.806   2.331  24.236  1.00  0.00     0.248 C 
BRANCH  10  11
HETATM   11  N1  UNL     1      -0.416   2.284  24.440  1.00  0.00    -0.074 N 
HETATM   12  C7  UNL     1       0.295   3.520  24.184  1.00  0.00     0.272 C 
HETATM   13  C8  UNL     1      -0.311   2.153  25.927  1.00  0.00     0.272 C 
BRANCH  11  14
HETATM   14  C9  UNL     1       0.302   1.142  23.963  1.00  0.00     0.232 C 
HETATM   15  C10 UNL     1      -0.549  -0.075  23.701  1.00  0.00     0.034 C 
ENDBRANCH  11  14
ENDBRANCH  10  11
ENDBRANCH   4  10
BRANCH   9  16
HETATM   16  C25 UNL     1      -1.912   5.618  20.532  1.00  0.00     0.087 C 
HETATM   17  N6  UNL     1      -0.638   5.748  20.408  1.00  0.00    -0.388 N 
ATOM     18  H62 UNL     1      -0.050   5.168  21.007  1.00  0.00     0.157 HD
ATOM     19  H61 UNL     1      -0.278   6.413  19.724  1.00  0.00     0.157 HD
BRANCH  16  20
HETATM   20  C26 UNL     1      -2.764   6.459  19.664  1.00  0.00     0.149 C 
BRANCH  20  21
HETATM   21  S1  UNL     1      -2.012   8.064  19.310  1.00  0.00    -0.166 SA
HETATM   22  C27 UNL     1      -3.090   9.441  19.701  1.00  0.00     0.090 C 
ENDBRANCH  20  21
ENDBRANCH  16  20
ENDBRANCH   9  16
ENDBRANCH   1   3
BRANCH   2  23
HETATM   23  C14 UNL     1      -0.920   0.606  19.452  1.00  0.00     0.036 C 
HETATM   24  C15 UNL     1      -1.390  -0.739  20.032  1.00  0.00     0.242 C 
HETATM   25  N2  UNL     1      -1.150  -1.605  18.927  1.00  0.00    -0.062 N 
HETATM   26  C16 UNL     1       0.159  -1.233  18.450  1.00  0.00     0.277 C 
ATOM     27  H22 UNL     1      -1.245  -2.597  19.148  1.00  0.00     0.278 HD
ATOM     28  H21 UNL     1      -1.876  -1.577  18.212  1.00  0.00     0.278 HD
HETATM   29  C24 UNL     1       0.402   0.198  18.900  1.00  0.00     0.053 C 
BRANCH  26  30
HETATM   30  C17 UNL     1       0.140  -1.321  16.957  1.00  0.00     0.250 C 
HETATM   31  O1  UNL     1      -0.094  -0.280  16.283  1.00  0.00    -0.271 OA
HETATM   32  N3  UNL     1       0.383  -2.555  16.299  1.00  0.00    -0.347 N 
HETATM   33  C18 UNL     1       0.639  -3.811  16.928  1.00  0.00     0.145 C 
HETATM   34  C23 UNL     1       0.380  -2.549  14.830  1.00  0.00     0.145 C 
HETATM   35  C19 UNL     1      -0.411  -4.814  16.482  1.00  0.00     0.145 C 
HETATM   36  N4  UNL     1      -1.192  -4.244  15.426  1.00  0.00    -0.347 N 
HETATM   37  C20 UNL     1      -2.615  -4.209  15.420  1.00  0.00     0.243 C 
HETATM   38  C22 UNL     1      -0.483  -3.671  14.303  1.00  0.00     0.145 C 
HETATM   39  O2  UNL     1      -3.213  -3.686  14.446  1.00  0.00    -0.271 OA
BRANCH  37  40
HETATM   40  C21 UNL     1      -3.427  -4.768  16.525  1.00  0.00     0.267 C 
BRANCH  40  41
HETATM   41  O3  UNL     1      -3.674  -3.761  17.448  1.00  0.00    -0.392 OA
ATOM     42  H3  UNL     1      -3.899  -4.159  18.280  1.00  0.00     0.210 HD
ENDBRANCH  40  41
ENDBRANCH  37  40
ENDBRANCH  26  30
ENDBRANCH   2  23
TORSDOF 11
ENDMDL
