MODEL 1
REMARK VINA RESULT: -6.916996748      0.000      0.000
REMARK  10 active torsions:
REMARK  status: ('A' for Active; 'I' for Inactive)
REMARK    1  A    between atoms: C2_2  and  C3_3 
REMARK    2  A    between atoms: C4_4  and  C5_5 
REMARK    3  A    between atoms: C7_10  and  C8_11 
REMARK    4  A    between atoms: C8_11  and  C9_12 
REMARK    5  A    between atoms: C14_19  and  C15_20 
REMARK    6  A    between atoms: C23_33  and  C24_34 
REMARK    7  A    between atoms: C24_34  and  C25_35 
REMARK    8  A    between atoms: C25_35  and  C26_36 
REMARK    9  A    between atoms: C26_36  and  C27_37 
REMARK   10  A    between atoms: C27_37  and  N5_38 
ROOT
HETATM    1  C5  UNL     1      -4.967   3.881  23.349  1.00  0.00     0.235 C 
HETATM    2  N1  UNL     1      -5.700   4.719  24.272  1.00  0.00    -0.334 N 
ATOM      3  H1  UNL     1      -6.235   5.482  23.858  1.00  0.00     0.164 HD
HETATM    4  C6  UNL     1      -5.762   4.605  25.666  1.00  0.00     0.269 C 
HETATM    5  O1  UNL     1      -6.899   4.718  26.198  1.00  0.00    -0.266 OA
HETATM    6  C7  UNL     1      -4.627   4.363  26.602  1.00  0.00     0.102 C 
HETATM    7  N2  UNL     1      -4.171   2.991  26.598  1.00  0.00    -0.313 N 
HETATM    8  C12 UNL     1      -5.196   1.949  26.395  1.00  0.00     0.160 C 
HETATM    9  C13 UNL     1      -2.857   2.535  26.756  1.00  0.00     0.271 C 
HETATM   10  O2  UNL     1      -2.723   1.308  27.108  1.00  0.00    -0.266 OA
HETATM   11  C14 UNL     1      -1.592   3.261  26.576  1.00  0.00     0.084 C 
HETATM   12  N3  UNL     1      -1.272   3.720  25.280  1.00  0.00    -0.324 N 
ATOM     13  H3  UNL     1      -1.574   4.684  25.135  1.00  0.00     0.169 HD
HETATM   14  C18 UNL     1      -0.654   3.201  24.153  1.00  0.00     0.244 C 
HETATM   15  O3  UNL     1       0.483   3.715  23.805  1.00  0.00    -0.271 OA
HETATM   16  C19 UNL     1      -1.063   2.119  23.224  1.00  0.00     0.175 C 
HETATM   17  C20 UNL     1       0.174   1.207  23.152  1.00  0.00     0.042 C 
HETATM   18  N4  UNL     1      -1.381   2.571  21.881  1.00  0.00    -0.343 N 
HETATM   19  C21 UNL     1      -0.469   2.106  20.809  1.00  0.00     0.153 C 
HETATM   20  C22 UNL     1      -2.429   3.372  21.459  1.00  0.00     0.231 C 
HETATM   21  O4  UNL     1      -3.162   3.004  20.495  1.00  0.00    -0.272 OA
HETATM   22  C23 UNL     1      -2.879   4.717  21.996  1.00  0.00     0.150 C 
HETATM   23  C28 UNL     1      -4.374   4.627  22.209  1.00  0.00     0.174 C 
HETATM   24  O5  UNL     1      -5.069   5.190  21.402  1.00  0.00    -0.294 OA
ENDROOT
BRANCH  22  25
HETATM   25  C24 UNL     1      -2.646   5.712  20.879  1.00  0.00     0.022 C 
BRANCH  25  26
HETATM   26  C25 UNL     1      -1.226   5.934  20.518  1.00  0.00     0.003 C 
BRANCH  26  27
HETATM   27  C26 UNL     1      -0.909   7.106  19.644  1.00  0.00     0.027 C 
BRANCH  27  28
HETATM   28  C27 UNL     1      -2.062   7.949  19.232  1.00  0.00     0.229 C 
BRANCH  28  29
HETATM   29  N5  UNL     1      -1.894   9.328  19.522  1.00  0.00    -0.079 N 
ATOM     30  H53 UNL     1      -1.527   9.455  20.464  1.00  0.00     0.274 HD
ATOM     31  H52 UNL     1      -1.119   9.717  18.984  1.00  0.00     0.274 HD
ATOM     32  H51 UNL     1      -2.739   9.882  19.387  1.00  0.00     0.274 HD
ENDBRANCH  28  29
ENDBRANCH  27  28
ENDBRANCH  26  27
ENDBRANCH  25  26
ENDBRANCH  22  25
BRANCH   1  33
HETATM   33  C4  UNL     1      -5.863   2.875  22.708  1.00  0.00    -0.073 C 
HETATM   34  C3  UNL     1      -6.596   2.082  22.182  1.00  0.00    -0.104 C 
BRANCH  34  35
HETATM   35  C2  UNL     1      -7.509   1.138  21.538  1.00  0.00     0.089 C 
HETATM   36  C1  UNL     1      -8.265   1.800  20.393  1.00  0.00     0.018 C 
ENDBRANCH  34  35
ENDBRANCH   1  33
BRANCH   6  37
HETATM   37  C8  UNL     1      -4.699   5.052  27.898  1.00  0.00     0.012 C 
BRANCH  37  38
HETATM   38  C9  UNL     1      -4.107   6.368  28.146  1.00  0.00     0.002 C 
HETATM   39  C10 UNL     1      -2.646   6.146  28.630  1.00  0.00     0.013 C 
HETATM   40  C11 UNL     1      -4.793   7.036  29.320  1.00  0.00     0.013 C 
ENDBRANCH  37  38
ENDBRANCH   6  37
BRANCH  11  41
HETATM   41  C15 UNL     1      -0.461   2.653  27.375  1.00  0.00     0.033 C 
HETATM   42  C16 UNL     1      -0.181   1.223  27.157  1.00  0.00     0.016 C 
HETATM   43  C17 UNL     1      -0.821   2.828  28.858  1.00  0.00     0.016 C 
ENDBRANCH  11  41
TORSDOF 10
ENDMDL
MODEL 2
REMARK VINA RESULT: -6.820353633      1.394      1.659
REMARK  10 active torsions:
REMARK  status: ('A' for Active; 'I' for Inactive)
REMARK    1  A    between atoms: C2_2  and  C3_3 
REMARK    2  A    between atoms: C4_4  and  C5_5 
REMARK    3  A    between atoms: C7_10  and  C8_11 
REMARK    4  A    between atoms: C8_11  and  C9_12 
REMARK    5  A    between atoms: C14_19  and  C15_20 
REMARK    6  A    between atoms: C23_33  and  C24_34 
REMARK    7  A    between atoms: C24_34  and  C25_35 
REMARK    8  A    between atoms: C25_35  and  C26_36 
REMARK    9  A    between atoms: C26_36  and  C27_37 
REMARK   10  A    between atoms: C27_37  and  N5_38 
ROOT
HETATM    1  C5  UNL     1      -5.343   3.898  23.990  1.00  0.00     0.235 C 
HETATM    2  N1  UNL     1      -5.554   4.966  24.943  1.00  0.00    -0.334 N 
ATOM      3  H1  UNL     1      -6.030   5.796  24.589  1.00  0.00     0.164 HD
HETATM    4  C6  UNL     1      -5.181   4.994  26.291  1.00  0.00     0.269 C 
HETATM    5  O1  UNL     1      -6.037   5.424  27.112  1.00  0.00    -0.266 OA
HETATM    6  C7  UNL     1      -3.877   4.569  26.876  1.00  0.00     0.102 C 
HETATM    7  N2  UNL     1      -3.732   3.133  26.956  1.00  0.00    -0.313 N 
HETATM    8  C12 UNL     1      -4.954   2.354  27.234  1.00  0.00     0.160 C 
HETATM    9  C13 UNL     1      -2.556   2.391  26.789  1.00  0.00     0.271 C 
HETATM   10  O2  UNL     1      -2.564   1.203  27.276  1.00  0.00    -0.266 OA
HETATM   11  C14 UNL     1      -1.300   2.773  26.129  1.00  0.00     0.084 C 
HETATM   12  N3  UNL     1      -1.333   3.025  24.740  1.00  0.00    -0.324 N 
ATOM     13  H3  UNL     1      -1.466   4.016  24.539  1.00  0.00     0.169 HD
HETATM   14  C18 UNL     1      -1.232   2.275  23.579  1.00  0.00     0.244 C 
HETATM   15  O3  UNL     1      -0.191   2.468  22.833  1.00  0.00    -0.271 OA
HETATM   16  C19 UNL     1      -2.128   1.246  22.998  1.00  0.00     0.175 C 
HETATM   17  C20 UNL     1      -1.191   0.060  22.709  1.00  0.00     0.042 C 
HETATM   18  N4  UNL     1      -2.767   1.641  21.755  1.00  0.00    -0.343 N 
HETATM   19  C21 UNL     1      -2.366   0.877  20.550  1.00  0.00     0.153 C 
HETATM   20  C22 UNL     1      -3.713   2.630  21.540  1.00  0.00     0.231 C 
HETATM   21  O4  UNL     1      -4.777   2.365  20.908  1.00  0.00    -0.272 OA
HETATM   22  C23 UNL     1      -3.685   4.085  21.965  1.00  0.00     0.150 C 
HETATM   23  C28 UNL     1      -5.016   4.376  22.622  1.00  0.00     0.174 C 
HETATM   24  O5  UNL     1      -5.808   5.016  21.978  1.00  0.00    -0.294 OA
ENDROOT
BRANCH  22  25
HETATM   25  C24 UNL     1      -3.633   4.892  20.685  1.00  0.00     0.022 C 
BRANCH  25  26
HETATM   26  C25 UNL     1      -2.837   6.139  20.756  1.00  0.00     0.003 C 
BRANCH  26  27
HETATM   27  C26 UNL     1      -3.402   7.360  20.101  1.00  0.00     0.027 C 
BRANCH  27  28
HETATM   28  C27 UNL     1      -2.422   8.267  19.447  1.00  0.00     0.229 C 
BRANCH  28  29
HETATM   29  N5  UNL     1      -2.842   9.622  19.402  1.00  0.00    -0.079 N 
ATOM     30  H53 UNL     1      -2.535  10.065  18.536  1.00  0.00     0.274 HD
ATOM     31  H52 UNL     1      -3.852   9.683  19.275  1.00  0.00     0.274 HD
ATOM     32  H51 UNL     1      -2.547  10.170  20.210  1.00  0.00     0.274 HD
ENDBRANCH  28  29
ENDBRANCH  27  28
ENDBRANCH  26  27
ENDBRANCH  25  26
ENDBRANCH  22  25
BRANCH   1  33
HETATM   33  C4  UNL     1      -6.581   3.085  23.812  1.00  0.00    -0.073 C 
HETATM   34  C3  UNL     1      -7.580   2.438  23.648  1.00  0.00    -0.104 C 
BRANCH  34  35
HETATM   35  C2  UNL     1      -8.804   1.668  23.426  1.00  0.00     0.089 C 
HETATM   36  C1  UNL     1      -9.876   2.523  22.762  1.00  0.00     0.018 C 
ENDBRANCH  34  35
ENDBRANCH   1  33
BRANCH   6  37
HETATM   37  C8  UNL     1      -3.385   5.367  28.008  1.00  0.00     0.012 C 
BRANCH  37  38
HETATM   38  C9  UNL     1      -2.027   5.253  28.545  1.00  0.00     0.002 C 
HETATM   39  C10 UNL     1      -2.104   4.406  29.848  1.00  0.00     0.013 C 
HETATM   40  C11 UNL     1      -1.533   6.608  29.009  1.00  0.00     0.013 C 
ENDBRANCH  37  38
ENDBRANCH   6  37
BRANCH  11  41
HETATM   41  C15 UNL     1      -0.117   1.983  26.644  1.00  0.00     0.033 C 
HETATM   42  C16 UNL     1       0.300   2.233  28.035  1.00  0.00     0.016 C 
HETATM   43  C17 UNL     1       1.075   2.328  25.739  1.00  0.00     0.016 C 
ENDBRANCH  11  41
TORSDOF 10
ENDMDL
MODEL 3
REMARK VINA RESULT: -6.681616022      2.008      7.554
REMARK  10 active torsions:
REMARK  status: ('A' for Active; 'I' for Inactive)
REMARK    1  A    between atoms: C2_2  and  C3_3 
REMARK    2  A    between atoms: C4_4  and  C5_5 
REMARK    3  A    between atoms: C7_10  and  C8_11 
REMARK    4  A    between atoms: C8_11  and  C9_12 
REMARK    5  A    between atoms: C14_19  and  C15_20 
REMARK    6  A    between atoms: C23_33  and  C24_34 
REMARK    7  A    between atoms: C24_34  and  C25_35 
REMARK    8  A    between atoms: C25_35  and  C26_36 
REMARK    9  A    between atoms: C26_36  and  C27_37 
REMARK   10  A    between atoms: C27_37  and  N5_38 
ROOT
HETATM    1  C5  UNL     1      -2.185   3.991  25.000  1.00  0.00     0.235 C 
HETATM    2  N1  UNL     1      -1.298   4.559  24.009  1.00  0.00    -0.334 N 
ATOM      3  H1  UNL     1      -0.660   5.282  24.339  1.00  0.00     0.164 HD
HETATM    4  C6  UNL     1      -1.213   4.231  22.651  1.00  0.00     0.269 C 
HETATM    5  O1  UNL     1      -0.057   4.086  22.170  1.00  0.00    -0.266 OA
HETATM    6  C7  UNL     1      -2.343   4.032  21.699  1.00  0.00     0.102 C 
HETATM    7  N2  UNL     1      -3.014   2.763  21.873  1.00  0.00    -0.313 N 
HETATM    8  C12 UNL     1      -2.178   1.616  22.276  1.00  0.00     0.160 C 
HETATM    9  C13 UNL     1      -4.380   2.499  21.710  1.00  0.00     0.271 C 
HETATM   10  O2  UNL     1      -4.700   1.269  21.529  1.00  0.00    -0.266 OA
HETATM   11  C14 UNL     1      -5.515   3.432  21.717  1.00  0.00     0.084 C 
HETATM   12  N3  UNL     1      -5.796   4.122  22.916  1.00  0.00    -0.324 N 
ATOM     13  H3  UNL     1      -5.347   5.038  22.939  1.00  0.00     0.169 HD
HETATM   14  C18 UNL     1      -6.525   3.878  24.071  1.00  0.00     0.244 C 
HETATM   15  O3  UNL     1      -7.573   4.609  24.280  1.00  0.00    -0.271 OA
HETATM   16  C19 UNL     1      -6.324   2.896  25.164  1.00  0.00     0.175 C 
HETATM   17  C20 UNL     1      -7.694   2.209  25.298  1.00  0.00     0.042 C 
HETATM   18  N4  UNL     1      -5.979   3.488  26.444  1.00  0.00    -0.343 N 
HETATM   19  C21 UNL     1      -6.985   3.334  27.521  1.00  0.00     0.153 C 
HETATM   20  C22 UNL     1      -4.828   4.170  26.805  1.00  0.00     0.231 C 
HETATM   21  O4  UNL     1      -4.194   3.839  27.848  1.00  0.00    -0.272 OA
HETATM   22  C23 UNL     1      -4.150   5.333  26.107  1.00  0.00     0.150 C 
HETATM   23  C28 UNL     1      -2.684   4.981  25.990  1.00  0.00     0.174 C 
HETATM   24  O5  UNL     1      -1.932   5.542  26.745  1.00  0.00    -0.294 OA
ENDROOT
BRANCH  22  25
HETATM   25  C24 UNL     1      -4.254   6.507  27.058  1.00  0.00     0.022 C 
BRANCH  25  26
HETATM   26  C25 UNL     1      -5.634   6.916  27.408  1.00  0.00     0.003 C 
BRANCH  26  27
HETATM   27  C26 UNL     1      -5.852   7.539  28.750  1.00  0.00     0.027 C 
BRANCH  27  28
HETATM   28  C27 UNL     1      -5.185   6.872  29.900  1.00  0.00     0.229 C 
BRANCH  28  29
HETATM   29  N5  UNL     1      -4.127   7.631  30.464  1.00  0.00    -0.079 N 
ATOM     30  H53 UNL     1      -3.252   7.450  29.972  1.00  0.00     0.274 HD
ATOM     31  H52 UNL     1      -4.240   8.622  30.249  1.00  0.00     0.274 HD
ATOM     32  H51 UNL     1      -4.011   7.492  31.467  1.00  0.00     0.274 HD
ENDBRANCH  28  29
ENDBRANCH  27  28
ENDBRANCH  26  27
ENDBRANCH  25  26
ENDBRANCH  22  25
BRANCH   1  33
HETATM   33  C4  UNL     1      -1.483   2.965  25.825  1.00  0.00    -0.073 C 
HETATM   34  C3  UNL     1      -0.937   2.134  26.500  1.00  0.00    -0.104 C 
BRANCH  34  35
HETATM   35  C2  UNL     1      -0.292   1.127  27.342  1.00  0.00     0.089 C 
HETATM   36  C1  UNL     1       1.219   1.139  27.150  1.00  0.00     0.018 C 
ENDBRANCH  34  35
ENDBRANCH   1  33
BRANCH   6  37
HETATM   37  C8  UNL     1      -2.121   4.501  20.324  1.00  0.00     0.012 C 
BRANCH  37  38
HETATM   38  C9  UNL     1      -2.514   5.830  19.852  1.00  0.00     0.002 C 
HETATM   39  C10 UNL     1      -1.263   6.750  19.932  1.00  0.00     0.013 C 
HETATM   40  C11 UNL     1      -3.501   6.455  20.817  1.00  0.00     0.013 C 
ENDBRANCH  37  38
ENDBRANCH   6  37
BRANCH  11  41
HETATM   41  C15 UNL     1      -6.705   2.895  20.952  1.00  0.00     0.033 C 
HETATM   42  C16 UNL     1      -7.682   3.880  20.456  1.00  0.00     0.016 C 
HETATM   43  C17 UNL     1      -7.452   1.947  21.903  1.00  0.00     0.016 C 
ENDBRANCH  11  41
TORSDOF 10
ENDMDL
MODEL 4
REMARK VINA RESULT: -6.602199106      2.073      7.202
REMARK  10 active torsions:
REMARK  status: ('A' for Active; 'I' for Inactive)
REMARK    1  A    between atoms: C2_2  and  C3_3 
REMARK    2  A    between atoms: C4_4  and  C5_5 
REMARK    3  A    between atoms: C7_10  and  C8_11 
REMARK    4  A    between atoms: C8_11  and  C9_12 
REMARK    5  A    between atoms: C14_19  and  C15_20 
REMARK    6  A    between atoms: C23_33  and  C24_34 
REMARK    7  A    between atoms: C24_34  and  C25_35 
REMARK    8  A    between atoms: C25_35  and  C26_36 
REMARK    9  A    between atoms: C26_36  and  C27_37 
REMARK   10  A    between atoms: C27_37  and  N5_38 
ROOT
HETATM    1  C5  UNL     1      -0.763   2.004  24.035  1.00  0.00     0.235 C 
HETATM    2  N1  UNL     1      -0.248   2.952  23.073  1.00  0.00    -0.334 N 
ATOM      3  H1  UNL     1       0.621   3.423  23.327  1.00  0.00     0.164 HD
HETATM    4  C6  UNL     1      -0.800   3.300  21.835  1.00  0.00     0.269 C 
HETATM    5  O1  UNL     1      -0.009   3.374  20.857  1.00  0.00    -0.266 OA
HETATM    6  C7  UNL     1      -2.231   3.595  21.538  1.00  0.00     0.102 C 
HETATM    7  N2  UNL     1      -3.054   2.408  21.472  1.00  0.00    -0.313 N 
HETATM    8  C12 UNL     1      -2.423   1.189  20.931  1.00  0.00     0.160 C 
HETATM    9  C13 UNL     1      -4.388   2.280  21.878  1.00  0.00     0.271 C 
HETATM   10  O2  UNL     1      -5.035   1.286  21.386  1.00  0.00    -0.266 OA
HETATM   11  C14 UNL     1      -5.167   3.123  22.795  1.00  0.00     0.084 C 
HETATM   12  N3  UNL     1      -4.766   3.174  24.148  1.00  0.00    -0.324 N 
ATOM     13  H3  UNL     1      -4.143   3.961  24.328  1.00  0.00     0.169 HD
HETATM   14  C18 UNL     1      -4.999   2.431  25.295  1.00  0.00     0.244 C 
HETATM   15  O3  UNL     1      -5.667   2.999  26.248  1.00  0.00    -0.271 OA
HETATM   16  C19 UNL     1      -4.611   1.046  25.658  1.00  0.00     0.175 C 
HETATM   17  C20 UNL     1      -5.928   0.405  26.127  1.00  0.00     0.042 C 
HETATM   18  N4  UNL     1      -3.647   0.959  26.741  1.00  0.00    -0.343 N 
HETATM   19  C21 UNL     1      -4.136   0.338  27.995  1.00  0.00     0.153 C 
HETATM   20  C22 UNL     1      -2.323   1.368  26.762  1.00  0.00     0.231 C 
HETATM   21  O4  UNL     1      -1.418   0.572  27.148  1.00  0.00    -0.272 OA
HETATM   22  C23 UNL     1      -1.732   2.708  26.370  1.00  0.00     0.150 C 
HETATM   23  C28 UNL     1      -0.568   2.422  25.448  1.00  0.00     0.174 C 
HETATM   24  O5  UNL     1       0.535   2.547  25.915  1.00  0.00    -0.294 OA
ENDROOT
BRANCH  22  25
HETATM   25  C24 UNL     1      -1.161   3.299  27.642  1.00  0.00     0.022 C 
BRANCH  25  26
HETATM   26  C25 UNL     1      -1.884   4.479  28.171  1.00  0.00     0.003 C 
BRANCH  26  27
HETATM   27  C26 UNL     1      -2.513   5.407  27.181  1.00  0.00     0.027 C 
BRANCH  27  28
HETATM   28  C27 UNL     1      -3.891   5.868  27.496  1.00  0.00     0.229 C 
BRANCH  28  29
HETATM   29  N5  UNL     1      -4.736   5.958  26.360  1.00  0.00    -0.079 N 
ATOM     30  H53 UNL     1      -4.207   5.798  25.503  1.00  0.00     0.274 HD
ATOM     31  H52 UNL     1      -5.371   5.161  26.319  1.00  0.00     0.274 HD
ATOM     32  H51 UNL     1      -5.254   6.835  26.303  1.00  0.00     0.274 HD
ENDBRANCH  28  29
ENDBRANCH  27  28
ENDBRANCH  26  27
ENDBRANCH  25  26
ENDBRANCH  22  25
BRANCH   1  33
HETATM   33  C4  UNL     1      -0.052   0.696  23.935  1.00  0.00    -0.073 C 
HETATM   34  C3  UNL     1       0.538  -0.347  23.843  1.00  0.00    -0.104 C 
BRANCH  34  35
HETATM   35  C2  UNL     1       1.269  -1.606  23.708  1.00  0.00     0.089 C 
HETATM   36  C1  UNL     1       2.647  -1.511  24.352  1.00  0.00     0.018 C 
ENDBRANCH  34  35
ENDBRANCH   1  33
BRANCH   6  37
HETATM   37  C8  UNL     1      -2.481   4.651  20.546  1.00  0.00     0.012 C 
BRANCH  37  38
HETATM   38  C9  UNL     1      -2.253   6.073  20.808  1.00  0.00     0.002 C 
HETATM   39  C10 UNL     1      -3.548   6.840  20.417  1.00  0.00     0.013 C 
HETATM   40  C11 UNL     1      -1.199   6.615  19.864  1.00  0.00     0.013 C 
ENDBRANCH  37  38
ENDBRANCH   6  37
BRANCH  11  41
HETATM   41  C15 UNL     1      -6.655   3.033  22.535  1.00  0.00     0.033 C 
HETATM   42  C16 UNL     1      -7.134   3.498  21.222  1.00  0.00     0.016 C 
HETATM   43  C17 UNL     1      -7.345   3.891  23.605  1.00  0.00     0.016 C 
ENDBRANCH  11  41
TORSDOF 10
ENDMDL
MODEL 5
REMARK VINA RESULT: -6.544482835      1.408      1.605
REMARK  10 active torsions:
REMARK  status: ('A' for Active; 'I' for Inactive)
REMARK    1  A    between atoms: C2_2  and  C3_3 
REMARK    2  A    between atoms: C4_4  and  C5_5 
REMARK    3  A    between atoms: C7_10  and  C8_11 
REMARK    4  A    between atoms: C8_11  and  C9_12 
REMARK    5  A    between atoms: C14_19  and  C15_20 
REMARK    6  A    between atoms: C23_33  and  C24_34 
REMARK    7  A    between atoms: C24_34  and  C25_35 
REMARK    8  A    between atoms: C25_35  and  C26_36 
REMARK    9  A    between atoms: C26_36  and  C27_37 
REMARK   10  A    between atoms: C27_37  and  N5_38 
ROOT
HETATM    1  C5  UNL     1      -5.300   3.306  22.879  1.00  0.00     0.235 C 
HETATM    2  N1  UNL     1      -6.048   4.433  23.393  1.00  0.00    -0.334 N 
ATOM      3  H1  UNL     1      -6.306   5.149  22.714  1.00  0.00     0.164 HD
HETATM    4  C6  UNL     1      -6.458   4.656  24.712  1.00  0.00     0.269 C 
HETATM    5  O1  UNL     1      -7.643   5.053  24.883  1.00  0.00    -0.266 OA
HETATM    6  C7  UNL     1      -5.649   4.475  25.951  1.00  0.00     0.102 C 
HETATM    7  N2  UNL     1      -5.490   3.088  26.328  1.00  0.00    -0.313 N 
HETATM    8  C12 UNL     1      -6.625   2.187  26.050  1.00  0.00     0.160 C 
HETATM    9  C13 UNL     1      -4.368   2.496  26.922  1.00  0.00     0.271 C 
HETATM   10  O2  UNL     1      -4.570   1.378  27.519  1.00  0.00    -0.266 OA
HETATM   11  C14 UNL     1      -2.978   2.970  26.963  1.00  0.00     0.084 C 
HETATM   12  N3  UNL     1      -2.275   3.064  25.741  1.00  0.00    -0.324 N 
ATOM     13  H3  UNL     1      -2.335   4.001  25.342  1.00  0.00     0.169 HD
HETATM   14  C18 UNL     1      -1.525   2.213  24.944  1.00  0.00     0.244 C 
HETATM   15  O3  UNL     1      -0.260   2.463  24.831  1.00  0.00    -0.271 OA
HETATM   16  C19 UNL     1      -1.912   1.017  24.157  1.00  0.00     0.175 C 
HETATM   17  C20 UNL     1      -0.901  -0.056  24.597  1.00  0.00     0.042 C 
HETATM   18  N4  UNL     1      -1.806   1.187  22.718  1.00  0.00    -0.343 N 
HETATM   19  C21 UNL     1      -0.780   0.358  22.043  1.00  0.00     0.153 C 
HETATM   20  C22 UNL     1      -2.543   2.011  21.884  1.00  0.00     0.231 C 
HETATM   21  O4  UNL     1      -3.086   1.540  20.843  1.00  0.00    -0.272 OA
HETATM   22  C23 UNL     1      -2.829   3.495  22.018  1.00  0.00     0.150 C 
HETATM   23  C28 UNL     1      -4.318   3.674  21.826  1.00  0.00     0.174 C 
HETATM   24  O5  UNL     1      -4.676   4.129  20.770  1.00  0.00    -0.294 OA
ENDROOT
BRANCH  22  25
HETATM   25  C24 UNL     1      -2.143   4.158  20.842  1.00  0.00     0.022 C 
BRANCH  25  26
HETATM   26  C25 UNL     1      -1.743   5.568  21.058  1.00  0.00     0.003 C 
BRANCH  26  27
HETATM   27  C26 UNL     1      -1.890   6.514  19.908  1.00  0.00     0.027 C 
BRANCH  27  28
HETATM   28  C27 UNL     1      -2.969   7.529  20.026  1.00  0.00     0.229 C 
BRANCH  28  29
HETATM   29  N5  UNL     1      -4.100   7.079  20.756  1.00  0.00    -0.079 N 
ATOM     30  H53 UNL     1      -3.948   6.133  21.107  1.00  0.00     0.274 HD
ATOM     31  H52 UNL     1      -4.179   7.578  21.642  1.00  0.00     0.274 HD
ATOM     32  H51 UNL     1      -4.973   7.132  20.233  1.00  0.00     0.274 HD
ENDBRANCH  28  29
ENDBRANCH  27  28
ENDBRANCH  26  27
ENDBRANCH  25  26
ENDBRANCH  22  25
BRANCH   1  33
HETATM   33  C4  UNL     1      -6.203   2.320  22.216  1.00  0.00    -0.073 C 
HETATM   34  C3  UNL     1      -6.942   1.525  21.701  1.00  0.00    -0.104 C 
BRANCH  34  35
HETATM   35  C2  UNL     1      -7.849   0.548  21.100  1.00  0.00     0.089 C 
HETATM   36  C1  UNL     1      -8.684   1.184  19.995  1.00  0.00     0.018 C 
ENDBRANCH  34  35
ENDBRANCH   1  33
BRANCH   6  37
HETATM   37  C8  UNL     1      -5.886   5.449  27.027  1.00  0.00     0.012 C 
BRANCH  37  38
HETATM   38  C9  UNL     1      -5.039   6.621  27.254  1.00  0.00     0.002 C 
HETATM   39  C10 UNL     1      -3.922   6.211  28.255  1.00  0.00     0.013 C 
HETATM   40  C11 UNL     1      -5.819   7.696  27.983  1.00  0.00     0.013 C 
ENDBRANCH  37  38
ENDBRANCH   6  37
BRANCH  11  41
HETATM   41  C15 UNL     1      -2.213   2.405  28.140  1.00  0.00     0.033 C 
HETATM   42  C16 UNL     1      -2.806   2.593  29.475  1.00  0.00     0.016 C 
HETATM   43  C17 UNL     1      -0.840   3.093  28.147  1.00  0.00     0.016 C 
ENDBRANCH  11  41
TORSDOF 10
ENDMDL
