MODEL 1
REMARK VINA RESULT: -7.595036716      0.000      0.000
REMARK  11 active torsions:
REMARK  status: ('A' for Active; 'I' for Inactive)
REMARK    1  A    between atoms: C2_2  and  C3_3 
REMARK    2  A    between atoms: C3_3  and  C6_6 
REMARK    3  A    between atoms: C6_6  and  C7_7 
REMARK    4  A    between atoms: C10_10  and  C11_11 
REMARK    5  A    between atoms: C11_11  and  C12_12 
REMARK    6  A    between atoms: C12_12  and  C13_13 
REMARK    7  A    between atoms: N3_22  and  C17_23 
REMARK    8  A    between atoms: C17_23  and  C18_24 
REMARK       I    between atoms: C18_24  and  N4_26 
REMARK    9  A    between atoms: C24_32  and  C25_33 
REMARK   10  A    between atoms: C25_33  and  O3_35 
REMARK   11  A    between atoms: C25_33  and  C27_37 
ROOT
HETATM    1  C7  UNL     1      -0.397   1.809  21.360  1.00  0.00     0.025 A 
HETATM    2  C8  UNL     1      -0.895   3.011  20.993  1.00  0.00    -0.005 A 
HETATM    3  C9  UNL     1      -1.372   3.167  19.750  1.00  0.00     0.026 C 
HETATM    4  C10 UNL     1      -1.204   4.045  21.942  1.00  0.00     0.042 A 
HETATM    5  N3  UNL     1      -1.001   3.786  23.241  1.00  0.00    -0.335 N 
HETATM    6  C23 UNL     1      -0.504   2.581  23.704  1.00  0.00     0.086 A 
HETATM    7  C24 UNL     1      -0.279   2.386  24.961  1.00  0.00     0.044 C 
HETATM    8  C30 UNL     1      -0.222   1.644  22.759  1.00  0.00     0.209 A 
HETATM    9  O4  UNL     1       0.222   0.552  23.119  1.00  0.00    -0.285 OA
ENDROOT
BRANCH   4  10
HETATM   10  C11 UNL     1      -1.554   5.170  21.445  1.00  0.00     0.008 C 
BRANCH  10  11
HETATM   11  C12 UNL     1      -1.112   6.086  20.414  1.00  0.00     0.075 C 
BRANCH  11  12
HETATM   12  C13 UNL     1      -2.191   7.062  20.021  1.00  0.00     0.038 A 
HETATM   13  C14 UNL     1      -3.526   6.821  19.953  1.00  0.00     0.034 A 
HETATM   14  C15 UNL     1      -4.237   5.559  20.244  1.00  0.00     0.070 C 
HETATM   15  N1  UNL     1      -4.162   7.957  19.561  1.00  0.00    -0.302 N 
HETATM   16  N2  UNL     1      -3.233   8.874  19.393  1.00  0.00    -0.266 N 
ATOM     17  H1  UNL     1      -5.165   8.076  19.425  1.00  0.00     0.186 HD
HETATM   18  C16 UNL     1      -1.999   8.358  19.668  1.00  0.00     0.268 A 
ATOM     19  H2  UNL     1      -3.410   9.833  19.098  1.00  0.00     0.190 HD
HETATM   20  O1  UNL     1      -0.906   9.003  19.596  1.00  0.00    -0.266 OA
ENDBRANCH  11  12
ENDBRANCH  10  11
ENDBRANCH   4  10
BRANCH   5  21
HETATM   21  C17 UNL     1      -1.281   4.722  24.295  1.00  0.00     0.232 C 
BRANCH  21  22
HETATM   22  C18 UNL     1      -2.698   4.630  24.773  1.00  0.00     0.238 C 
HETATM   23  O2  UNL     1      -3.519   4.078  24.008  1.00  0.00    -0.272 OA
HETATM   24  N4  UNL     1      -3.120   5.133  26.021  1.00  0.00    -0.351 N 
HETATM   25  C19 UNL     1      -4.495   5.049  26.492  1.00  0.00     0.126 C 
HETATM   26  C22 UNL     1      -2.356   5.793  27.034  1.00  0.00     0.126 C 
HETATM   27  C20 UNL     1      -4.412   5.070  27.982  1.00  0.00     0.021 C 
HETATM   28  C21 UNL     1      -3.155   5.797  28.293  1.00  0.00     0.021 C 
ENDBRANCH  21  22
ENDBRANCH   5  21
BRANCH   1  29
HETATM   29  C6  UNL     1       0.134   0.890  20.610  1.00  0.00     0.002 C 
BRANCH  29  30
HETATM   30  C3  UNL     1      -0.157  -0.235  19.768  1.00  0.00    -0.012 C 
HETATM   31  C4  UNL     1      -1.562  -0.596  19.452  1.00  0.00     0.023 C 
HETATM   32  C5  UNL     1       0.736  -1.419  20.113  1.00  0.00     0.023 C 
BRANCH  30  33
HETATM   33  C2  UNL     1       0.394   0.143  18.338  1.00  0.00    -0.024 C 
HETATM   34  C1  UNL     1       1.368   0.989  18.216  1.00  0.00     0.008 C 
ENDBRANCH  30  33
ENDBRANCH  29  30
ENDBRANCH   1  29
BRANCH   7  35
HETATM   35  C25 UNL     1       0.231   1.235  25.720  1.00  0.00     0.077 C 
HETATM   36  C26 UNL     1      -0.782   0.118  25.864  1.00  0.00     0.051 C 
BRANCH  35  37
HETATM   37  O3  UNL     1       1.509   0.819  25.405  1.00  0.00    -0.386 OA
ATOM     38  H3  UNL     1       1.617   0.415  24.552  1.00  0.00     0.211 HD
ENDBRANCH  35  37
BRANCH  35  39
HETATM   39  C27 UNL     1       0.409   1.692  27.216  1.00  0.00     0.015 C 
HETATM   40  C28 UNL     1       0.528   0.465  28.065  1.00  0.00     0.013 C 
HETATM   41  C29 UNL     1      -0.681   2.607  27.617  1.00  0.00     0.013 C 
ENDBRANCH  35  39
ENDBRANCH   7  35
TORSDOF 11
ENDMDL
MODEL 2
REMARK VINA RESULT: -7.583716300      2.470      8.737
REMARK  11 active torsions:
REMARK  status: ('A' for Active; 'I' for Inactive)
REMARK    1  A    between atoms: C2_2  and  C3_3 
REMARK    2  A    between atoms: C3_3  and  C6_6 
REMARK    3  A    between atoms: C6_6  and  C7_7 
REMARK    4  A    between atoms: C10_10  and  C11_11 
REMARK    5  A    between atoms: C11_11  and  C12_12 
REMARK    6  A    between atoms: C12_12  and  C13_13 
REMARK    7  A    between atoms: N3_22  and  C17_23 
REMARK    8  A    between atoms: C17_23  and  C18_24 
REMARK       I    between atoms: C18_24  and  N4_26 
REMARK    9  A    between atoms: C24_32  and  C25_33 
REMARK   10  A    between atoms: C25_33  and  O3_35 
REMARK   11  A    between atoms: C25_33  and  C27_37 
ROOT
HETATM    1  C7  UNL     1      -1.951   4.164  26.178  1.00  0.00     0.025 A 
HETATM    2  C8  UNL     1      -1.037   3.206  26.447  1.00  0.00    -0.005 A 
HETATM    3  C9  UNL     1      -0.895   2.775  27.709  1.00  0.00     0.026 C 
HETATM    4  C10 UNL     1      -0.411   2.420  25.419  1.00  0.00     0.042 A 
HETATM    5  N3  UNL     1      -0.771   2.648  24.148  1.00  0.00    -0.335 N 
HETATM    6  C23 UNL     1      -1.705   3.602  23.786  1.00  0.00     0.086 A 
HETATM    7  C24 UNL     1      -1.991   3.822  22.546  1.00  0.00     0.044 C 
HETATM    8  C30 UNL     1      -2.257   4.319  24.801  1.00  0.00     0.209 A 
HETATM    9  O4  UNL     1      -3.095   5.181  24.531  1.00  0.00    -0.285 OA
ENDROOT
BRANCH   4  10
HETATM   10  C11 UNL     1       0.520   1.635  25.808  1.00  0.00     0.008 C 
BRANCH  10  11
HETATM   11  C12 UNL     1       0.698   0.232  26.124  1.00  0.00     0.075 C 
BRANCH  11  12
HETATM   12  C13 UNL     1       2.101  -0.239  25.846  1.00  0.00     0.038 A 
HETATM   13  C14 UNL     1       2.544  -0.872  24.728  1.00  0.00     0.034 A 
HETATM   14  C15 UNL     1       1.768  -1.245  23.528  1.00  0.00     0.070 C 
HETATM   15  N1  UNL     1       3.872  -1.131  24.863  1.00  0.00    -0.302 N 
HETATM   16  N2  UNL     1       4.232  -0.666  26.040  1.00  0.00    -0.266 N 
ATOM     17  H1  UNL     1       4.474  -1.594  24.182  1.00  0.00     0.186 HD
HETATM   18  C16 UNL     1       3.164  -0.106  26.679  1.00  0.00     0.268 A 
ATOM     19  H2  UNL     1       5.176  -0.717  26.421  1.00  0.00     0.190 HD
HETATM   20  O1  UNL     1       3.199   0.427  27.833  1.00  0.00    -0.266 OA
ENDBRANCH  11  12
ENDBRANCH  10  11
ENDBRANCH   4  10
BRANCH   5  21
HETATM   21  C17 UNL     1      -0.237   1.926  23.026  1.00  0.00     0.232 C 
BRANCH  21  22
HETATM   22  C18 UNL     1      -1.095   0.760  22.641  1.00  0.00     0.238 C 
HETATM   23  O2  UNL     1      -1.941   0.379  23.480  1.00  0.00    -0.272 OA
HETATM   24  N4  UNL     1      -0.980   0.099  21.401  1.00  0.00    -0.351 N 
HETATM   25  C19 UNL     1      -1.808  -1.035  21.021  1.00  0.00     0.126 C 
HETATM   26  C22 UNL     1      -0.090   0.368  20.314  1.00  0.00     0.126 C 
HETATM   27  C20 UNL     1      -1.852  -1.020  19.528  1.00  0.00     0.021 C 
HETATM   28  C21 UNL     1      -0.596  -0.348  19.108  1.00  0.00     0.021 C 
ENDBRANCH  21  22
ENDBRANCH   5  21
BRANCH   1  29
HETATM   29  C6  UNL     1      -2.414   5.085  26.968  1.00  0.00     0.002 C 
BRANCH  29  30
HETATM   30  C3  UNL     1      -3.419   5.380  27.949  1.00  0.00    -0.012 C 
HETATM   31  C4  UNL     1      -3.898   4.324  28.877  1.00  0.00     0.023 C 
HETATM   32  C5  UNL     1      -4.522   6.245  27.357  1.00  0.00     0.023 C 
BRANCH  30  33
HETATM   33  C2  UNL     1      -2.755   6.397  28.957  1.00  0.00    -0.024 C 
HETATM   34  C1  UNL     1      -1.468   6.549  28.977  1.00  0.00     0.008 C 
ENDBRANCH  30  33
ENDBRANCH  29  30
ENDBRANCH   1  29
BRANCH   7  35
HETATM   35  C25 UNL     1      -2.921   4.749  21.882  1.00  0.00     0.077 C 
HETATM   36  C26 UNL     1      -4.335   4.215  21.795  1.00  0.00     0.051 C 
BRANCH  35  37
HETATM   37  O3  UNL     1      -2.826   6.074  22.256  1.00  0.00    -0.386 OA
ATOM     38  H3  UNL     1      -3.476   6.659  21.886  1.00  0.00     0.211 HD
ENDBRANCH  35  37
BRANCH  35  39
HETATM   39  C27 UNL     1      -2.519   4.820  20.362  1.00  0.00     0.015 C 
HETATM   40  C28 UNL     1      -1.736   3.588  20.031  1.00  0.00     0.013 C 
HETATM   41  C29 UNL     1      -1.816   6.087  20.065  1.00  0.00     0.013 C 
ENDBRANCH  35  39
ENDBRANCH   7  35
TORSDOF 11
ENDMDL
MODEL 3
REMARK VINA RESULT: -7.469096906      2.433      8.850
REMARK  11 active torsions:
REMARK  status: ('A' for Active; 'I' for Inactive)
REMARK    1  A    between atoms: C2_2  and  C3_3 
REMARK    2  A    between atoms: C3_3  and  C6_6 
REMARK    3  A    between atoms: C6_6  and  C7_7 
REMARK    4  A    between atoms: C10_10  and  C11_11 
REMARK    5  A    between atoms: C11_11  and  C12_12 
REMARK    6  A    between atoms: C12_12  and  C13_13 
REMARK    7  A    between atoms: N3_22  and  C17_23 
REMARK    8  A    between atoms: C17_23  and  C18_24 
REMARK       I    between atoms: C18_24  and  N4_26 
REMARK    9  A    between atoms: C24_32  and  C25_33 
REMARK   10  A    between atoms: C25_33  and  O3_35 
REMARK   11  A    between atoms: C25_33  and  C27_37 
ROOT
HETATM    1  C7  UNL     1      -2.279   4.027  26.246  1.00  0.00     0.025 A 
HETATM    2  C8  UNL     1      -1.192   3.250  26.448  1.00  0.00    -0.005 A 
HETATM    3  C9  UNL     1      -0.965   2.752  27.672  1.00  0.00     0.026 C 
HETATM    4  C10 UNL     1      -0.424   2.695  25.368  1.00  0.00     0.042 A 
HETATM    5  N3  UNL     1      -0.824   2.953  24.115  1.00  0.00    -0.335 N 
HETATM    6  C23 UNL     1      -1.929   3.730  23.820  1.00  0.00     0.086 A 
HETATM    7  C24 UNL     1      -2.256   3.994  22.598  1.00  0.00     0.044 C 
HETATM    8  C30 UNL     1      -2.611   4.235  24.882  1.00  0.00     0.209 A 
HETATM    9  O4  UNL     1      -3.605   4.933  24.672  1.00  0.00    -0.285 OA
ENDROOT
BRANCH   4  10
HETATM   10  C11 UNL     1       0.645   2.080  25.705  1.00  0.00     0.008 C 
BRANCH  10  11
HETATM   11  C12 UNL     1       1.218   0.754  25.591  1.00  0.00     0.075 C 
BRANCH  11  12
HETATM   12  C13 UNL     1       1.247   0.033  26.913  1.00  0.00     0.038 A 
HETATM   13  C14 UNL     1       0.240  -0.685  27.476  1.00  0.00     0.034 A 
HETATM   14  C15 UNL     1      -1.112  -0.932  26.933  1.00  0.00     0.070 C 
HETATM   15  N1  UNL     1       0.661  -1.179  28.670  1.00  0.00    -0.302 N 
HETATM   16  N2  UNL     1       1.901  -0.770  28.835  1.00  0.00    -0.266 N 
ATOM     17  H1  UNL     1       0.121  -1.756  29.314  1.00  0.00     0.186 HD
HETATM   18  C16 UNL     1       2.300  -0.017  27.768  1.00  0.00     0.268 A 
ATOM     19  H2  UNL     1       2.481  -0.984  29.644  1.00  0.00     0.190 HD
HETATM   20  O1  UNL     1       3.447   0.517  27.638  1.00  0.00    -0.266 OA
ENDBRANCH  11  12
ENDBRANCH  10  11
ENDBRANCH   4  10
BRANCH   5  21
HETATM   21  C17 UNL     1      -0.159   2.449  22.945  1.00  0.00     0.232 C 
BRANCH  21  22
HETATM   22  C18 UNL     1      -0.771   1.175  22.449  1.00  0.00     0.238 C 
HETATM   23  O2  UNL     1      -1.441   0.511  23.271  1.00  0.00    -0.272 OA
HETATM   24  N4  UNL     1      -0.618   0.716  21.125  1.00  0.00    -0.351 N 
HETATM   25  C19 UNL     1      -1.208  -0.521  20.636  1.00  0.00     0.126 C 
HETATM   26  C22 UNL     1       0.097   1.312  20.039  1.00  0.00     0.126 C 
HETATM   27  C20 UNL     1      -1.379  -0.333  19.165  1.00  0.00     0.021 C 
HETATM   28  C21 UNL     1      -0.339   0.653  18.775  1.00  0.00     0.021 C 
ENDBRANCH  21  22
ENDBRANCH   5  21
BRANCH   1  29
HETATM   29  C6  UNL     1      -2.914   4.769  27.103  1.00  0.00     0.002 C 
BRANCH  29  30
HETATM   30  C3  UNL     1      -2.799   5.456  28.358  1.00  0.00    -0.012 C 
HETATM   31  C4  UNL     1      -1.621   6.315  28.640  1.00  0.00     0.023 C 
HETATM   32  C5  UNL     1      -3.212   4.555  29.513  1.00  0.00     0.023 C 
BRANCH  30  33
HETATM   33  C2  UNL     1      -3.966   6.518  28.379  1.00  0.00    -0.024 C 
HETATM   34  C1  UNL     1      -4.908   6.469  27.490  1.00  0.00     0.008 C 
ENDBRANCH  30  33
ENDBRANCH  29  30
ENDBRANCH   1  29
BRANCH   7  35
HETATM   35  C25 UNL     1      -3.353   4.770  22.000  1.00  0.00     0.077 C 
HETATM   36  C26 UNL     1      -4.697   4.082  22.104  1.00  0.00     0.051 C 
BRANCH  35  37
HETATM   37  O3  UNL     1      -3.369   6.119  22.292  1.00  0.00    -0.386 OA
ATOM     38  H3  UNL     1      -3.727   6.686  21.619  1.00  0.00     0.211 HD
ENDBRANCH  35  37
BRANCH  35  39
HETATM   39  C27 UNL     1      -3.130   4.788  20.442  1.00  0.00     0.015 C 
HETATM   40  C28 UNL     1      -1.711   4.394  20.172  1.00  0.00     0.013 C 
HETATM   41  C29 UNL     1      -3.519   6.095  19.871  1.00  0.00     0.013 C 
ENDBRANCH  35  39
ENDBRANCH   7  35
TORSDOF 11
ENDMDL
MODEL 4
REMARK VINA RESULT: -7.464335243      2.139      6.281
REMARK  11 active torsions:
REMARK  status: ('A' for Active; 'I' for Inactive)
REMARK    1  A    between atoms: C2_2  and  C3_3 
REMARK    2  A    between atoms: C3_3  and  C6_6 
REMARK    3  A    between atoms: C6_6  and  C7_7 
REMARK    4  A    between atoms: C10_10  and  C11_11 
REMARK    5  A    between atoms: C11_11  and  C12_12 
REMARK    6  A    between atoms: C12_12  and  C13_13 
REMARK    7  A    between atoms: N3_22  and  C17_23 
REMARK    8  A    between atoms: C17_23  and  C18_24 
REMARK       I    between atoms: C18_24  and  N4_26 
REMARK    9  A    between atoms: C24_32  and  C25_33 
REMARK   10  A    between atoms: C25_33  and  O3_35 
REMARK   11  A    between atoms: C25_33  and  C27_37 
ROOT
HETATM    1  C7  UNL     1      -1.019   3.123  24.686  1.00  0.00     0.025 A 
HETATM    2  C8  UNL     1      -1.630   3.540  23.555  1.00  0.00    -0.005 A 
HETATM    3  C9  UNL     1      -1.975   4.831  23.438  1.00  0.00     0.026 C 
HETATM    4  C10 UNL     1      -1.675   2.746  22.358  1.00  0.00     0.042 A 
HETATM    5  N3  UNL     1      -1.067   1.551  22.375  1.00  0.00    -0.335 N 
HETATM    6  C23 UNL     1      -0.411   1.052  23.486  1.00  0.00     0.086 A 
HETATM    7  C24 UNL     1       0.124  -0.124  23.477  1.00  0.00     0.044 C 
HETATM    8  C30 UNL     1      -0.410   1.845  24.591  1.00  0.00     0.209 A 
HETATM    9  O4  UNL     1       0.162   1.447  25.607  1.00  0.00    -0.285 OA
ENDROOT
BRANCH   4  10
HETATM   10  C11 UNL     1      -2.387   3.213  21.406  1.00  0.00     0.008 C 
BRANCH  10  11
HETATM   11  C12 UNL     1      -2.198   3.873  20.130  1.00  0.00     0.075 C 
BRANCH  11  12
HETATM   12  C13 UNL     1      -2.691   5.297  20.148  1.00  0.00     0.038 A 
HETATM   13  C14 UNL     1      -3.944   5.724  20.454  1.00  0.00     0.034 A 
HETATM   14  C15 UNL     1      -5.113   4.906  20.840  1.00  0.00     0.070 C 
HETATM   15  N1  UNL     1      -3.987   7.079  20.357  1.00  0.00    -0.302 N 
HETATM   16  N2  UNL     1      -2.783   7.472  19.997  1.00  0.00    -0.266 N 
ATOM     17  H1  UNL     1      -4.795   7.676  20.529  1.00  0.00     0.186 HD
HETATM   18  C16 UNL     1      -1.953   6.397  19.858  1.00  0.00     0.268 A 
ATOM     19  H2  UNL     1      -2.510   8.442  19.843  1.00  0.00     0.190 HD
HETATM   20  O1  UNL     1      -0.728   6.459  19.521  1.00  0.00    -0.266 OA
ENDBRANCH  11  12
ENDBRANCH  10  11
ENDBRANCH   4  10
BRANCH   5  21
HETATM   21  C17 UNL     1      -1.021   0.663  21.247  1.00  0.00     0.232 C 
BRANCH  21  22
HETATM   22  C18 UNL     1       0.260   0.786  20.480  1.00  0.00     0.238 C 
HETATM   23  O2  UNL     1       0.655   1.944  20.219  1.00  0.00    -0.272 OA
HETATM   24  N4  UNL     1       1.010  -0.330  20.054  1.00  0.00    -0.351 N 
HETATM   25  C19 UNL     1       2.254  -0.218  19.307  1.00  0.00     0.126 C 
HETATM   26  C22 UNL     1       0.742  -1.723  20.243  1.00  0.00     0.126 C 
HETATM   27  C20 UNL     1       3.019  -1.464  19.610  1.00  0.00     0.021 C 
HETATM   28  C21 UNL     1       1.990  -2.482  19.943  1.00  0.00     0.021 C 
ENDBRANCH  21  22
ENDBRANCH   5  21
BRANCH   1  29
HETATM   29  C6  UNL     1      -1.101   3.625  25.882  1.00  0.00     0.002 C 
BRANCH  29  30
HETATM   30  C3  UNL     1      -1.938   3.736  27.042  1.00  0.00    -0.012 C 
HETATM   31  C4  UNL     1      -1.383   3.489  28.397  1.00  0.00     0.023 C 
HETATM   32  C5  UNL     1      -3.300   3.104  26.794  1.00  0.00     0.023 C 
BRANCH  30  33
HETATM   33  C2  UNL     1      -2.334   5.261  27.145  1.00  0.00    -0.024 C 
HETATM   34  C1  UNL     1      -3.481   5.668  26.702  1.00  0.00     0.008 C 
ENDBRANCH  30  33
ENDBRANCH  29  30
ENDBRANCH   1  29
BRANCH   7  35
HETATM   35  C25 UNL     1       0.867  -0.894  24.486  1.00  0.00     0.077 C 
HETATM   36  C26 UNL     1       2.269  -0.371  24.722  1.00  0.00     0.051 C 
BRANCH  35  37
HETATM   37  O3  UNL     1       0.172  -1.221  25.632  1.00  0.00    -0.386 OA
ATOM     38  H3  UNL     1       0.413  -2.041  26.046  1.00  0.00     0.211 HD
ENDBRANCH  35  37
BRANCH  35  39
HETATM   39  C27 UNL     1       1.161  -2.316  23.879  1.00  0.00     0.015 C 
HETATM   40  C28 UNL     1       0.530  -3.340  24.769  1.00  0.00     0.013 C 
HETATM   41  C29 UNL     1       2.612  -2.505  23.666  1.00  0.00     0.013 C 
ENDBRANCH  35  39
ENDBRANCH   7  35
TORSDOF 11
ENDMDL
MODEL 5
REMARK VINA RESULT: -7.447189239      1.896      2.840
REMARK  11 active torsions:
REMARK  status: ('A' for Active; 'I' for Inactive)
REMARK    1  A    between atoms: C2_2  and  C3_3 
REMARK    2  A    between atoms: C3_3  and  C6_6 
REMARK    3  A    between atoms: C6_6  and  C7_7 
REMARK    4  A    between atoms: C10_10  and  C11_11 
REMARK    5  A    between atoms: C11_11  and  C12_12 
REMARK    6  A    between atoms: C12_12  and  C13_13 
REMARK    7  A    between atoms: N3_22  and  C17_23 
REMARK    8  A    between atoms: C17_23  and  C18_24 
REMARK       I    between atoms: C18_24  and  N4_26 
REMARK    9  A    between atoms: C24_32  and  C25_33 
REMARK   10  A    between atoms: C25_33  and  O3_35 
REMARK   11  A    between atoms: C25_33  and  C27_37 
ROOT
HETATM    1  C7  UNL     1      -0.027   0.201  21.169  1.00  0.00     0.025 A 
HETATM    2  C8  UNL     1      -0.794   1.312  21.225  1.00  0.00    -0.005 A 
HETATM    3  C9  UNL     1      -1.681   1.543  20.246  1.00  0.00     0.026 C 
HETATM    4  C10 UNL     1      -0.917   2.110  22.414  1.00  0.00     0.042 A 
HETATM    5  N3  UNL     1      -0.250   1.714  23.507  1.00  0.00    -0.335 N 
HETATM    6  C23 UNL     1       0.548   0.585  23.539  1.00  0.00     0.086 A 
HETATM    7  C24 UNL     1       1.211   0.262  24.600  1.00  0.00     0.044 C 
HETATM    8  C30 UNL     1       0.632  -0.125  22.382  1.00  0.00     0.209 A 
HETATM    9  O4  UNL     1       1.331  -1.140  22.358  1.00  0.00    -0.285 OA
ENDROOT
BRANCH   4  10
HETATM   10  C11 UNL     1      -1.579   3.196  22.289  1.00  0.00     0.008 C 
BRANCH  10  11
HETATM   11  C12 UNL     1      -1.322   4.612  22.122  1.00  0.00     0.075 C 
BRANCH  11  12
HETATM   12  C13 UNL     1      -2.537   5.356  21.632  1.00  0.00     0.038 A 
HETATM   13  C14 UNL     1      -2.573   6.325  20.680  1.00  0.00     0.034 A 
HETATM   14  C15 UNL     1      -1.444   6.876  19.902  1.00  0.00     0.070 C 
HETATM   15  N1  UNL     1      -3.856   6.744  20.523  1.00  0.00    -0.302 N 
HETATM   16  N2  UNL     1      -4.589   6.047  21.364  1.00  0.00    -0.266 N 
ATOM     17  H1  UNL     1      -4.187   7.461  19.878  1.00  0.00     0.186 HD
HETATM   18  C16 UNL     1      -3.809   5.176  22.068  1.00  0.00     0.268 A 
ATOM     19  H2  UNL     1      -5.598   6.143  21.474  1.00  0.00     0.190 HD
HETATM   20  O1  UNL     1      -4.231   4.368  22.954  1.00  0.00    -0.266 OA
ENDBRANCH  11  12
ENDBRANCH  10  11
ENDBRANCH   4  10
BRANCH   5  21
HETATM   21  C17 UNL     1      -0.296   2.408  24.765  1.00  0.00     0.232 C 
BRANCH  21  22
HETATM   22  C18 UNL     1      -1.631   2.284  25.433  1.00  0.00     0.238 C 
HETATM   23  O2  UNL     1      -2.054   1.125  25.642  1.00  0.00    -0.272 OA
HETATM   24  N4  UNL     1      -2.401   3.399  25.821  1.00  0.00    -0.351 N 
HETATM   25  C19 UNL     1      -3.699   3.287  26.469  1.00  0.00     0.126 C 
HETATM   26  C22 UNL     1      -2.109   4.792  25.678  1.00  0.00     0.126 C 
HETATM   27  C20 UNL     1      -3.866   4.543  27.260  1.00  0.00     0.021 C 
HETATM   28  C21 UNL     1      -3.038   5.557  26.559  1.00  0.00     0.021 C 
ENDBRANCH  21  22
ENDBRANCH   5  21
BRANCH   1  29
HETATM   29  C6  UNL     1       0.351  -0.469  20.121  1.00  0.00     0.002 C 
BRANCH  29  30
HETATM   30  C3  UNL     1       1.231  -0.456  18.987  1.00  0.00    -0.012 C 
HETATM   31  C4  UNL     1       2.475  -1.266  18.991  1.00  0.00     0.023 C 
HETATM   32  C5  UNL     1       1.400   0.955  18.444  1.00  0.00     0.023 C 
BRANCH  30  33
HETATM   33  C2  UNL     1       0.427  -1.132  17.809  1.00  0.00    -0.024 C 
HETATM   34  C1  UNL     1      -0.680  -0.607  17.389  1.00  0.00     0.008 C 
ENDBRANCH  30  33
ENDBRANCH  29  30
ENDBRANCH   1  29
BRANCH   7  35
HETATM   35  C25 UNL     1       2.115  -0.855  24.915  1.00  0.00     0.077 C 
HETATM   36  C26 UNL     1       1.392  -2.169  25.117  1.00  0.00     0.051 C 
BRANCH  35  37
HETATM   37  O3  UNL     1       3.263  -0.938  24.153  1.00  0.00    -0.386 OA
ATOM     38  H3  UNL     1       4.006  -0.434  24.463  1.00  0.00     0.211 HD
ENDBRANCH  35  37
BRANCH  35  39
HETATM   39  C27 UNL     1       2.707  -0.598  26.350  1.00  0.00     0.015 C 
HETATM   40  C28 UNL     1       2.389   0.812  26.738  1.00  0.00     0.013 C 
HETATM   41  C29 UNL     1       4.147  -0.932  26.391  1.00  0.00     0.013 C 
ENDBRANCH  35  39
ENDBRANCH   7  35
TORSDOF 11
ENDMDL
