MODEL 1
REMARK VINA RESULT: -6.965538402      0.000      0.000
REMARK  7 active torsions:
REMARK  status: ('A' for Active; 'I' for Inactive)
REMARK    1  A    between atoms: C2_2  and  N1_3 
REMARK       I    between atoms: N3_14  and  C10_15 
REMARK    2  A    between atoms: C10_15  and  C11_17 
REMARK    3  A    between atoms: C11_17  and  N4_18 
REMARK       I    between atoms: N4_18  and  C12_20 
REMARK    4  A    between atoms: C12_20  and  C13_22 
REMARK    5  A    between atoms: C13_22  and  N5_23 
REMARK    6  A    between atoms: N6_26  and  C16_27 
REMARK    7  A    between atoms: C16_27  and  C17_28 
ROOT
HETATM    1  N1  UNL     1      -1.969   5.154  20.813  1.00  0.00    -0.062 N 
HETATM    2  C3  UNL     1      -2.992   6.049  21.213  1.00  0.00     0.265 C 
HETATM    3  C4  UNL     1      -4.365   5.756  20.677  1.00  0.00     0.260 C 
HETATM    4  N2  UNL     1      -5.350   5.494  21.712  1.00  0.00    -0.074 N 
ATOM      5  H21 UNL     1      -6.030   6.253  21.755  1.00  0.00     0.277 HD
ATOM      6  H22 UNL     1      -4.927   5.585  22.636  1.00  0.00     0.277 HD
HETATM    7  C5  UNL     1      -6.015   4.239  21.593  1.00  0.00     0.232 C 
HETATM    8  C6  UNL     1      -5.859   3.327  22.789  1.00  0.00     0.027 C 
HETATM    9  C7  UNL     1      -5.159   2.032  22.465  1.00  0.00     0.003 C 
HETATM   10  C8  UNL     1      -3.969   1.742  23.316  1.00  0.00     0.020 C 
HETATM   11  C9  UNL     1      -2.700   1.446  22.532  1.00  0.00     0.126 C 
HETATM   12  N3  UNL     1      -1.711   2.515  22.743  1.00  0.00    -0.343 N 
HETATM   13  C10 UNL     1      -0.467   2.219  23.351  1.00  0.00     0.237 C 
HETATM   14  O1  UNL     1       0.360   3.144  23.524  1.00  0.00    -0.272 OA
HETATM   15  C22 UNL     1      -2.100   3.798  22.310  1.00  0.00     0.139 C 
HETATM   16  C23 UNL     1      -2.311   3.761  20.822  1.00  0.00     0.264 C 
HETATM   17  C24 UNL     1      -1.063   4.786  21.927  1.00  0.00     0.264 C 
ENDROOT
BRANCH  13  18
HETATM   18  C11 UNL     1      -0.088   0.861  23.794  1.00  0.00     0.225 C 
BRANCH  18  19
HETATM   19  N4  UNL     1       0.801   0.218  22.855  1.00  0.00    -0.351 N 
HETATM   20  C12 UNL     1       0.475  -1.034  22.236  1.00  0.00     0.244 C 
HETATM   21  O2  UNL     1      -0.618  -1.540  22.551  1.00  0.00    -0.272 OA
ATOM     22  H4  UNL     1       1.686   0.667  22.625  1.00  0.00     0.163 HD
BRANCH  20  23
HETATM   23  C13 UNL     1       1.391  -1.671  21.285  1.00  0.00     0.339 C 
BRANCH  23  24
HETATM   24  N5  UNL     1       0.973  -1.714  19.931  1.00  0.00    -0.054 N 
HETATM   25  C14 UNL     1       0.512  -0.451  19.385  1.00  0.00     0.266 C 
HETATM   26  C15 UNL     1       0.723  -0.498  17.880  1.00  0.00     0.266 C 
HETATM   27  N6  UNL     1       0.556  -1.908  17.419  1.00  0.00    -0.054 N 
HETATM   28  C18 UNL     1       1.790  -2.575  17.767  1.00  0.00     0.266 C 
HETATM   29  C20 UNL     1      -0.535  -2.426  18.233  1.00  0.00     0.266 C 
HETATM   30  C19 UNL     1       2.184  -2.042  19.140  1.00  0.00     0.266 C 
HETATM   31  C21 UNL     1       0.010  -2.756  19.625  1.00  0.00     0.266 C 
BRANCH  27  32
HETATM   32  C16 UNL     1       0.250  -1.888  16.034  1.00  0.00     0.336 C 
BRANCH  32  33
HETATM   33  C17 UNL     1      -1.138  -1.756  15.635  1.00  0.00     0.257 C 
HETATM   34  N7  UNL     1      -2.030  -2.790  15.279  1.00  0.00    -0.061 NA
HETATM   35  O3  UNL     1      -1.636  -0.560  15.594  1.00  0.00    -0.275 OA
ENDBRANCH  32  33
ENDBRANCH  27  32
ENDBRANCH  23  24
ENDBRANCH  20  23
ENDBRANCH  18  19
ENDBRANCH  13  18
BRANCH   1  36
HETATM   36  C2  UNL     1      -1.235   5.488  19.620  1.00  0.00     0.233 C 
HETATM   37  C1  UNL     1      -0.937   6.943  19.468  1.00  0.00     0.035 C 
ENDBRANCH   1  36
TORSDOF 7
ENDMDL
MODEL 2
REMARK VINA RESULT: -6.518171210      6.361      9.225
REMARK  7 active torsions:
REMARK  status: ('A' for Active; 'I' for Inactive)
REMARK    1  A    between atoms: C2_2  and  N1_3 
REMARK       I    between atoms: N3_14  and  C10_15 
REMARK    2  A    between atoms: C10_15  and  C11_17 
REMARK    3  A    between atoms: C11_17  and  N4_18 
REMARK       I    between atoms: N4_18  and  C12_20 
REMARK    4  A    between atoms: C12_20  and  C13_22 
REMARK    5  A    between atoms: C13_22  and  N5_23 
REMARK    6  A    between atoms: N6_26  and  C16_27 
REMARK    7  A    between atoms: C16_27  and  C17_28 
ROOT
HETATM    1  N1  UNL     1      -3.996   4.403  32.015  1.00  0.00    -0.062 N 
HETATM    2  C3  UNL     1      -4.302   5.714  32.456  1.00  0.00     0.265 C 
HETATM    3  C4  UNL     1      -3.157   6.490  33.044  1.00  0.00     0.260 C 
HETATM    4  N2  UNL     1      -2.849   7.711  32.319  1.00  0.00    -0.074 N 
ATOM      5  H21 UNL     1      -3.090   8.527  32.881  1.00  0.00     0.277 HD
ATOM      6  H22 UNL     1      -3.497   7.836  31.542  1.00  0.00     0.277 HD
HETATM    7  C5  UNL     1      -1.501   7.804  31.862  1.00  0.00     0.232 C 
HETATM    8  C6  UNL     1      -1.354   7.962  30.365  1.00  0.00     0.027 C 
HETATM    9  C7  UNL     1      -0.606   6.825  29.716  1.00  0.00     0.003 C 
HETATM   10  C8  UNL     1      -1.335   6.168  28.593  1.00  0.00     0.020 C 
HETATM   11  C9  UNL     1      -1.464   4.659  28.735  1.00  0.00     0.126 C 
HETATM   12  N3  UNL     1      -2.874   4.287  28.936  1.00  0.00    -0.343 N 
HETATM   13  C10 UNL     1      -3.531   3.465  27.989  1.00  0.00     0.237 C 
HETATM   14  O1  UNL     1      -4.732   3.162  28.177  1.00  0.00    -0.272 OA
HETATM   15  C22 UNL     1      -3.480   4.801  30.099  1.00  0.00     0.139 C 
HETATM   16  C23 UNL     1      -2.763   4.249  31.300  1.00  0.00     0.264 C 
HETATM   17  C24 UNL     1      -4.621   4.079  30.710  1.00  0.00     0.264 C 
ENDROOT
BRANCH  13  18
HETATM   18  C11 UNL     1      -2.867   2.939  26.777  1.00  0.00     0.225 C 
BRANCH  18  19
HETATM   19  N4  UNL     1      -3.521   3.386  25.570  1.00  0.00    -0.351 N 
HETATM   20  C12 UNL     1      -3.582   2.570  24.393  1.00  0.00     0.244 C 
HETATM   21  O2  UNL     1      -3.041   1.451  24.465  1.00  0.00    -0.272 OA
ATOM     22  H4  UNL     1      -3.952   4.310  25.553  1.00  0.00     0.163 HD
BRANCH  20  23
HETATM   23  C13 UNL     1      -4.251   3.041  23.177  1.00  0.00     0.339 C 
BRANCH  23  24
HETATM   24  N5  UNL     1      -3.481   3.845  22.298  1.00  0.00    -0.054 N 
HETATM   25  C14 UNL     1      -2.317   3.195  21.725  1.00  0.00     0.266 C 
HETATM   26  C15 UNL     1      -2.007   3.888  20.407  1.00  0.00     0.266 C 
HETATM   27  N6  UNL     1      -2.398   5.324  20.520  1.00  0.00    -0.054 N 
HETATM   28  C18 UNL     1      -3.836   5.345  20.370  1.00  0.00     0.266 C 
HETATM   29  C20 UNL     1      -2.035   5.690  21.883  1.00  0.00     0.266 C 
HETATM   30  C19 UNL     1      -4.356   4.134  21.136  1.00  0.00     0.266 C 
HETATM   31  C21 UNL     1      -3.101   5.139  22.834  1.00  0.00     0.266 C 
BRANCH  27  32
HETATM   32  C16 UNL     1      -1.679   6.057  19.542  1.00  0.00     0.336 C 
BRANCH  32  33
HETATM   33  C17 UNL     1      -1.679   7.505  19.626  1.00  0.00     0.257 C 
HETATM   34  N7  UNL     1      -2.753   8.380  19.355  1.00  0.00    -0.061 NA
HETATM   35  O3  UNL     1      -0.576   8.081  19.989  1.00  0.00    -0.275 OA
ENDBRANCH  32  33
ENDBRANCH  27  32
ENDBRANCH  23  24
ENDBRANCH  20  23
ENDBRANCH  18  19
ENDBRANCH  13  18
BRANCH   1  36
HETATM   36  C2  UNL     1      -4.169   3.336  32.965  1.00  0.00     0.233 C 
HETATM   37  C1  UNL     1      -2.893   2.748  33.471  1.00  0.00     0.035 C 
ENDBRANCH   1  36
TORSDOF 7
ENDMDL
MODEL 3
REMARK VINA RESULT: -6.439724119      3.012      8.677
REMARK  7 active torsions:
REMARK  status: ('A' for Active; 'I' for Inactive)
REMARK    1  A    between atoms: C2_2  and  N1_3 
REMARK       I    between atoms: N3_14  and  C10_15 
REMARK    2  A    between atoms: C10_15  and  C11_17 
REMARK    3  A    between atoms: C11_17  and  N4_18 
REMARK       I    between atoms: N4_18  and  C12_20 
REMARK    4  A    between atoms: C12_20  and  C13_22 
REMARK    5  A    between atoms: C13_22  and  N5_23 
REMARK    6  A    between atoms: N6_26  and  C16_27 
REMARK    7  A    between atoms: C16_27  and  C17_28 
ROOT
HETATM    1  N1  UNL     1       2.510  -2.721  19.936  1.00  0.00    -0.062 N 
HETATM    2  C3  UNL     1       3.092  -3.458  18.875  1.00  0.00     0.265 C 
HETATM    3  C4  UNL     1       2.312  -4.653  18.403  1.00  0.00     0.260 C 
HETATM    4  N2  UNL     1       1.914  -4.573  17.008  1.00  0.00    -0.074 N 
ATOM      5  H21 UNL     1       2.422  -5.262  16.454  1.00  0.00     0.277 HD
ATOM      6  H22 UNL     1       2.267  -3.714  16.587  1.00  0.00     0.277 HD
HETATM    7  C5  UNL     1       0.511  -4.694  16.785  1.00  0.00     0.232 C 
HETATM    8  C6  UNL     1      -0.120  -3.512  16.085  1.00  0.00     0.027 C 
HETATM    9  C7  UNL     1      -1.167  -2.815  16.917  1.00  0.00     0.003 C 
HETATM   10  C8  UNL     1      -0.945  -1.351  17.091  1.00  0.00     0.020 C 
HETATM   11  C9  UNL     1      -0.945  -0.890  18.540  1.00  0.00     0.126 C 
HETATM   12  N3  UNL     1       0.398  -0.425  18.925  1.00  0.00    -0.343 N 
HETATM   13  C10 UNL     1       0.595   0.920  19.319  1.00  0.00     0.237 C 
HETATM   14  O1  UNL     1       1.746   1.296  19.640  1.00  0.00    -0.272 OA
HETATM   15  C22 UNL     1       1.418  -1.395  18.866  1.00  0.00     0.139 C 
HETATM   16  C23 UNL     1       1.097  -2.492  19.843  1.00  0.00     0.264 C 
HETATM   17  C24 UNL     1       2.610  -1.256  19.735  1.00  0.00     0.264 C 
ENDROOT
BRANCH  13  18
HETATM   18  C11 UNL     1      -0.497   1.915  19.372  1.00  0.00     0.225 C 
BRANCH  18  19
HETATM   19  N4  UNL     1      -1.132   1.946  20.668  1.00  0.00    -0.351 N 
HETATM   20  C12 UNL     1      -0.903   3.011  21.600  1.00  0.00     0.244 C 
HETATM   21  O2  UNL     1      -0.125   3.912  21.233  1.00  0.00    -0.272 OA
ATOM     22  H4  UNL     1      -1.762   1.188  20.929  1.00  0.00     0.163 HD
BRANCH  20  23
HETATM   23  C13 UNL     1      -1.557   3.026  22.912  1.00  0.00     0.339 C 
BRANCH  23  24
HETATM   24  N5  UNL     1      -0.820   2.485  23.996  1.00  0.00    -0.054 N 
HETATM   25  C14 UNL     1      -1.022   3.147  25.272  1.00  0.00     0.266 C 
HETATM   26  C15 UNL     1      -0.726   2.134  26.366  1.00  0.00     0.266 C 
HETATM   27  N6  UNL     1       0.333   1.201  25.879  1.00  0.00    -0.054 N 
HETATM   28  C18 UNL     1      -0.344   0.278  24.995  1.00  0.00     0.266 C 
HETATM   29  C20 UNL     1       1.236   2.050  25.113  1.00  0.00     0.266 C 
HETATM   30  C19 UNL     1      -1.344   1.113  24.202  1.00  0.00     0.266 C 
HETATM   31  C21 UNL     1       0.601   2.330  23.748  1.00  0.00     0.266 C 
BRANCH  27  32
HETATM   32  C16 UNL     1       0.956   0.609  27.007  1.00  0.00     0.336 C 
BRANCH  32  33
HETATM   33  C17 UNL     1       2.260  -0.002  26.834  1.00  0.00     0.257 C 
HETATM   34  N7  UNL     1       2.576  -1.150  26.077  1.00  0.00    -0.061 NA
HETATM   35  O3  UNL     1       3.264   0.556  27.436  1.00  0.00    -0.275 OA
ENDBRANCH  32  33
ENDBRANCH  27  32
ENDBRANCH  23  24
ENDBRANCH  20  23
ENDBRANCH  18  19
ENDBRANCH  13  18
BRANCH   1  36
HETATM   36  C2  UNL     1       2.876  -3.100  21.276  1.00  0.00     0.233 C 
HETATM   37  C1  UNL     1       2.198  -2.311  22.346  1.00  0.00     0.035 C 
ENDBRANCH   1  36
TORSDOF 7
ENDMDL
MODEL 4
REMARK VINA RESULT: -6.426810592      3.515      5.824
REMARK  7 active torsions:
REMARK  status: ('A' for Active; 'I' for Inactive)
REMARK    1  A    between atoms: C2_2  and  N1_3 
REMARK       I    between atoms: N3_14  and  C10_15 
REMARK    2  A    between atoms: C10_15  and  C11_17 
REMARK    3  A    between atoms: C11_17  and  N4_18 
REMARK       I    between atoms: N4_18  and  C12_20 
REMARK    4  A    between atoms: C12_20  and  C13_22 
REMARK    5  A    between atoms: C13_22  and  N5_23 
REMARK    6  A    between atoms: N6_26  and  C16_27 
REMARK    7  A    between atoms: C16_27  and  C17_28 
ROOT
HETATM    1  N1  UNL     1      -0.123   1.180  27.300  1.00  0.00    -0.062 N 
HETATM    2  C3  UNL     1      -0.773   1.212  28.559  1.00  0.00     0.265 C 
HETATM    3  C4  UNL     1      -0.505   2.426  29.402  1.00  0.00     0.260 C 
HETATM    4  N2  UNL     1      -1.699   3.194  29.711  1.00  0.00    -0.074 N 
ATOM      5  H21 UNL     1      -1.922   3.120  30.703  1.00  0.00     0.277 HD
ATOM      6  H22 UNL     1      -2.523   2.745  29.312  1.00  0.00     0.277 HD
HETATM    7  C5  UNL     1      -1.641   4.563  29.316  1.00  0.00     0.232 C 
HETATM    8  C6  UNL     1      -2.726   4.987  28.351  1.00  0.00     0.027 C 
HETATM    9  C7  UNL     1      -2.192   5.456  27.022  1.00  0.00     0.003 C 
HETATM   10  C8  UNL     1      -2.770   4.754  25.840  1.00  0.00     0.020 C 
HETATM   11  C9  UNL     1      -1.732   4.161  24.899  1.00  0.00     0.126 C 
HETATM   12  N3  UNL     1      -1.804   2.692  24.924  1.00  0.00    -0.343 N 
HETATM   13  C10 UNL     1      -2.132   1.979  23.745  1.00  0.00     0.237 C 
HETATM   14  O1  UNL     1      -2.190   0.729  23.788  1.00  0.00    -0.272 OA
HETATM   15  C22 UNL     1      -1.534   2.089  26.168  1.00  0.00     0.139 C 
HETATM   16  C23 UNL     1      -0.119   2.410  26.561  1.00  0.00     0.264 C 
HETATM   17  C24 UNL     1      -1.010   0.703  26.212  1.00  0.00     0.264 C 
ENDROOT
BRANCH  13  18
HETATM   18  C11 UNL     1      -2.409   2.641  22.453  1.00  0.00     0.225 C 
BRANCH  18  19
HETATM   19  N4  UNL     1      -1.950   1.851  21.335  1.00  0.00    -0.351 N 
HETATM   20  C12 UNL     1      -0.723   2.143  20.652  1.00  0.00     0.244 C 
HETATM   21  O2  UNL     1      -0.072   3.117  21.073  1.00  0.00    -0.272 OA
ATOM     22  H4  UNL     1      -2.514   1.062  21.022  1.00  0.00     0.163 HD
BRANCH  20  23
HETATM   23  C13 UNL     1      -0.274   1.329  19.519  1.00  0.00     0.339 C 
BRANCH  23  24
HETATM   24  N5  UNL     1       0.590   0.244  19.817  1.00  0.00    -0.054 N 
HETATM   25  C14 UNL     1       0.721  -0.072  21.228  1.00  0.00     0.266 C 
HETATM   26  C15 UNL     1       1.101  -1.540  21.335  1.00  0.00     0.266 C 
HETATM   27  N6  UNL     1       1.926  -1.907  20.146  1.00  0.00    -0.054 N 
HETATM   28  C18 UNL     1       0.984  -2.072  19.061  1.00  0.00     0.266 C 
HETATM   29  C20 UNL     1       2.757  -0.735  19.909  1.00  0.00     0.266 C 
HETATM   30  C19 UNL     1      -0.044  -0.958  19.224  1.00  0.00     0.266 C 
HETATM   31  C21 UNL     1       1.907   0.332  19.214  1.00  0.00     0.266 C 
BRANCH  27  32
HETATM   32  C16 UNL     1       2.680  -3.063  20.470  1.00  0.00     0.336 C 
BRANCH  32  33
HETATM   33  C17 UNL     1       3.891  -3.331  19.717  1.00  0.00     0.257 C 
HETATM   34  N7  UNL     1       5.219  -3.041  20.097  1.00  0.00    -0.061 NA
HETATM   35  O3  UNL     1       3.760  -3.902  18.561  1.00  0.00    -0.275 OA
ENDBRANCH  32  33
ENDBRANCH  27  32
ENDBRANCH  23  24
ENDBRANCH  20  23
ENDBRANCH  18  19
ENDBRANCH  13  18
BRANCH   1  36
HETATM   36  C2  UNL     1       1.170   0.549  27.245  1.00  0.00     0.233 C 
HETATM   37  C1  UNL     1       1.966   0.881  26.027  1.00  0.00     0.035 C 
ENDBRANCH   1  36
TORSDOF 7
ENDMDL
MODEL 5
REMARK VINA RESULT: -6.294571848      2.512      7.659
REMARK  7 active torsions:
REMARK  status: ('A' for Active; 'I' for Inactive)
REMARK    1  A    between atoms: C2_2  and  N1_3 
REMARK       I    between atoms: N3_14  and  C10_15 
REMARK    2  A    between atoms: C10_15  and  C11_17 
REMARK    3  A    between atoms: C11_17  and  N4_18 
REMARK       I    between atoms: N4_18  and  C12_20 
REMARK    4  A    between atoms: C12_20  and  C13_22 
REMARK    5  A    between atoms: C13_22  and  N5_23 
REMARK    6  A    between atoms: N6_26  and  C16_27 
REMARK    7  A    between atoms: C16_27  and  C17_28 
ROOT
HETATM    1  N1  UNL     1       2.542  -3.022  20.226  1.00  0.00    -0.062 N 
HETATM    2  C3  UNL     1       2.883  -2.404  18.997  1.00  0.00     0.265 C 
HETATM    3  C4  UNL     1       1.850  -2.496  17.909  1.00  0.00     0.260 C 
HETATM    4  N2  UNL     1       1.364  -1.204  17.457  1.00  0.00    -0.074 N 
ATOM      5  H21 UNL     1       1.683  -1.018  16.507  1.00  0.00     0.277 HD
ATOM      6  H22 UNL     1       1.842  -0.452  17.954  1.00  0.00     0.277 HD
HETATM    7  C5  UNL     1      -0.049  -1.038  17.548  1.00  0.00     0.232 C 
HETATM    8  C6  UNL     1      -0.493   0.120  18.412  1.00  0.00     0.027 C 
HETATM    9  C7  UNL     1      -1.315  -0.305  19.603  1.00  0.00     0.003 C 
HETATM   10  C8  UNL     1      -0.800   0.182  20.915  1.00  0.00     0.020 C 
HETATM   11  C9  UNL     1      -0.594  -0.915  21.948  1.00  0.00     0.126 C 
HETATM   12  N3  UNL     1       0.840  -1.074  22.241  1.00  0.00    -0.343 N 
HETATM   13  C10 UNL     1       1.325  -0.836  23.550  1.00  0.00     0.237 C 
HETATM   14  O1  UNL     1       2.549  -0.975  23.778  1.00  0.00    -0.272 OA
HETATM   15  C22 UNL     1       1.645  -1.463  21.152  1.00  0.00     0.139 C 
HETATM   16  C23 UNL     1       1.197  -2.818  20.682  1.00  0.00     0.264 C 
HETATM   17  C24 UNL     1       2.908  -2.197  21.401  1.00  0.00     0.264 C 
ENDROOT
BRANCH  13  18
HETATM   18  C11 UNL     1       0.454  -0.431  24.673  1.00  0.00     0.225 C 
BRANCH  18  19
HETATM   19  N4  UNL     1       0.145   0.979  24.630  1.00  0.00    -0.351 N 
HETATM   20  C12 UNL     1      -1.110   1.495  25.093  1.00  0.00     0.244 C 
HETATM   21  O2  UNL     1      -1.923   0.663  25.536  1.00  0.00    -0.272 OA
ATOM     22  H4  UNL     1       0.839   1.627  24.260  1.00  0.00     0.163 HD
BRANCH  20  23
HETATM   23  C13 UNL     1      -1.406   2.930  25.042  1.00  0.00     0.339 C 
BRANCH  23  24
HETATM   24  N5  UNL     1      -1.862   3.442  23.800  1.00  0.00    -0.054 N 
HETATM   25  C14 UNL     1      -2.717   4.611  23.889  1.00  0.00     0.266 C 
HETATM   26  C15 UNL     1      -2.583   5.378  22.584  1.00  0.00     0.266 C 
HETATM   27  N6  UNL     1      -2.332   4.404  21.481  1.00  0.00    -0.054 N 
HETATM   28  C18 UNL     1      -0.935   4.047  21.594  1.00  0.00     0.266 C 
HETATM   29  C20 UNL     1      -3.166   3.257  21.818  1.00  0.00     0.266 C 
HETATM   30  C19 UNL     1      -0.652   3.919  23.086  1.00  0.00     0.266 C 
HETATM   31  C21 UNL     1      -2.472   2.458  22.924  1.00  0.00     0.266 C 
BRANCH  27  32
HETATM   32  C16 UNL     1      -2.702   5.014  20.257  1.00  0.00     0.336 C 
BRANCH  32  33
HETATM   33  C17 UNL     1      -2.013   6.226  19.853  1.00  0.00     0.257 C 
HETATM   34  N7  UNL     1      -0.702   6.337  19.341  1.00  0.00    -0.061 NA
HETATM   35  O3  UNL     1      -2.658   7.345  19.968  1.00  0.00    -0.275 OA
ENDBRANCH  32  33
ENDBRANCH  27  32
ENDBRANCH  23  24
ENDBRANCH  20  23
ENDBRANCH  18  19
ENDBRANCH  13  18
BRANCH   1  36
HETATM   36  C2  UNL     1       2.934  -4.396  20.399  1.00  0.00     0.233 C 
HETATM   37  C1  UNL     1       4.263  -4.580  21.052  1.00  0.00     0.035 C 
ENDBRANCH   1  36
TORSDOF 7
ENDMDL
