MODEL 1
REMARK VINA RESULT: -8.433917061      0.000      0.000
REMARK  9 active torsions:
REMARK  status: ('A' for Active; 'I' for Inactive)
REMARK    1  A    between atoms: C7_8  and  C8_9 
REMARK    2  A    between atoms: C9_10  and  C10_11 
REMARK    3  A    between atoms: N3_16  and  C13_17 
REMARK    4  A    between atoms: C13_17  and  C14_18 
REMARK    5  A    between atoms: C14_18  and  C15_19 
REMARK    6  A    between atoms: C15_19  and  C16_20 
REMARK    7  A    between atoms: C18_24  and  C19_25 
REMARK    8  A    between atoms: C19_25  and  C20_26 
REMARK    9  A    between atoms: C25_38  and  C26_39 
ROOT
HETATM    1  C16 UNL     1      -0.434   1.041  21.922  1.00  0.00     0.023 A 
HETATM    2  N4  UNL     1      -0.846   1.184  20.659  1.00  0.00    -0.368 N 
ATOM      3  H4  UNL     1      -0.985   0.415  20.004  1.00  0.00     0.165 HD
HETATM    4  C17 UNL     1      -1.052   2.476  20.370  1.00  0.00     0.096 A 
HETATM    5  C18 UNL     1      -0.751   3.198  21.519  1.00  0.00    -0.025 A 
HETATM    6  C25 UNL     1      -0.365   2.290  22.485  1.00  0.00     0.032 A 
ENDROOT
BRANCH   1   7
HETATM    7  C15 UNL     1      -0.123  -0.234  22.597  1.00  0.00     0.059 C 
BRANCH   7   8
HETATM    8  C14 UNL     1       1.232  -0.772  22.268  1.00  0.00     0.026 C 
BRANCH   8   9
HETATM    9  C13 UNL     1       1.301  -2.263  22.374  1.00  0.00     0.131 C 
BRANCH   9  10
HETATM   10  N3  UNL     1       2.642  -2.716  22.200  1.00  0.00    -0.335 N 
HETATM   11  C10 UNL     1       3.182  -3.013  21.012  1.00  0.00     0.105 A 
HETATM   12  C11 UNL     1       4.477  -3.432  21.261  1.00  0.00     0.128 A 
HETATM   13  N2  UNL     1       4.653  -3.365  22.588  1.00  0.00    -0.359 N 
HETATM   14  C12 UNL     1       3.546  -2.928  23.202  1.00  0.00     0.183 A 
ATOM     15  H2  UNL     1       5.518  -3.614  23.068  1.00  0.00     0.166 HD
BRANCH  11  16
HETATM   16  C9  UNL     1       2.523  -2.907  19.741  1.00  0.00    -0.042 C 
HETATM   17  C8  UNL     1       1.945  -2.831  18.675  1.00  0.00    -0.059 C 
BRANCH  17  18
HETATM   18  C7  UNL     1       1.242  -2.755  17.427  1.00  0.00     0.026 A 
HETATM   19  C2  UNL     1       0.630  -1.580  17.010  1.00  0.00    -0.028 A 
HETATM   20  C1  UNL     1       0.764  -0.417  17.935  1.00  0.00     0.051 C 
HETATM   21  C3  UNL     1      -0.050  -1.513  15.813  1.00  0.00     0.098 A 
HETATM   22  N1  UNL     1      -0.150  -2.581  15.001  1.00  0.00    -0.370 N 
HETATM   23  C4  UNL     1      -0.883  -2.488  13.727  1.00  0.00     0.154 C 
HETATM   24  C5  UNL     1       0.432  -3.723  15.384  1.00  0.00     0.091 A 
HETATM   25  C6  UNL     1       1.126  -3.836  16.577  1.00  0.00     0.038 A 
ENDBRANCH  17  18
ENDBRANCH  11  16
ENDBRANCH   9  10
ENDBRANCH   8   9
ENDBRANCH   7   8
ENDBRANCH   1   7
BRANCH   6  26
HETATM   26  C26 UNL     1       0.066   2.597  23.839  1.00  0.00     0.272 C 
HETATM   27  O4  UNL     1       1.080   3.258  24.133  1.00  0.00    -0.301 OA
ENDBRANCH   6  26
BRANCH   5  28
HETATM   28  C19 UNL     1      -0.846   4.659  21.631  1.00  0.00     0.074 C 
BRANCH  28  29
HETATM   29  C20 UNL     1      -1.595   5.244  20.486  1.00  0.00     0.160 C 
HETATM   30  N5  UNL     1      -0.824   6.351  19.943  1.00  0.00    -0.341 N 
HETATM   31  C21 UNL     1      -1.272   7.689  19.791  1.00  0.00     0.310 C 
ATOM     32  H5  UNL     1       0.129   6.146  19.644  1.00  0.00     0.163 HD
HETATM   33  O1  UNL     1      -0.324   8.531  19.771  1.00  0.00    -0.262 OA
HETATM   34  C22 UNL     1      -2.609   8.254  19.658  1.00  0.00     0.309 C 
HETATM   35  O2  UNL     1      -2.658   9.524  19.524  1.00  0.00    -0.262 OA
HETATM   36  N6  UNL     1      -3.848   7.563  19.660  1.00  0.00    -0.346 N 
HETATM   37  C23 UNL     1      -4.096   6.258  20.239  1.00  0.00     0.203 C 
ATOM     38  H6  UNL     1      -4.638   8.029  19.214  1.00  0.00     0.163 HD
HETATM   39  C24 UNL     1      -2.935   5.744  20.979  1.00  0.00     0.167 C 
HETATM   40  O3  UNL     1      -3.077   5.718  22.189  1.00  0.00    -0.294 OA
ENDBRANCH  28  29
ENDBRANCH   5  28
TORSDOF 9
ENDMDL
MODEL 2
REMARK VINA RESULT: -8.398127242      4.632      8.061
REMARK  9 active torsions:
REMARK  status: ('A' for Active; 'I' for Inactive)
REMARK    1  A    between atoms: C7_8  and  C8_9 
REMARK    2  A    between atoms: C9_10  and  C10_11 
REMARK    3  A    between atoms: N3_16  and  C13_17 
REMARK    4  A    between atoms: C13_17  and  C14_18 
REMARK    5  A    between atoms: C14_18  and  C15_19 
REMARK    6  A    between atoms: C15_19  and  C16_20 
REMARK    7  A    between atoms: C18_24  and  C19_25 
REMARK    8  A    between atoms: C19_25  and  C20_26 
REMARK    9  A    between atoms: C25_38  and  C26_39 
ROOT
HETATM    1  C16 UNL     1      -1.010   3.684  24.492  1.00  0.00     0.023 A 
HETATM    2  N4  UNL     1      -1.926   4.427  23.864  1.00  0.00    -0.368 N 
ATOM      3  H4  UNL     1      -1.866   4.720  22.889  1.00  0.00     0.165 HD
HETATM    4  C17 UNL     1      -2.935   4.737  24.691  1.00  0.00     0.096 A 
HETATM    5  C18 UNL     1      -2.640   4.155  25.919  1.00  0.00    -0.025 A 
HETATM    6  C25 UNL     1      -1.433   3.498  25.783  1.00  0.00     0.032 A 
ENDROOT
BRANCH   1   7
HETATM    7  C15 UNL     1       0.228   3.144  23.897  1.00  0.00     0.059 C 
BRANCH   7   8
HETATM    8  C14 UNL     1       0.157   1.685  23.584  1.00  0.00     0.026 C 
BRANCH   8   9
HETATM    9  C13 UNL     1      -1.003   1.340  22.704  1.00  0.00     0.131 C 
BRANCH   9  10
HETATM   10  N3  UNL     1      -0.550   0.933  21.415  1.00  0.00    -0.335 N 
HETATM   11  C10 UNL     1      -0.603   1.709  20.325  1.00  0.00     0.105 A 
HETATM   12  C11 UNL     1      -0.097   0.957  19.280  1.00  0.00     0.128 A 
HETATM   13  N2  UNL     1       0.236  -0.237  19.793  1.00  0.00    -0.359 N 
HETATM   14  C12 UNL     1      -0.027  -0.290  21.105  1.00  0.00     0.183 A 
ATOM     15  H2  UNL     1       0.638  -1.004  19.254  1.00  0.00     0.166 HD
BRANCH  11  16
HETATM   16  C9  UNL     1      -1.092   3.058  20.279  1.00  0.00    -0.042 C 
HETATM   17  C8  UNL     1      -1.500   4.201  20.215  1.00  0.00    -0.059 C 
BRANCH  17  18
HETATM   18  C7  UNL     1      -1.973   5.551  20.113  1.00  0.00     0.026 A 
HETATM   19  C2  UNL     1      -3.254   5.903  20.520  1.00  0.00    -0.028 A 
HETATM   20  C1  UNL     1      -4.085   4.793  21.072  1.00  0.00     0.051 C 
HETATM   21  C3  UNL     1      -3.707   7.200  20.414  1.00  0.00     0.098 A 
HETATM   22  N1  UNL     1      -2.930   8.177  19.913  1.00  0.00    -0.370 N 
HETATM   23  C4  UNL     1      -3.434   9.557  19.807  1.00  0.00     0.154 C 
HETATM   24  C5  UNL     1      -1.693   7.860  19.515  1.00  0.00     0.091 A 
HETATM   25  C6  UNL     1      -1.195   6.570  19.603  1.00  0.00     0.038 A 
ENDBRANCH  17  18
ENDBRANCH  11  16
ENDBRANCH   9  10
ENDBRANCH   8   9
ENDBRANCH   7   8
ENDBRANCH   1   7
BRANCH   6  26
HETATM   26  C26 UNL     1      -0.722   2.770  26.821  1.00  0.00     0.272 C 
HETATM   27  O4  UNL     1      -0.513   3.193  27.974  1.00  0.00    -0.301 OA
ENDBRANCH   6  26
BRANCH   5  28
HETATM   28  C19 UNL     1      -3.493   4.252  27.109  1.00  0.00     0.074 C 
BRANCH  28  29
HETATM   29  C20 UNL     1      -3.510   5.636  27.655  1.00  0.00     0.160 C 
HETATM   30  N5  UNL     1      -2.145   6.027  27.971  1.00  0.00    -0.341 N 
HETATM   31  C21 UNL     1      -1.671   6.469  29.234  1.00  0.00     0.310 C 
ATOM     32  H5  UNL     1      -1.464   5.979  27.214  1.00  0.00     0.163 HD
HETATM   33  O1  UNL     1      -0.428   6.281  29.392  1.00  0.00    -0.262 OA
HETATM   34  C22 UNL     1      -2.355   7.089  30.363  1.00  0.00     0.309 C 
HETATM   35  O2  UNL     1      -1.615   7.378  31.363  1.00  0.00    -0.262 OA
HETATM   36  N6  UNL     1      -3.734   7.404  30.476  1.00  0.00    -0.346 N 
HETATM   37  C23 UNL     1      -4.814   6.789  29.732  1.00  0.00     0.203 C 
ATOM     38  H6  UNL     1      -3.989   8.132  31.145  1.00  0.00     0.163 HD
HETATM   39  C24 UNL     1      -4.355   5.661  28.909  1.00  0.00     0.167 C 
HETATM   40  O3  UNL     1      -4.716   4.566  29.305  1.00  0.00    -0.294 OA
ENDBRANCH  28  29
ENDBRANCH   5  28
TORSDOF 9
ENDMDL
MODEL 3
REMARK VINA RESULT: -8.334136418      1.864      2.319
REMARK  9 active torsions:
REMARK  status: ('A' for Active; 'I' for Inactive)
REMARK    1  A    between atoms: C7_8  and  C8_9 
REMARK    2  A    between atoms: C9_10  and  C10_11 
REMARK    3  A    between atoms: N3_16  and  C13_17 
REMARK    4  A    between atoms: C13_17  and  C14_18 
REMARK    5  A    between atoms: C14_18  and  C15_19 
REMARK    6  A    between atoms: C15_19  and  C16_20 
REMARK    7  A    between atoms: C18_24  and  C19_25 
REMARK    8  A    between atoms: C19_25  and  C20_26 
REMARK    9  A    between atoms: C25_38  and  C26_39 
ROOT
HETATM    1  C16 UNL     1      -1.281   0.118  21.373  1.00  0.00     0.023 A 
HETATM    2  N4  UNL     1      -2.192   0.267  22.339  1.00  0.00    -0.368 N 
ATOM      3  H4  UNL     1      -2.700  -0.500  22.780  1.00  0.00     0.165 HD
HETATM    4  C17 UNL     1      -2.349   1.561  22.650  1.00  0.00     0.096 A 
HETATM    5  C18 UNL     1      -1.485   2.278  21.830  1.00  0.00    -0.025 A 
HETATM    6  C25 UNL     1      -0.821   1.365  21.035  1.00  0.00     0.032 A 
ENDROOT
BRANCH   1   7
HETATM    7  C15 UNL     1      -0.837  -1.161  20.786  1.00  0.00     0.059 C 
BRANCH   7   8
HETATM    8  C14 UNL     1       0.234  -1.843  21.574  1.00  0.00     0.026 C 
BRANCH   8   9
HETATM    9  C13 UNL     1       0.877  -2.965  20.820  1.00  0.00     0.131 C 
BRANCH   9  10
HETATM   10  N3  UNL     1       2.145  -2.559  20.306  1.00  0.00    -0.335 N 
HETATM   11  C10 UNL     1       2.427  -2.468  19.001  1.00  0.00     0.105 A 
HETATM   12  C11 UNL     1       3.748  -2.070  18.910  1.00  0.00     0.128 A 
HETATM   13  N2  UNL     1       4.198  -1.941  20.167  1.00  0.00    -0.359 N 
HETATM   14  C12 UNL     1       3.239  -2.233  21.056  1.00  0.00     0.183 A 
ATOM     15  H2  UNL     1       5.146  -1.656  20.415  1.00  0.00     0.166 HD
BRANCH  11  16
HETATM   16  C9  UNL     1       1.514  -2.735  17.925  1.00  0.00    -0.042 C 
HETATM   17  C8  UNL     1       0.736  -2.983  17.026  1.00  0.00    -0.059 C 
BRANCH  17  18
HETATM   18  C7  UNL     1      -0.188  -3.301  15.976  1.00  0.00     0.026 A 
HETATM   19  C2  UNL     1      -1.526  -3.563  16.244  1.00  0.00    -0.028 A 
HETATM   20  C1  UNL     1      -1.926  -3.483  17.679  1.00  0.00     0.051 C 
HETATM   21  C3  UNL     1      -2.410  -3.874  15.234  1.00  0.00     0.098 A 
HETATM   22  N1  UNL     1      -2.015  -3.936  13.949  1.00  0.00    -0.370 N 
HETATM   23  C4  UNL     1      -2.976  -4.272  12.884  1.00  0.00     0.154 C 
HETATM   24  C5  UNL     1      -0.731  -3.687  13.669  1.00  0.00     0.091 A 
HETATM   25  C6  UNL     1       0.192  -3.370  14.652  1.00  0.00     0.038 A 
ENDBRANCH  17  18
ENDBRANCH  11  16
ENDBRANCH   9  10
ENDBRANCH   8   9
ENDBRANCH   7   8
ENDBRANCH   1   7
BRANCH   6  26
HETATM   26  C26 UNL     1       0.160   1.666  20.006  1.00  0.00     0.272 C 
HETATM   27  O4  UNL     1      -0.097   2.192  18.906  1.00  0.00    -0.301 OA
ENDBRANCH   6  26
BRANCH   5  28
HETATM   28  C19 UNL     1      -1.344   3.739  21.850  1.00  0.00     0.074 C 
BRANCH  28  29
HETATM   29  C20 UNL     1      -2.175   4.380  20.796  1.00  0.00     0.160 C 
HETATM   30  N5  UNL     1      -1.293   4.988  19.814  1.00  0.00    -0.341 N 
HETATM   31  C21 UNL     1      -1.293   6.351  19.417  1.00  0.00     0.310 C 
ATOM     32  H5  UNL     1      -0.608   4.377  19.368  1.00  0.00     0.163 HD
HETATM   33  O1  UNL     1      -0.176   6.734  18.953  1.00  0.00    -0.262 OA
HETATM   34  C22 UNL     1      -2.335   7.370  19.450  1.00  0.00     0.309 C 
HETATM   35  O2  UNL     1      -1.999   8.516  18.996  1.00  0.00    -0.262 OA
HETATM   36  N6  UNL     1      -3.666   7.236  19.924  1.00  0.00    -0.346 N 
HETATM   37  C23 UNL     1      -4.138   6.247  20.872  1.00  0.00     0.203 C 
ATOM     38  H6  UNL     1      -4.354   7.897  19.564  1.00  0.00     0.163 HD
HETATM   39  C24 UNL     1      -3.045   5.442  21.433  1.00  0.00     0.167 C 
HETATM   40  O3  UNL     1      -2.798   5.670  22.605  1.00  0.00    -0.294 OA
ENDBRANCH  28  29
ENDBRANCH   5  28
TORSDOF 9
ENDMDL
MODEL 4
REMARK VINA RESULT: -8.322855372      3.175      6.551
REMARK  9 active torsions:
REMARK  status: ('A' for Active; 'I' for Inactive)
REMARK    1  A    between atoms: C7_8  and  C8_9 
REMARK    2  A    between atoms: C9_10  and  C10_11 
REMARK    3  A    between atoms: N3_16  and  C13_17 
REMARK    4  A    between atoms: C13_17  and  C14_18 
REMARK    5  A    between atoms: C14_18  and  C15_19 
REMARK    6  A    between atoms: C15_19  and  C16_20 
REMARK    7  A    between atoms: C18_24  and  C19_25 
REMARK    8  A    between atoms: C19_25  and  C20_26 
REMARK    9  A    between atoms: C25_38  and  C26_39 
ROOT
HETATM    1  C16 UNL     1      -1.615   0.198  21.259  1.00  0.00     0.023 A 
HETATM    2  N4  UNL     1      -2.581   0.419  22.155  1.00  0.00    -0.368 N 
ATOM      3  H4  UNL     1      -3.172  -0.306  22.561  1.00  0.00     0.165 HD
HETATM    4  C17 UNL     1      -2.669   1.724  22.449  1.00  0.00     0.096 A 
HETATM    5  C18 UNL     1      -1.699   2.372  21.691  1.00  0.00    -0.025 A 
HETATM    6  C25 UNL     1      -1.045   1.407  20.950  1.00  0.00     0.032 A 
ENDROOT
BRANCH   1   7
HETATM    7  C15 UNL     1      -1.220  -1.114  20.711  1.00  0.00     0.059 C 
BRANCH   7   8
HETATM    8  C14 UNL     1      -0.069  -1.742  21.428  1.00  0.00     0.026 C 
BRANCH   8   9
HETATM    9  C13 UNL     1      -0.116  -1.512  22.906  1.00  0.00     0.131 C 
BRANCH   9  10
HETATM   10  N3  UNL     1       1.199  -1.527  23.456  1.00  0.00    -0.335 N 
HETATM   11  C10 UNL     1       1.647  -0.633  24.346  1.00  0.00     0.105 A 
HETATM   12  C11 UNL     1       2.961  -0.968  24.615  1.00  0.00     0.128 A 
HETATM   13  N2  UNL     1       3.241  -2.050  23.873  1.00  0.00    -0.359 N 
HETATM   14  C12 UNL     1       2.181  -2.425  23.146  1.00  0.00     0.183 A 
ATOM     15  H2  UNL     1       4.144  -2.525  23.864  1.00  0.00     0.166 HD
BRANCH  11  16
HETATM   16  C9  UNL     1       0.887   0.453  24.899  1.00  0.00    -0.042 C 
HETATM   17  C8  UNL     1       0.252   1.365  25.390  1.00  0.00    -0.059 C 
BRANCH  17  18
HETATM   18  C7  UNL     1      -0.488   2.434  25.996  1.00  0.00     0.026 A 
HETATM   19  C2  UNL     1      -0.592   2.553  27.376  1.00  0.00    -0.028 A 
HETATM   20  C1  UNL     1       0.121   1.510  28.170  1.00  0.00     0.051 C 
HETATM   21  C3  UNL     1      -1.309   3.578  27.953  1.00  0.00     0.098 A 
HETATM   22  N1  UNL     1      -1.939   4.502  27.206  1.00  0.00    -0.370 N 
HETATM   23  C4  UNL     1      -2.702   5.590  27.844  1.00  0.00     0.154 C 
HETATM   24  C5  UNL     1      -1.852   4.406  25.875  1.00  0.00     0.091 A 
HETATM   25  C6  UNL     1      -1.142   3.394  25.251  1.00  0.00     0.038 A 
ENDBRANCH  17  18
ENDBRANCH  11  16
ENDBRANCH   9  10
ENDBRANCH   8   9
ENDBRANCH   7   8
ENDBRANCH   1   7
BRANCH   6  26
HETATM   26  C26 UNL     1       0.028   1.629  19.995  1.00  0.00     0.272 C 
HETATM   27  O4  UNL     1      -0.101   2.206  18.898  1.00  0.00    -0.301 OA
ENDBRANCH   6  26
BRANCH   5  28
HETATM   28  C19 UNL     1      -1.456   3.819  21.715  1.00  0.00     0.074 C 
BRANCH  28  29
HETATM   29  C20 UNL     1      -2.248   4.520  20.668  1.00  0.00     0.160 C 
HETATM   30  N5  UNL     1      -1.327   5.129  19.721  1.00  0.00    -0.341 N 
HETATM   31  C21 UNL     1      -1.276   6.503  19.368  1.00  0.00     0.310 C 
ATOM     32  H5  UNL     1      -0.655   4.510  19.268  1.00  0.00     0.163 HD
HETATM   33  O1  UNL     1      -0.139   6.864  18.936  1.00  0.00    -0.262 OA
HETATM   34  C22 UNL     1      -2.285   7.554  19.416  1.00  0.00     0.309 C 
HETATM   35  O2  UNL     1      -1.903   8.702  19.005  1.00  0.00    -0.262 OA
HETATM   36  N6  UNL     1      -3.628   7.450  19.863  1.00  0.00    -0.346 N 
HETATM   37  C23 UNL     1      -4.149   6.448  20.770  1.00  0.00     0.203 C 
ATOM     38  H6  UNL     1      -4.287   8.145  19.512  1.00  0.00     0.163 HD
HETATM   39  C24 UNL     1      -3.093   5.590  21.324  1.00  0.00     0.167 C 
HETATM   40  O3  UNL     1      -2.860   5.773  22.506  1.00  0.00    -0.294 OA
ENDBRANCH  28  29
ENDBRANCH   5  28
TORSDOF 9
ENDMDL
MODEL 5
REMARK VINA RESULT: -8.141313526      3.506      6.720
REMARK  9 active torsions:
REMARK  status: ('A' for Active; 'I' for Inactive)
REMARK    1  A    between atoms: C7_8  and  C8_9 
REMARK    2  A    between atoms: C9_10  and  C10_11 
REMARK    3  A    between atoms: N3_16  and  C13_17 
REMARK    4  A    between atoms: C13_17  and  C14_18 
REMARK    5  A    between atoms: C14_18  and  C15_19 
REMARK    6  A    between atoms: C15_19  and  C16_20 
REMARK    7  A    between atoms: C18_24  and  C19_25 
REMARK    8  A    between atoms: C19_25  and  C20_26 
REMARK    9  A    between atoms: C25_38  and  C26_39 
ROOT
HETATM    1  C16 UNL     1      -1.535   0.135  21.563  1.00  0.00     0.023 A 
HETATM    2  N4  UNL     1      -0.380   0.400  20.945  1.00  0.00    -0.368 N 
ATOM      3  H4  UNL     1       0.228  -0.303  20.527  1.00  0.00     0.165 HD
HETATM    4  C17 UNL     1      -0.129   1.717  20.951  1.00  0.00     0.096 A 
HETATM    5  C18 UNL     1      -1.189   2.325  21.615  1.00  0.00    -0.025 A 
HETATM    6  C25 UNL     1      -2.064   1.326  21.993  1.00  0.00     0.032 A 
ENDROOT
BRANCH   1   7
HETATM    7  C15 UNL     1      -2.143  -1.198  21.738  1.00  0.00     0.059 C 
BRANCH   7   8
HETATM    8  C14 UNL     1      -1.240  -2.186  22.404  1.00  0.00     0.026 C 
BRANCH   8   9
HETATM    9  C13 UNL     1      -0.818  -1.749  23.771  1.00  0.00     0.131 C 
BRANCH   9  10
HETATM   10  N3  UNL     1       0.588  -1.507  23.807  1.00  0.00    -0.335 N 
HETATM   11  C10 UNL     1       1.142  -0.399  24.313  1.00  0.00     0.105 A 
HETATM   12  C11 UNL     1       2.509  -0.529  24.144  1.00  0.00     0.128 A 
HETATM   13  N2  UNL     1       2.710  -1.711  23.543  1.00  0.00    -0.359 N 
HETATM   14  C12 UNL     1       1.551  -2.343  23.319  1.00  0.00     0.183 A 
ATOM     15  H2  UNL     1       3.627  -2.080  23.290  1.00  0.00     0.166 HD
BRANCH  11  16
HETATM   16  C9  UNL     1       0.432   0.696  24.913  1.00  0.00    -0.042 C 
HETATM   17  C8  UNL     1      -0.167   1.610  25.443  1.00  0.00    -0.059 C 
BRANCH  17  18
HETATM   18  C7  UNL     1      -0.873   2.676  26.093  1.00  0.00     0.026 A 
HETATM   19  C2  UNL     1      -0.844   2.829  27.473  1.00  0.00    -0.028 A 
HETATM   20  C1  UNL     1      -0.030   1.825  28.218  1.00  0.00     0.051 C 
HETATM   21  C3  UNL     1      -1.529   3.851  28.094  1.00  0.00     0.098 A 
HETATM   22  N1  UNL     1      -2.253   4.740  27.391  1.00  0.00    -0.370 N 
HETATM   23  C4  UNL     1      -2.979   5.825  28.075  1.00  0.00     0.154 C 
HETATM   24  C5  UNL     1      -2.294   4.612  26.061  1.00  0.00     0.091 A 
HETATM   25  C6  UNL     1      -1.622   3.601  25.394  1.00  0.00     0.038 A 
ENDBRANCH  17  18
ENDBRANCH  11  16
ENDBRANCH   9  10
ENDBRANCH   8   9
ENDBRANCH   7   8
ENDBRANCH   1   7
BRANCH   6  26
HETATM   26  C26 UNL     1      -3.301   1.494  22.738  1.00  0.00     0.272 C 
HETATM   27  O4  UNL     1      -4.438   1.542  22.231  1.00  0.00    -0.301 OA
ENDBRANCH   6  26
BRANCH   5  28
HETATM   28  C19 UNL     1      -1.307   3.770  21.841  1.00  0.00     0.074 C 
BRANCH  28  29
HETATM   29  C20 UNL     1      -2.134   4.420  20.789  1.00  0.00     0.160 C 
HETATM   30  N5  UNL     1      -1.248   5.079  19.842  1.00  0.00    -0.341 N 
HETATM   31  C21 UNL     1      -1.277   6.452  19.484  1.00  0.00     0.310 C 
ATOM     32  H5  UNL     1      -0.539   4.499  19.394  1.00  0.00     0.163 HD
HETATM   33  O1  UNL     1      -0.162   6.877  19.054  1.00  0.00    -0.262 OA
HETATM   34  C22 UNL     1      -2.346   7.441  19.525  1.00  0.00     0.309 C 
HETATM   35  O2  UNL     1      -2.031   8.608  19.110  1.00  0.00    -0.262 OA
HETATM   36  N6  UNL     1      -3.682   7.260  19.967  1.00  0.00    -0.346 N 
HETATM   37  C23 UNL     1      -4.147   6.232  20.877  1.00  0.00     0.203 C 
ATOM     38  H6  UNL     1      -4.380   7.913  19.612  1.00  0.00     0.163 HD
HETATM   39  C24 UNL     1      -3.043   5.440  21.437  1.00  0.00     0.167 C 
HETATM   40  O3  UNL     1      -2.826   5.641  22.620  1.00  0.00    -0.294 OA
ENDBRANCH  28  29
ENDBRANCH   5  28
TORSDOF 9
ENDMDL
