MODEL 1
REMARK VINA RESULT: -7.107327290      0.000      0.000
REMARK  10 active torsions:
REMARK  status: ('A' for Active; 'I' for Inactive)
REMARK    1  A    between atoms: C3_3  and  C4_4 
REMARK    2  A    between atoms: C4_4  and  N1_5 
REMARK    3  A    between atoms: N1_5  and  C5_6 
REMARK       I    between atoms: N1_5  and  C8_13 
REMARK    4  A    between atoms: C5_6  and  C6_7 
REMARK    5  A    between atoms: C6_7  and  C7_8 
REMARK    6  A    between atoms: C7_8  and  N2_9 
REMARK    7  A    between atoms: C8_13  and  C9_15 
REMARK    8  A    between atoms: C10_16  and  C11_17 
REMARK    9  A    between atoms: C16_23  and  O3_24 
REMARK   10  A    between atoms: C24_36  and  N5_37 
ROOT
HETATM    1  C1  UNL     1      -6.453   3.799  20.739  1.00  0.00     0.112 C 
HETATM    2  C2  UNL     1      -5.239   4.532  21.151  1.00  0.00    -0.109 C 
HETATM    3  C3  UNL     1      -4.254   5.141  21.505  1.00  0.00    -0.087 C 
ENDROOT
BRANCH   3   4
HETATM    4  C4  UNL     1      -3.060   5.876  21.948  1.00  0.00     0.220 C 
BRANCH   4   5
HETATM    5  N1  UNL     1      -1.866   5.320  21.375  1.00  0.00    -0.338 N 
HETATM    6  C8  UNL     1      -1.298   4.138  21.831  1.00  0.00     0.249 C 
HETATM    7  O1  UNL     1      -0.254   3.750  21.252  1.00  0.00    -0.268 OA
BRANCH   5   8
HETATM    8  C5  UNL     1      -1.243   6.039  20.273  1.00  0.00     0.129 C 
BRANCH   8   9
HETATM    9  C6  UNL     1      -2.191   7.047  19.667  1.00  0.00     0.047 C 
BRANCH   9  10
HETATM   10  C7  UNL     1      -1.528   8.424  19.595  1.00  0.00     0.231 C 
BRANCH  10  11
HETATM   11  N2  UNL     1      -2.599   9.406  19.547  1.00  0.00    -0.079 N 
ATOM     12  H23 UNL     1      -3.163   9.426  20.396  1.00  0.00     0.274 HD
ATOM     13  H22 UNL     1      -2.263  10.368  19.593  1.00  0.00     0.274 HD
ATOM     14  H21 UNL     1      -3.143   9.210  18.708  1.00  0.00     0.274 HD
ENDBRANCH  10  11
ENDBRANCH   9  10
ENDBRANCH   8   9
ENDBRANCH   5   8
BRANCH   6  15
HETATM   15  C9  UNL     1      -1.846   3.367  22.916  1.00  0.00     0.032 C 
HETATM   16  C10 UNL     1      -1.309   3.865  24.285  1.00  0.00     0.111 C 
HETATM   17  C12 UNL     1      -1.955   2.882  25.173  1.00  0.00     0.045 C 
HETATM   18  C13 UNL     1      -1.565   2.758  26.546  1.00  0.00     0.039 C 
HETATM   19  N4  UNL     1      -3.362   3.360  25.240  1.00  0.00    -0.390 N 
HETATM   20  C23 UNL     1      -2.055   1.572  24.371  1.00  0.00     0.070 C 
HETATM   21  C14 UNL     1      -0.274   2.543  27.178  1.00  0.00     0.025 A 
HETATM   22  C15 UNL     1       0.157   1.421  27.987  1.00  0.00     0.046 A 
HETATM   23  C16 UNL     1      -0.593   2.603  28.677  1.00  0.00     0.064 A 
HETATM   24  C17 UNL     1      -1.904   2.195  29.173  1.00  0.00     0.066 C 
HETATM   25  C18 UNL     1      -3.001   3.193  29.356  1.00  0.00     0.241 C 
HETATM   26  N3  UNL     1      -4.252   2.888  28.695  1.00  0.00    -0.059 N 
HETATM   27  C19 UNL     1      -4.500   3.577  27.454  1.00  0.00     0.281 C 
HETATM   28  C21 UNL     1      -4.679   1.539  28.750  1.00  0.00     0.266 A 
HETATM   29  C22 UNL     1      -5.432   2.545  29.550  1.00  0.00     0.266 A 
HETATM   30  C20 UNL     1      -4.209   2.778  26.201  1.00  0.00     0.084 C 
ATOM     31  H4  UNL     1      -3.702   4.087  24.610  1.00  0.00     0.159 HD
HETATM   32  C24 UNL     1      -2.026   1.946  22.917  1.00  0.00     0.227 C 
BRANCH  16  33
HETATM   33  C11 UNL     1       0.133   3.994  24.305  1.00  0.00     0.242 C 
HETATM   34  O2  UNL     1       0.939   3.086  24.275  1.00  0.00    -0.306 OA
ENDBRANCH  16  33
BRANCH  23  35
HETATM   35  O3  UNL     1       0.158   3.423  29.498  1.00  0.00    -0.389 OA
ATOM     36  H3  UNL     1       0.892   3.057  29.978  1.00  0.00     0.210 HD
ENDBRANCH  23  35
BRANCH  32  37
HETATM   37  N5  UNL     1      -1.330   0.986  22.155  1.00  0.00    -0.063 N 
HETATM   38  C25 UNL     1      -1.564   1.032  20.735  1.00  0.00     0.273 C 
HETATM   39  C26 UNL     1       0.027   0.726  22.365  1.00  0.00     0.238 C 
HETATM   40  C27 UNL     1       0.304  -0.764  22.190  1.00  0.00     0.029 C 
HETATM   41  C28 UNL     1      -1.041  -1.365  22.003  1.00  0.00     0.029 C 
HETATM   42  C29 UNL     1      -1.933  -0.308  22.567  1.00  0.00     0.238 C 
ENDBRANCH  32  37
ENDBRANCH   6  15
ENDBRANCH   4   5
ENDBRANCH   3   4
TORSDOF 10
ENDMDL
MODEL 2
REMARK VINA RESULT: -6.895368252      1.407      1.730
REMARK  10 active torsions:
REMARK  status: ('A' for Active; 'I' for Inactive)
REMARK    1  A    between atoms: C3_3  and  C4_4 
REMARK    2  A    between atoms: C4_4  and  N1_5 
REMARK    3  A    between atoms: N1_5  and  C5_6 
REMARK       I    between atoms: N1_5  and  C8_13 
REMARK    4  A    between atoms: C5_6  and  C6_7 
REMARK    5  A    between atoms: C6_7  and  C7_8 
REMARK    6  A    between atoms: C7_8  and  N2_9 
REMARK    7  A    between atoms: C8_13  and  C9_15 
REMARK    8  A    between atoms: C10_16  and  C11_17 
REMARK    9  A    between atoms: C16_23  and  O3_24 
REMARK   10  A    between atoms: C24_36  and  N5_37 
ROOT
HETATM    1  C1  UNL     1      -6.697   3.932  20.725  1.00  0.00     0.112 C 
HETATM    2  C2  UNL     1      -5.460   4.708  20.942  1.00  0.00    -0.109 C 
HETATM    3  C3  UNL     1      -4.451   5.348  21.139  1.00  0.00    -0.087 C 
ENDROOT
BRANCH   3   4
HETATM    4  C4  UNL     1      -3.225   6.120  21.391  1.00  0.00     0.220 C 
BRANCH   4   5
HETATM    5  N1  UNL     1      -2.054   5.317  21.179  1.00  0.00    -0.338 N 
HETATM    6  C8  UNL     1      -1.624   4.364  22.094  1.00  0.00     0.249 C 
HETATM    7  O1  UNL     1      -0.586   3.723  21.800  1.00  0.00    -0.268 OA
BRANCH   5   8
HETATM    8  C5  UNL     1      -1.301   5.524  19.950  1.00  0.00     0.129 C 
BRANCH   8   9
HETATM    9  C6  UNL     1      -0.730   6.921  19.882  1.00  0.00     0.047 C 
BRANCH   9  10
HETATM   10  C7  UNL     1      -1.515   7.768  18.879  1.00  0.00     0.231 C 
BRANCH  10  11
HETATM   11  N2  UNL     1      -1.928   8.974  19.577  1.00  0.00    -0.079 N 
ATOM     12  H23 UNL     1      -2.899   9.228  19.400  1.00  0.00     0.274 HD
ATOM     13  H22 UNL     1      -2.010   8.846  20.585  1.00  0.00     0.274 HD
ATOM     14  H21 UNL     1      -1.267   9.707  19.318  1.00  0.00     0.274 HD
ENDBRANCH  10  11
ENDBRANCH   9  10
ENDBRANCH   8   9
ENDBRANCH   5   8
BRANCH   6  15
HETATM   15  C9  UNL     1      -2.305   4.099  23.333  1.00  0.00     0.032 C 
HETATM   16  C10 UNL     1      -1.353   4.277  24.546  1.00  0.00     0.111 C 
HETATM   17  C12 UNL     1      -2.265   3.882  25.634  1.00  0.00     0.045 C 
HETATM   18  C13 UNL     1      -1.774   3.631  26.956  1.00  0.00     0.039 C 
HETATM   19  N4  UNL     1      -3.138   5.075  25.794  1.00  0.00    -0.390 N 
HETATM   20  C23 UNL     1      -3.209   2.818  25.044  1.00  0.00     0.070 C 
HETATM   21  C14 UNL     1      -0.728   2.757  27.460  1.00  0.00     0.025 A 
HETATM   22  C15 UNL     1      -0.852   1.634  28.366  1.00  0.00     0.046 A 
HETATM   23  C16 UNL     1      -0.692   3.067  28.961  1.00  0.00     0.064 A 
HETATM   24  C17 UNL     1      -1.901   3.501  29.658  1.00  0.00     0.066 C 
HETATM   25  C18 UNL     1      -2.214   4.952  29.822  1.00  0.00     0.241 C 
HETATM   26  N3  UNL     1      -3.519   5.374  29.360  1.00  0.00    -0.059 N 
HETATM   27  C19 UNL     1      -3.560   6.016  28.069  1.00  0.00     0.281 C 
HETATM   28  C21 UNL     1      -4.600   4.510  29.656  1.00  0.00     0.266 A 
HETATM   29  C22 UNL     1      -4.521   5.806  30.385  1.00  0.00     0.266 A 
HETATM   30  C20 UNL     1      -3.982   5.127  26.918  1.00  0.00     0.084 C 
ATOM     31  H4  UNL     1      -3.126   5.831  25.109  1.00  0.00     0.159 HD
HETATM   32  C24 UNL     1      -3.234   3.032  23.558  1.00  0.00     0.227 C 
BRANCH  16  33
HETATM   33  C11 UNL     1      -0.101   3.568  24.382  1.00  0.00     0.242 C 
HETATM   34  O2  UNL     1       1.011   4.056  24.389  1.00  0.00    -0.306 OA
ENDBRANCH  16  33
BRANCH  23  35
HETATM   35  O3  UNL     1       0.516   3.360  29.566  1.00  0.00    -0.389 OA
ATOM     36  H3  UNL     1       0.637   3.161  30.487  1.00  0.00     0.210 HD
ENDBRANCH  23  35
BRANCH  32  37
HETATM   37  N5  UNL     1      -3.328   1.807  22.866  1.00  0.00    -0.063 N 
HETATM   38  C25 UNL     1      -4.665   1.372  22.554  1.00  0.00     0.273 C 
HETATM   39  C26 UNL     1      -2.510   1.517  21.772  1.00  0.00     0.238 C 
HETATM   40  C27 UNL     1      -2.119   0.043  21.789  1.00  0.00     0.029 C 
HETATM   41  C28 UNL     1      -2.668  -0.464  23.073  1.00  0.00     0.029 C 
HETATM   42  C29 UNL     1      -2.854   0.799  23.849  1.00  0.00     0.238 C 
ENDBRANCH  32  37
ENDBRANCH   6  15
ENDBRANCH   4   5
ENDBRANCH   3   4
TORSDOF 10
ENDMDL
MODEL 3
REMARK VINA RESULT: -6.544494164      1.973      2.388
REMARK  10 active torsions:
REMARK  status: ('A' for Active; 'I' for Inactive)
REMARK    1  A    between atoms: C3_3  and  C4_4 
REMARK    2  A    between atoms: C4_4  and  N1_5 
REMARK    3  A    between atoms: N1_5  and  C5_6 
REMARK       I    between atoms: N1_5  and  C8_13 
REMARK    4  A    between atoms: C5_6  and  C6_7 
REMARK    5  A    between atoms: C6_7  and  C7_8 
REMARK    6  A    between atoms: C7_8  and  N2_9 
REMARK    7  A    between atoms: C8_13  and  C9_15 
REMARK    8  A    between atoms: C10_16  and  C11_17 
REMARK    9  A    between atoms: C16_23  and  O3_24 
REMARK   10  A    between atoms: C24_36  and  N5_37 
ROOT
HETATM    1  C1  UNL     1      -7.148   3.526  20.752  1.00  0.00     0.112 C 
HETATM    2  C2  UNL     1      -5.942   4.351  20.962  1.00  0.00    -0.109 C 
HETATM    3  C3  UNL     1      -4.960   5.042  21.119  1.00  0.00    -0.087 C 
ENDROOT
BRANCH   3   4
HETATM    4  C4  UNL     1      -3.775   5.892  21.311  1.00  0.00     0.220 C 
BRANCH   4   5
HETATM    5  N1  UNL     1      -2.567   5.117  21.260  1.00  0.00    -0.338 N 
HETATM    6  C8  UNL     1      -2.163   4.294  22.303  1.00  0.00     0.249 C 
HETATM    7  O1  UNL     1      -1.088   3.665  22.145  1.00  0.00    -0.268 OA
BRANCH   5   8
HETATM    8  C5  UNL     1      -1.749   5.213  20.060  1.00  0.00     0.129 C 
BRANCH   8   9
HETATM    9  C6  UNL     1      -0.969   6.507  20.026  1.00  0.00     0.047 C 
BRANCH   9  10
HETATM   10  C7  UNL     1      -1.605   7.484  19.036  1.00  0.00     0.231 C 
BRANCH  10  11
HETATM   11  N2  UNL     1      -1.577   8.796  19.660  1.00  0.00    -0.079 N 
ATOM     12  H23 UNL     1      -0.632   9.150  19.806  1.00  0.00     0.274 HD
ATOM     13  H22 UNL     1      -1.900   9.541  19.043  1.00  0.00     0.274 HD
ATOM     14  H21 UNL     1      -2.117   8.726  20.522  1.00  0.00     0.274 HD
ENDBRANCH  10  11
ENDBRANCH   9  10
ENDBRANCH   8   9
ENDBRANCH   5   8
BRANCH   6  15
HETATM   15  C9  UNL     1      -2.908   4.145  23.524  1.00  0.00     0.032 C 
HETATM   16  C10 UNL     1      -2.178   4.824  24.715  1.00  0.00     0.111 C 
HETATM   17  C12 UNL     1      -3.099   4.460  25.806  1.00  0.00     0.045 C 
HETATM   18  C13 UNL     1      -2.727   4.642  27.178  1.00  0.00     0.039 C 
HETATM   19  N4  UNL     1      -4.238   5.396  25.614  1.00  0.00    -0.390 N 
HETATM   20  C23 UNL     1      -3.690   3.087  25.436  1.00  0.00     0.070 C 
HETATM   21  C14 UNL     1      -1.576   4.198  27.945  1.00  0.00     0.025 A 
HETATM   22  C15 UNL     1      -1.544   3.309  29.088  1.00  0.00     0.046 A 
HETATM   23  C16 UNL     1      -1.795   4.831  29.324  1.00  0.00     0.064 A 
HETATM   24  C17 UNL     1      -3.147   5.085  29.816  1.00  0.00     0.066 C 
HETATM   25  C18 UNL     1      -3.807   6.408  29.600  1.00  0.00     0.241 C 
HETATM   26  N3  UNL     1      -5.108   6.370  28.968  1.00  0.00    -0.059 N 
HETATM   27  C19 UNL     1      -5.140   6.678  27.560  1.00  0.00     0.281 C 
HETATM   28  C21 UNL     1      -5.986   5.347  29.397  1.00  0.00     0.266 A 
HETATM   29  C22 UNL     1      -6.300   6.748  29.791  1.00  0.00     0.266 A 
HETATM   30  C20 UNL     1      -5.201   5.479  26.636  1.00  0.00     0.084 C 
ATOM     31  H4  UNL     1      -4.320   5.959  24.768  1.00  0.00     0.159 HD
HETATM   32  C24 UNL     1      -3.583   2.954  23.945  1.00  0.00     0.227 C 
BRANCH  16  33
HETATM   33  C11 UNL     1      -0.786   4.439  24.808  1.00  0.00     0.242 C 
HETATM   34  O2  UNL     1      -0.358   3.348  25.131  1.00  0.00    -0.306 OA
ENDBRANCH  16  33
BRANCH  23  35
HETATM   35  O3  UNL     1      -0.771   5.548  29.913  1.00  0.00    -0.389 OA
ATOM     36  H3  UNL     1      -0.018   5.085  30.262  1.00  0.00     0.210 HD
ENDBRANCH  23  35
BRANCH  32  37
HETATM   37  N5  UNL     1      -3.305   1.623  23.569  1.00  0.00    -0.063 N 
HETATM   38  C25 UNL     1      -3.661   1.273  22.218  1.00  0.00     0.273 C 
HETATM   39  C26 UNL     1      -2.084   1.016  23.869  1.00  0.00     0.238 C 
HETATM   40  C27 UNL     1      -2.304  -0.451  24.223  1.00  0.00     0.029 C 
HETATM   41  C28 UNL     1      -3.781  -0.603  24.242  1.00  0.00     0.029 C 
HETATM   42  C29 UNL     1      -4.235   0.812  24.396  1.00  0.00     0.238 C 
ENDBRANCH  32  37
ENDBRANCH   6  15
ENDBRANCH   4   5
ENDBRANCH   3   4
TORSDOF 10
ENDMDL
MODEL 4
REMARK VINA RESULT: -6.479559252      4.243      7.858
REMARK  10 active torsions:
REMARK  status: ('A' for Active; 'I' for Inactive)
REMARK    1  A    between atoms: C3_3  and  C4_4 
REMARK    2  A    between atoms: C4_4  and  N1_5 
REMARK    3  A    between atoms: N1_5  and  C5_6 
REMARK       I    between atoms: N1_5  and  C8_13 
REMARK    4  A    between atoms: C5_6  and  C6_7 
REMARK    5  A    between atoms: C6_7  and  C7_8 
REMARK    6  A    between atoms: C7_8  and  N2_9 
REMARK    7  A    between atoms: C8_13  and  C9_15 
REMARK    8  A    between atoms: C10_16  and  C11_17 
REMARK    9  A    between atoms: C16_23  and  O3_24 
REMARK   10  A    between atoms: C24_36  and  N5_37 
ROOT
HETATM    1  C1  UNL     1       0.858   2.794  24.848  1.00  0.00     0.112 C 
HETATM    2  C2  UNL     1       0.022   2.241  23.765  1.00  0.00    -0.109 C 
HETATM    3  C3  UNL     1      -0.680   1.784  22.890  1.00  0.00    -0.087 C 
ENDROOT
BRANCH   3   4
HETATM    4  C4  UNL     1      -1.542   1.236  21.832  1.00  0.00     0.220 C 
BRANCH   4   5
HETATM    5  N1  UNL     1      -1.127   1.692  20.536  1.00  0.00    -0.338 N 
HETATM    6  C8  UNL     1      -0.480   0.867  19.625  1.00  0.00     0.249 C 
HETATM    7  O1  UNL     1      -0.165   1.377  18.522  1.00  0.00    -0.268 OA
BRANCH   5   8
HETATM    8  C5  UNL     1      -1.405   3.076  20.181  1.00  0.00     0.129 C 
BRANCH   8   9
HETATM    9  C6  UNL     1      -2.446   3.681  21.094  1.00  0.00     0.047 C 
BRANCH   9  10
HETATM   10  C7  UNL     1      -1.968   5.036  21.621  1.00  0.00     0.231 C 
BRANCH  10  11
HETATM   11  N2  UNL     1      -0.614   5.226  21.129  1.00  0.00    -0.079 N 
ATOM     12  H23 UNL     1      -0.296   4.467  20.527  1.00  0.00     0.274 HD
ATOM     13  H22 UNL     1      -0.539   5.976  20.442  1.00  0.00     0.274 HD
ATOM     14  H21 UNL     1      -0.019   5.368  21.945  1.00  0.00     0.274 HD
ENDBRANCH  10  11
ENDBRANCH   9  10
ENDBRANCH   8   9
ENDBRANCH   5   8
BRANCH   6  15
HETATM   15  C9  UNL     1      -0.164  -0.510  19.895  1.00  0.00     0.032 C 
HETATM   16  C10 UNL     1       1.277  -0.656  20.455  1.00  0.00     0.111 C 
HETATM   17  C12 UNL     1       1.349  -2.124  20.565  1.00  0.00     0.045 C 
HETATM   18  C13 UNL     1       2.597  -2.786  20.802  1.00  0.00     0.039 C 
HETATM   19  N4  UNL     1       0.550  -2.413  21.785  1.00  0.00    -0.390 N 
HETATM   20  C23 UNL     1       0.484  -2.688  19.423  1.00  0.00     0.070 C 
HETATM   21  C14 UNL     1       3.877  -2.732  20.116  1.00  0.00     0.025 A 
HETATM   22  C15 UNL     1       4.578  -3.798  19.431  1.00  0.00     0.046 A 
HETATM   23  C16 UNL     1       4.781  -3.630  20.969  1.00  0.00     0.064 A 
HETATM   24  C17 UNL     1       4.219  -4.754  21.714  1.00  0.00     0.066 C 
HETATM   25  C18 UNL     1       3.792  -4.594  23.137  1.00  0.00     0.241 C 
HETATM   26  N3  UNL     1       2.435  -4.994  23.439  1.00  0.00    -0.059 N 
HETATM   27  C19 UNL     1       1.467  -3.932  23.545  1.00  0.00     0.281 C 
HETATM   28  C21 UNL     1       1.980  -6.187  22.826  1.00  0.00     0.266 A 
HETATM   29  C22 UNL     1       2.234  -6.207  24.294  1.00  0.00     0.266 A 
HETATM   30  C20 UNL     1       0.608  -3.714  22.316  1.00  0.00     0.084 C 
ATOM     31  H4  UNL     1      -0.022  -1.691  22.223  1.00  0.00     0.159 HD
HETATM   32  C24 UNL     1      -0.507  -1.621  19.059  1.00  0.00     0.227 C 
BRANCH  16  33
HETATM   33  C11 UNL     1       2.260   0.042  19.655  1.00  0.00     0.242 C 
HETATM   34  O2  UNL     1       3.243   0.626  20.066  1.00  0.00    -0.306 OA
ENDBRANCH  16  33
BRANCH  23  35
HETATM   35  O3  UNL     1       6.011  -3.156  21.386  1.00  0.00    -0.389 OA
ATOM     36  H3  UNL     1       6.215  -3.143  22.314  1.00  0.00     0.210 HD
ENDBRANCH  23  35
BRANCH  32  37
HETATM   37  N5  UNL     1      -0.764  -1.612  17.672  1.00  0.00    -0.063 N 
HETATM   38  C25 UNL     1      -2.101  -1.237  17.291  1.00  0.00     0.273 C 
HETATM   39  C26 UNL     1       0.126  -1.033  16.765  1.00  0.00     0.238 C 
HETATM   40  C27 UNL     1       0.175  -1.859  15.483  1.00  0.00     0.029 C 
HETATM   41  C28 UNL     1      -0.660  -3.050  15.786  1.00  0.00     0.029 C 
HETATM   42  C29 UNL     1      -0.678  -3.043  17.280  1.00  0.00     0.238 C 
ENDBRANCH  32  37
ENDBRANCH   6  15
ENDBRANCH   4   5
ENDBRANCH   3   4
TORSDOF 10
ENDMDL
MODEL 5
REMARK VINA RESULT: -6.378004170      2.817      7.059
REMARK  10 active torsions:
REMARK  status: ('A' for Active; 'I' for Inactive)
REMARK    1  A    between atoms: C3_3  and  C4_4 
REMARK    2  A    between atoms: C4_4  and  N1_5 
REMARK    3  A    between atoms: N1_5  and  C5_6 
REMARK       I    between atoms: N1_5  and  C8_13 
REMARK    4  A    between atoms: C5_6  and  C6_7 
REMARK    5  A    between atoms: C6_7  and  C7_8 
REMARK    6  A    between atoms: C7_8  and  N2_9 
REMARK    7  A    between atoms: C8_13  and  C9_15 
REMARK    8  A    between atoms: C10_16  and  C11_17 
REMARK    9  A    between atoms: C16_23  and  O3_24 
REMARK   10  A    between atoms: C24_36  and  N5_37 
ROOT
HETATM    1  C1  UNL     1      -1.551   8.460  19.606  1.00  0.00     0.112 C 
HETATM    2  C2  UNL     1      -1.821   7.033  19.871  1.00  0.00    -0.109 C 
HETATM    3  C3  UNL     1      -2.027   5.858  20.076  1.00  0.00    -0.087 C 
ENDROOT
BRANCH   3   4
HETATM    4  C4  UNL     1      -2.264   4.428  20.327  1.00  0.00     0.220 C 
BRANCH   4   5
HETATM    5  N1  UNL     1      -3.006   4.230  21.540  1.00  0.00    -0.338 N 
HETATM    6  C8  UNL     1      -2.671   3.253  22.470  1.00  0.00     0.249 C 
HETATM    7  O1  UNL     1      -3.394   3.174  23.493  1.00  0.00    -0.268 OA
BRANCH   5   8
HETATM    8  C5  UNL     1      -4.149   5.096  21.787  1.00  0.00     0.129 C 
BRANCH   8   9
HETATM    9  C6  UNL     1      -5.349   4.669  20.974  1.00  0.00     0.047 C 
BRANCH   9  10
HETATM   10  C7  UNL     1      -6.386   3.992  21.873  1.00  0.00     0.231 C 
BRANCH  10  11
HETATM   11  N2  UNL     1      -6.095   2.568  21.855  1.00  0.00    -0.079 N 
ATOM     12  H23 UNL     1      -6.063   2.178  20.914  1.00  0.00     0.274 HD
ATOM     13  H22 UNL     1      -5.133   2.353  22.116  1.00  0.00     0.274 HD
ATOM     14  H21 UNL     1      -6.785   2.117  22.454  1.00  0.00     0.274 HD
ENDBRANCH  10  11
ENDBRANCH   9  10
ENDBRANCH   8   9
ENDBRANCH   5   8
BRANCH   6  15
HETATM   15  C9  UNL     1      -1.561   2.353  22.303  1.00  0.00     0.032 C 
HETATM   16  C10 UNL     1      -2.038   0.958  21.815  1.00  0.00     0.111 C 
HETATM   17  C12 UNL     1      -0.747   0.248  21.805  1.00  0.00     0.045 C 
HETATM   18  C13 UNL     1      -0.688  -1.176  21.664  1.00  0.00     0.039 C 
HETATM   19  N4  UNL     1      -0.089   0.759  20.572  1.00  0.00    -0.390 N 
HETATM   20  C23 UNL     1       0.093   0.857  22.943  1.00  0.00     0.070 C 
HETATM   21  C14 UNL     1      -1.324  -2.257  22.399  1.00  0.00     0.025 A 
HETATM   22  C15 UNL     1      -0.699  -3.304  23.181  1.00  0.00     0.046 A 
HETATM   23  C16 UNL     1      -0.878  -3.516  21.646  1.00  0.00     0.064 A 
HETATM   24  C17 UNL     1       0.407  -3.548  20.951  1.00  0.00     0.066 C 
HETATM   25  C18 UNL     1       0.507  -3.190  19.504  1.00  0.00     0.241 C 
HETATM   26  N3  UNL     1       1.472  -2.165  19.171  1.00  0.00    -0.059 N 
HETATM   27  C19 UNL     1       0.945  -0.841  18.955  1.00  0.00     0.281 C 
HETATM   28  C21 UNL     1       2.718  -2.233  19.840  1.00  0.00     0.266 A 
HETATM   29  C22 UNL     1       2.683  -2.568  18.389  1.00  0.00     0.266 A 
HETATM   30  C20 UNL     1       1.075   0.107  20.129  1.00  0.00     0.084 C 
ATOM     31  H4  UNL     1      -0.471   1.557  20.065  1.00  0.00     0.159 HD
HETATM   32  C24 UNL     1      -0.447   2.235  23.194  1.00  0.00     0.227 C 
BRANCH  16  33
HETATM   33  C11 UNL     1      -3.127   0.431  22.610  1.00  0.00     0.242 C 
HETATM   34  O2  UNL     1      -4.250   0.179  22.220  1.00  0.00    -0.306 OA
ENDBRANCH  16  33
BRANCH  23  35
HETATM   35  O3  UNL     1      -1.824  -4.442  21.251  1.00  0.00    -0.389 OA
ATOM     36  H3  UNL     1      -1.605  -5.076  20.578  1.00  0.00     0.210 HD
ENDBRANCH  23  35
BRANCH  32  37
HETATM   37  N5  UNL     1      -0.397   2.562  24.565  1.00  0.00    -0.063 N 
HETATM   38  C25 UNL     1      -0.301   3.967  24.865  1.00  0.00     0.273 C 
HETATM   39  C26 UNL     1      -1.266   1.977  25.490  1.00  0.00     0.238 C 
HETATM   40  C27 UNL     1      -0.534   1.728  26.806  1.00  0.00     0.029 C 
HETATM   41  C28 UNL     1       0.876   2.087  26.511  1.00  0.00     0.029 C 
HETATM   42  C29 UNL     1       0.908   2.017  25.019  1.00  0.00     0.238 C 
ENDBRANCH  32  37
ENDBRANCH   6  15
ENDBRANCH   4   5
ENDBRANCH   3   4
TORSDOF 10
ENDMDL
