MODEL 1
REMARK VINA RESULT: -5.883019349      0.000      0.000
REMARK  8 active torsions:
REMARK  status: ('A' for Active; 'I' for Inactive)
REMARK    1  A    between atoms: C2_2  and  C3_3 
REMARK    2  A    between atoms: C5_8  and  C6_9 
REMARK    3  A    between atoms: C6_9  and  C7_10 
REMARK    4  A    between atoms: C10_15  and  O2_16 
REMARK       I    between atoms: N3_20  and  C13_21 
REMARK    5  A    between atoms: C15_24  and  C16_25 
REMARK    6  A    between atoms: C16_25  and  N4_26 
REMARK    7  A    between atoms: N4_26  and  C18_28 
REMARK    8  A    between atoms: N4_26  and  C20_30 
ROOT
HETATM    1  C3  UNL     1      -0.086   0.977  27.470  1.00  0.00     0.176 C 
HETATM    2  N1  UNL     1       0.160   2.018  28.437  1.00  0.00    -0.346 N 
ATOM      3  H1  UNL     1       1.133   2.317  28.501  1.00  0.00     0.163 HD
HETATM    4  C4  UNL     1      -0.720   2.690  29.307  1.00  0.00     0.241 C 
HETATM    5  O1  UNL     1      -0.666   2.491  30.544  1.00  0.00    -0.271 OA
HETATM    6  C5  UNL     1      -1.789   3.688  28.897  1.00  0.00     0.175 C 
HETATM    7  N2  UNL     1      -2.023   3.452  27.491  1.00  0.00    -0.359 N 
ATOM      8  H2  UNL     1      -1.114   3.448  27.028  1.00  0.00     0.162 HD
HETATM    9  C10 UNL     1      -2.950   3.236  26.551  1.00  0.00     0.135 C 
HETATM   10  C11 UNL     1      -3.689   4.058  25.511  1.00  0.00     0.163 C 
HETATM   11  C12 UNL     1      -3.401   5.496  25.492  1.00  0.00     0.041 C 
HETATM   12  N3  UNL     1      -3.521   3.356  24.206  1.00  0.00    -0.308 N 
HETATM   13  C13 UNL     1      -4.643   2.546  23.858  1.00  0.00     0.221 C 
HETATM   14  C14 UNL     1      -5.918   2.620  24.605  1.00  0.00     0.117 C 
HETATM   15  O3  UNL     1      -4.674   1.719  22.908  1.00  0.00    -0.273 OA
HETATM   16  C15 UNL     1      -2.333   3.520  23.405  1.00  0.00     0.051 C 
HETATM   17  C22 UNL     1      -1.036   3.054  23.967  1.00  0.00     0.126 C 
HETATM   18  C23 UNL     1       0.084   3.643  23.061  1.00  0.00     0.026 C 
HETATM   19  C24 UNL     1      -0.742   1.639  24.072  1.00  0.00     0.235 C 
HETATM   20  O4  UNL     1      -1.461   0.832  23.376  1.00  0.00    -0.272 OA
HETATM   21  N5  UNL     1       0.248   0.966  24.843  1.00  0.00    -0.290 N 
HETATM   22  C25 UNL     1       0.998  -0.115  24.132  1.00  0.00     0.162 C 
HETATM   23  C26 UNL     1       0.653   1.143  26.168  1.00  0.00     0.248 C 
HETATM   24  O5  UNL     1       1.872   1.514  26.363  1.00  0.00    -0.271 OA
ENDROOT
BRANCH  16  25
HETATM   25  C16 UNL     1      -2.467   3.503  21.942  1.00  0.00     0.228 C 
BRANCH  25  26
HETATM   26  N4  UNL     1      -2.828   4.561  21.100  1.00  0.00    -0.050 N 
HETATM   27  C17 UNL     1      -2.672   5.866  21.860  1.00  0.00     0.278 C 
BRANCH  26  28
HETATM   28  C18 UNL     1      -1.791   4.734  20.069  1.00  0.00     0.238 C 
HETATM   29  C19 UNL     1      -1.416   6.099  19.709  1.00  0.00     0.035 C 
ENDBRANCH  26  28
BRANCH  26  30
HETATM   30  C20 UNL     1      -4.127   4.639  20.547  1.00  0.00     0.238 C 
HETATM   31  C21 UNL     1      -5.200   5.116  21.487  1.00  0.00     0.035 C 
ENDBRANCH  26  30
ENDBRANCH  25  26
ENDBRANCH  16  25
BRANCH   9  32
HETATM   32  O2  UNL     1      -3.404   2.023  26.410  1.00  0.00    -0.348 OA
ATOM     33  H2  UNL     1      -2.925   1.432  25.840  1.00  0.00     0.219 HD
ENDBRANCH   9  32
BRANCH   6  34
HETATM   34  C6  UNL     1      -1.237   5.086  29.107  1.00  0.00     0.038 C 
BRANCH  34  35
HETATM   35  C7  UNL     1      -2.164   6.034  29.808  1.00  0.00    -0.020 C 
HETATM   36  C8  UNL     1      -1.467   7.366  30.086  1.00  0.00     0.009 C 
HETATM   37  C9  UNL     1      -3.476   6.253  29.117  1.00  0.00     0.009 C 
ENDBRANCH  34  35
ENDBRANCH   6  34
BRANCH   1  38
HETATM   38  C2  UNL     1       0.451  -0.293  28.168  1.00  0.00     0.030 C 
HETATM   39  C1  UNL     1       0.017  -1.546  27.512  1.00  0.00     0.007 C 
ENDBRANCH   1  38
TORSDOF 8
ENDMDL
MODEL 2
REMARK VINA RESULT: -5.746378795      2.223      7.588
REMARK  8 active torsions:
REMARK  status: ('A' for Active; 'I' for Inactive)
REMARK    1  A    between atoms: C2_2  and  C3_3 
REMARK    2  A    between atoms: C5_8  and  C6_9 
REMARK    3  A    between atoms: C6_9  and  C7_10 
REMARK    4  A    between atoms: C10_15  and  O2_16 
REMARK       I    between atoms: N3_20  and  C13_21 
REMARK    5  A    between atoms: C15_24  and  C16_25 
REMARK    6  A    between atoms: C16_25  and  N4_26 
REMARK    7  A    between atoms: N4_26  and  C18_28 
REMARK    8  A    between atoms: N4_26  and  C20_30 
ROOT
HETATM    1  C3  UNL     1      -5.663   3.748  21.762  1.00  0.00     0.176 C 
HETATM    2  N1  UNL     1      -5.143   5.012  21.300  1.00  0.00    -0.346 N 
ATOM      3  H1  UNL     1      -5.617   5.831  21.681  1.00  0.00     0.163 HD
HETATM    4  C4  UNL     1      -4.091   5.302  20.410  1.00  0.00     0.241 C 
HETATM    5  O1  UNL     1      -4.332   5.779  19.276  1.00  0.00    -0.271 OA
HETATM    6  C5  UNL     1      -2.611   5.093  20.682  1.00  0.00     0.175 C 
HETATM    7  N2  UNL     1      -2.546   4.149  21.773  1.00  0.00    -0.359 N 
ATOM      8  H2  UNL     1      -3.163   4.492  22.509  1.00  0.00     0.162 HD
HETATM    9  C10 UNL     1      -2.002   3.007  22.208  1.00  0.00     0.135 C 
HETATM   10  C11 UNL     1      -0.848   2.597  23.105  1.00  0.00     0.163 C 
HETATM   11  C12 UNL     1      -0.027   3.685  23.648  1.00  0.00     0.041 C 
HETATM   12  N3  UNL     1      -1.399   1.649  24.114  1.00  0.00    -0.308 N 
HETATM   13  C13 UNL     1      -1.171   0.281  23.781  1.00  0.00     0.221 C 
HETATM   14  C14 UNL     1      -0.261  -0.110  22.682  1.00  0.00     0.117 C 
HETATM   15  O3  UNL     1      -1.690  -0.706  24.367  1.00  0.00    -0.273 OA
HETATM   16  C15 UNL     1      -2.077   2.114  25.299  1.00  0.00     0.051 C 
HETATM   17  C22 UNL     1      -3.346   2.874  25.132  1.00  0.00     0.126 C 
HETATM   18  C23 UNL     1      -3.669   3.520  26.511  1.00  0.00     0.026 C 
HETATM   19  C24 UNL     1      -4.564   2.198  24.730  1.00  0.00     0.235 C 
HETATM   20  O4  UNL     1      -4.598   0.919  24.849  1.00  0.00    -0.272 OA
HETATM   21  N5  UNL     1      -5.775   2.733  24.205  1.00  0.00    -0.290 N 
HETATM   22  C25 UNL     1      -7.034   2.175  24.787  1.00  0.00     0.162 C 
HETATM   23  C26 UNL     1      -5.998   3.707  23.229  1.00  0.00     0.248 C 
HETATM   24  O5  UNL     1      -6.600   4.784  23.605  1.00  0.00    -0.271 OA
ENDROOT
BRANCH  16  25
HETATM   25  C16 UNL     1      -1.924   1.345  26.542  1.00  0.00     0.228 C 
BRANCH  25  26
HETATM   26  N4  UNL     1      -0.885   1.424  27.477  1.00  0.00    -0.050 N 
HETATM   27  C17 UNL     1      -0.268   0.047  27.642  1.00  0.00     0.278 C 
BRANCH  26  28
HETATM   28  C18 UNL     1       0.249   2.149  26.879  1.00  0.00     0.238 C 
HETATM   29  C19 UNL     1       1.378   1.356  26.397  1.00  0.00     0.035 C 
ENDBRANCH  26  28
BRANCH  26  30
HETATM   30  C20 UNL     1      -1.132   1.851  28.802  1.00  0.00     0.238 C 
HETATM   31  C21 UNL     1      -0.874   3.309  29.068  1.00  0.00     0.035 C 
ENDBRANCH  26  30
ENDBRANCH  25  26
ENDBRANCH  16  25
BRANCH   9  32
HETATM   32  O2  UNL     1      -2.538   1.887  21.813  1.00  0.00    -0.348 OA
ATOM     33  H2  UNL     1      -2.380   1.609  20.918  1.00  0.00     0.219 HD
ENDBRANCH   9  32
BRANCH   6  34
HETATM   34  C6  UNL     1      -2.016   6.423  21.106  1.00  0.00     0.038 C 
BRANCH  34  35
HETATM   35  C7  UNL     1      -1.225   7.130  20.043  1.00  0.00    -0.020 C 
HETATM   36  C8  UNL     1      -0.722   6.137  18.995  1.00  0.00     0.009 C 
HETATM   37  C9  UNL     1      -1.936   8.277  19.393  1.00  0.00     0.009 C 
ENDBRANCH  34  35
ENDBRANCH   6  34
BRANCH   1  38
HETATM   38  C2  UNL     1      -6.976   3.589  20.964  1.00  0.00     0.030 C 
HETATM   39  C1  UNL     1      -7.669   2.309  21.231  1.00  0.00     0.007 C 
ENDBRANCH   1  38
TORSDOF 8
ENDMDL
MODEL 3
REMARK VINA RESULT: -5.692469380      0.986      1.232
REMARK  8 active torsions:
REMARK  status: ('A' for Active; 'I' for Inactive)
REMARK    1  A    between atoms: C2_2  and  C3_3 
REMARK    2  A    between atoms: C5_8  and  C6_9 
REMARK    3  A    between atoms: C6_9  and  C7_10 
REMARK    4  A    between atoms: C10_15  and  O2_16 
REMARK       I    between atoms: N3_20  and  C13_21 
REMARK    5  A    between atoms: C15_24  and  C16_25 
REMARK    6  A    between atoms: C16_25  and  N4_26 
REMARK    7  A    between atoms: N4_26  and  C18_28 
REMARK    8  A    between atoms: N4_26  and  C20_30 
ROOT
HETATM    1  C3  UNL     1      -0.722   0.497  28.274  1.00  0.00     0.176 C 
HETATM    2  N1  UNL     1      -0.301   1.526  29.193  1.00  0.00    -0.346 N 
ATOM      3  H1  UNL     1       0.710   1.631  29.277  1.00  0.00     0.163 HD
HETATM    4  C4  UNL     1      -1.053   2.409  29.991  1.00  0.00     0.241 C 
HETATM    5  O1  UNL     1      -1.072   2.277  31.238  1.00  0.00    -0.271 OA
HETATM    6  C5  UNL     1      -1.892   3.571  29.488  1.00  0.00     0.175 C 
HETATM    7  N2  UNL     1      -2.130   3.301  28.089  1.00  0.00    -0.359 N 
ATOM      8  H2  UNL     1      -1.228   3.091  27.662  1.00  0.00     0.162 HD
HETATM    9  C10 UNL     1      -3.057   3.215  27.128  1.00  0.00     0.135 C 
HETATM   10  C11 UNL     1      -3.590   4.102  26.017  1.00  0.00     0.163 C 
HETATM   11  C12 UNL     1      -3.022   5.452  25.933  1.00  0.00     0.041 C 
HETATM   12  N3  UNL     1      -3.530   3.304  24.760  1.00  0.00    -0.308 N 
HETATM   13  C13 UNL     1      -4.780   2.710  24.413  1.00  0.00     0.221 C 
HETATM   14  C14 UNL     1      -6.035   3.078  25.106  1.00  0.00     0.117 C 
HETATM   15  O3  UNL     1      -4.950   1.850  23.509  1.00  0.00    -0.273 OA
HETATM   16  C15 UNL     1      -2.313   3.183  23.997  1.00  0.00     0.051 C 
HETATM   17  C22 UNL     1      -1.149   2.506  24.632  1.00  0.00     0.126 C 
HETATM   18  C23 UNL     1       0.089   2.809  23.738  1.00  0.00     0.026 C 
HETATM   19  C24 UNL     1      -1.144   1.070  24.822  1.00  0.00     0.235 C 
HETATM   20  O4  UNL     1      -1.990   0.379  24.144  1.00  0.00    -0.272 OA
HETATM   21  N5  UNL     1      -0.328   0.263  25.666  1.00  0.00    -0.290 N 
HETATM   22  C25 UNL     1       0.212  -0.985  25.043  1.00  0.00     0.162 C 
HETATM   23  C26 UNL     1       0.068   0.437  26.994  1.00  0.00     0.248 C 
HETATM   24  O5  UNL     1       1.332   0.572  27.214  1.00  0.00    -0.271 OA
ENDROOT
BRANCH  16  25
HETATM   25  C16 UNL     1      -2.408   3.104  22.532  1.00  0.00     0.228 C 
BRANCH  25  26
HETATM   26  N4  UNL     1      -2.622   4.152  21.629  1.00  0.00    -0.050 N 
HETATM   27  C17 UNL     1      -2.013   5.421  22.197  1.00  0.00     0.278 C 
BRANCH  26  28
HETATM   28  C18 UNL     1      -1.763   3.954  20.449  1.00  0.00     0.238 C 
HETATM   29  C19 UNL     1      -1.058   2.680  20.332  1.00  0.00     0.035 C 
ENDBRANCH  26  28
BRANCH  26  30
HETATM   30  C20 UNL     1      -3.931   4.536  21.257  1.00  0.00     0.238 C 
HETATM   31  C21 UNL     1      -4.017   5.699  20.308  1.00  0.00     0.035 C 
ENDBRANCH  26  30
ENDBRANCH  25  26
ENDBRANCH  16  25
BRANCH   9  32
HETATM   32  O2  UNL     1      -3.739   2.109  27.035  1.00  0.00    -0.348 OA
ATOM     33  H2  UNL     1      -4.568   2.135  26.571  1.00  0.00     0.219 HD
ENDBRANCH   9  32
BRANCH   6  34
HETATM   34  C6  UNL     1      -1.079   4.843  29.643  1.00  0.00     0.038 C 
BRANCH  34  35
HETATM   35  C7  UNL     1      -1.820   6.109  29.327  1.00  0.00    -0.020 C 
HETATM   36  C8  UNL     1      -3.217   6.086  29.946  1.00  0.00     0.009 C 
HETATM   37  C9  UNL     1      -1.094   7.367  29.695  1.00  0.00     0.009 C 
ENDBRANCH  34  35
ENDBRANCH   6  34
BRANCH   1  38
HETATM   38  C2  UNL     1      -0.467  -0.809  29.059  1.00  0.00     0.030 C 
HETATM   39  C1  UNL     1      -1.177  -1.978  28.493  1.00  0.00     0.007 C 
ENDBRANCH   1  38
TORSDOF 8
ENDMDL
MODEL 4
REMARK VINA RESULT: -5.642588043      0.309      1.198
REMARK  8 active torsions:
REMARK  status: ('A' for Active; 'I' for Inactive)
REMARK    1  A    between atoms: C2_2  and  C3_3 
REMARK    2  A    between atoms: C5_8  and  C6_9 
REMARK    3  A    between atoms: C6_9  and  C7_10 
REMARK    4  A    between atoms: C10_15  and  O2_16 
REMARK       I    between atoms: N3_20  and  C13_21 
REMARK    5  A    between atoms: C15_24  and  C16_25 
REMARK    6  A    between atoms: C16_25  and  N4_26 
REMARK    7  A    between atoms: N4_26  and  C18_28 
REMARK    8  A    between atoms: N4_26  and  C20_30 
ROOT
HETATM    1  C3  UNL     1      -0.191   0.919  27.705  1.00  0.00     0.176 C 
HETATM    2  N1  UNL     1       0.091   1.962  28.660  1.00  0.00    -0.346 N 
ATOM      3  H1  UNL     1       1.074   2.227  28.723  1.00  0.00     0.163 HD
HETATM    4  C4  UNL     1      -0.766   2.677  29.519  1.00  0.00     0.241 C 
HETATM    5  O1  UNL     1      -0.722   2.491  30.758  1.00  0.00    -0.271 OA
HETATM    6  C5  UNL     1      -1.798   3.707  29.094  1.00  0.00     0.175 C 
HETATM    7  N2  UNL     1      -2.037   3.463  27.691  1.00  0.00    -0.359 N 
ATOM      8  H2  UNL     1      -1.127   3.420  27.230  1.00  0.00     0.162 HD
HETATM    9  C10 UNL     1      -2.969   3.269  26.751  1.00  0.00     0.135 C 
HETATM   10  C11 UNL     1      -3.675   4.104  25.699  1.00  0.00     0.163 C 
HETATM   11  C12 UNL     1      -3.335   5.531  25.663  1.00  0.00     0.041 C 
HETATM   12  N3  UNL     1      -3.530   3.381  24.403  1.00  0.00    -0.308 N 
HETATM   13  C13 UNL     1      -4.680   2.608  24.062  1.00  0.00     0.221 C 
HETATM   14  C14 UNL     1      -5.953   2.738  24.805  1.00  0.00     0.117 C 
HETATM   15  O3  UNL     1      -4.739   1.771  23.122  1.00  0.00    -0.273 OA
HETATM   16  C15 UNL     1      -2.335   3.492  23.604  1.00  0.00     0.051 C 
HETATM   17  C22 UNL     1      -1.057   2.986  24.175  1.00  0.00     0.126 C 
HETATM   18  C23 UNL     1       0.085   3.523  23.264  1.00  0.00     0.026 C 
HETATM   19  C24 UNL     1      -0.815   1.563  24.297  1.00  0.00     0.235 C 
HETATM   20  O4  UNL     1      -1.561   0.774  23.609  1.00  0.00    -0.272 OA
HETATM   21  N5  UNL     1       0.148   0.864  25.079  1.00  0.00    -0.290 N 
HETATM   22  C25 UNL     1       0.860  -0.252  24.383  1.00  0.00     0.162 C 
HETATM   23  C26 UNL     1       0.556   1.043  26.403  1.00  0.00     0.248 C 
HETATM   24  O5  UNL     1       1.788   1.371  26.596  1.00  0.00    -0.271 OA
ENDROOT
BRANCH  16  25
HETATM   25  C16 UNL     1      -2.466   3.461  22.140  1.00  0.00     0.228 C 
BRANCH  25  26
HETATM   26  N4  UNL     1      -2.700   4.538  21.277  1.00  0.00    -0.050 N 
HETATM   27  C17 UNL     1      -1.896   4.331  20.006  1.00  0.00     0.278 C 
BRANCH  26  28
HETATM   28  C18 UNL     1      -4.068   4.437  20.740  1.00  0.00     0.238 C 
HETATM   29  C19 UNL     1      -5.134   5.115  21.474  1.00  0.00     0.035 C 
ENDBRANCH  26  28
BRANCH  26  30
HETATM   30  C20 UNL     1      -2.393   5.862  21.666  1.00  0.00     0.238 C 
HETATM   31  C21 UNL     1      -1.928   6.767  20.559  1.00  0.00     0.035 C 
ENDBRANCH  26  30
ENDBRANCH  25  26
ENDBRANCH  16  25
BRANCH   9  32
HETATM   32  O2  UNL     1      -3.467   2.072  26.624  1.00  0.00    -0.348 OA
ATOM     33  H2  UNL     1      -4.101   1.925  25.931  1.00  0.00     0.219 HD
ENDBRANCH   9  32
BRANCH   6  34
HETATM   34  C6  UNL     1      -1.195   5.087  29.288  1.00  0.00     0.038 C 
BRANCH  34  35
HETATM   35  C7  UNL     1      -2.101   6.086  29.947  1.00  0.00    -0.020 C 
HETATM   36  C8  UNL     1      -1.394   7.432  30.108  1.00  0.00     0.009 C 
HETATM   37  C9  UNL     1      -3.432   6.259  29.282  1.00  0.00     0.009 C 
ENDBRANCH  34  35
ENDBRANCH   6  34
BRANCH   1  38
HETATM   38  C2  UNL     1       0.298  -0.361  28.420  1.00  0.00     0.030 C 
HETATM   39  C1  UNL     1      -0.132  -1.606  27.745  1.00  0.00     0.007 C 
ENDBRANCH   1  38
TORSDOF 8
ENDMDL
MODEL 5
REMARK VINA RESULT: -5.601079769      3.110      5.485
REMARK  8 active torsions:
REMARK  status: ('A' for Active; 'I' for Inactive)
REMARK    1  A    between atoms: C2_2  and  C3_3 
REMARK    2  A    between atoms: C5_8  and  C6_9 
REMARK    3  A    between atoms: C6_9  and  C7_10 
REMARK    4  A    between atoms: C10_15  and  O2_16 
REMARK       I    between atoms: N3_20  and  C13_21 
REMARK    5  A    between atoms: C15_24  and  C16_25 
REMARK    6  A    between atoms: C16_25  and  N4_26 
REMARK    7  A    between atoms: N4_26  and  C18_28 
REMARK    8  A    between atoms: N4_26  and  C20_30 
ROOT
HETATM    1  C3  UNL     1      -6.059   4.591  25.489  1.00  0.00     0.176 C 
HETATM    2  N1  UNL     1      -5.419   4.829  26.759  1.00  0.00    -0.346 N 
ATOM      3  H1  UNL     1      -5.679   4.174  27.496  1.00  0.00     0.163 HD
HETATM    4  C4  UNL     1      -4.494   5.817  27.151  1.00  0.00     0.241 C 
HETATM    5  O1  UNL     1      -4.835   6.729  27.940  1.00  0.00    -0.271 OA
HETATM    6  C5  UNL     1      -3.045   5.908  26.702  1.00  0.00     0.175 C 
HETATM    7  N2  UNL     1      -2.960   5.114  25.499  1.00  0.00    -0.359 N 
ATOM      8  H2  UNL     1      -3.382   4.208  25.703  1.00  0.00     0.162 HD
HETATM    9  C10 UNL     1      -2.550   5.087  24.226  1.00  0.00     0.135 C 
HETATM   10  C11 UNL     1      -1.349   4.568  23.457  1.00  0.00     0.163 C 
HETATM   11  C12 UNL     1      -0.280   3.956  24.253  1.00  0.00     0.041 C 
HETATM   12  N3  UNL     1      -1.878   3.727  22.345  1.00  0.00    -0.308 N 
HETATM   13  C13 UNL     1      -1.939   4.420  21.099  1.00  0.00     0.221 C 
HETATM   14  C14 UNL     1      -1.300   5.741  20.912  1.00  0.00     0.117 C 
HETATM   15  O3  UNL     1      -2.512   3.996  20.060  1.00  0.00    -0.273 OA
HETATM   16  C15 UNL     1      -2.263   2.353  22.552  1.00  0.00     0.051 C 
HETATM   17  C22 UNL     1      -3.398   2.072  23.474  1.00  0.00     0.126 C 
HETATM   18  C23 UNL     1      -3.376   0.542  23.760  1.00  0.00     0.026 C 
HETATM   19  C24 UNL     1      -4.761   2.370  23.080  1.00  0.00     0.235 C 
HETATM   20  O4  UNL     1      -4.988   2.558  21.829  1.00  0.00    -0.272 OA
HETATM   21  N5  UNL     1      -5.935   2.494  23.876  1.00  0.00    -0.290 N 
HETATM   22  C25 UNL     1      -7.156   1.821  23.336  1.00  0.00     0.162 C 
HETATM   23  C26 UNL     1      -6.150   3.140  25.096  1.00  0.00     0.248 C 
HETATM   24  O5  UNL     1      -6.493   2.402  26.096  1.00  0.00    -0.271 OA
ENDROOT
BRANCH  16  25
HETATM   25  C16 UNL     1      -2.038   1.390  21.465  1.00  0.00     0.228 C 
BRANCH  25  26
HETATM   26  N4  UNL     1      -0.837   0.766  21.106  1.00  0.00    -0.050 N 
HETATM   27  C17 UNL     1       0.028   0.621  22.346  1.00  0.00     0.278 C 
BRANCH  26  28
HETATM   28  C18 UNL     1      -1.101  -0.651  20.805  1.00  0.00     0.238 C 
HETATM   29  C19 UNL     1      -0.830  -1.628  21.857  1.00  0.00     0.035 C 
ENDBRANCH  26  28
BRANCH  26  30
HETATM   30  C20 UNL     1       0.027   1.347  20.150  1.00  0.00     0.238 C 
HETATM   31  C21 UNL     1      -0.136   0.840  18.743  1.00  0.00     0.035 C 
ENDBRANCH  26  30
ENDBRANCH  25  26
ENDBRANCH  16  25
BRANCH   9  32
HETATM   32  O2  UNL     1      -3.324   5.623  23.325  1.00  0.00    -0.348 OA
ATOM     33  H2  UNL     1      -3.227   6.553  23.152  1.00  0.00     0.219 HD
ENDBRANCH   9  32
BRANCH   6  34
HETATM   34  C6  UNL     1      -2.175   5.306  27.789  1.00  0.00     0.038 C 
BRANCH  34  35
HETATM   35  C7  UNL     1      -2.215   6.028  29.105  1.00  0.00    -0.020 C 
HETATM   36  C8  UNL     1      -2.432   5.043  30.254  1.00  0.00     0.009 C 
HETATM   37  C9  UNL     1      -1.032   6.908  29.372  1.00  0.00     0.009 C 
ENDBRANCH  34  35
ENDBRANCH   6  34
BRANCH   1  38
HETATM   38  C2  UNL     1      -7.494   5.121  25.707  1.00  0.00     0.030 C 
HETATM   39  C1  UNL     1      -7.874   5.206  27.134  1.00  0.00     0.007 C 
ENDBRANCH   1  38
TORSDOF 8
ENDMDL
