MODEL 1
REMARK VINA RESULT: -6.657627999      0.000      0.000
REMARK  8 active torsions:
REMARK  status: ('A' for Active; 'I' for Inactive)
REMARK    1  A    between atoms: C2_2  and  N1_3 
REMARK    2  A    between atoms: C5_6  and  N2_7 
REMARK    3  A    between atoms: N5_25  and  C19_26 
REMARK    4  A    between atoms: C19_26  and  O2_27 
REMARK    5  A    between atoms: C19_26  and  C20_29 
REMARK    6  A    between atoms: C20_29  and  C21_30 
REMARK    7  A    between atoms: C20_29  and  N6_34 
REMARK    8  A    between atoms: C21_30  and  C22_31 
REMARK       I    between atoms: N6_34  and  C25_36 
REMARK       I    between atoms: C25_36  and  N7_38 
ROOT
HETATM    1  N1  UNL     1      -1.227   3.248  24.419  1.00  0.00     0.021 N 
HETATM    2  C3  UNL     1      -2.150   4.326  24.649  1.00  0.00     0.301 C 
HETATM    3  C4  UNL     1      -2.471   4.425  26.087  1.00  0.00    -0.026 C 
HETATM    4  C5  UNL     1      -3.144   5.426  26.670  1.00  0.00     0.209 C 
HETATM    5  C11 UNL     1      -1.903   3.221  26.697  1.00  0.00     0.073 C 
HETATM    6  C12 UNL     1      -1.368   2.417  25.546  1.00  0.00     0.220 C 
HETATM    7  C13 UNL     1      -2.403   1.319  25.366  1.00  0.00     0.044 C 
HETATM    8  C14 UNL     1      -2.077   0.390  24.269  1.00  0.00     0.031 C 
HETATM    9  C15 UNL     1      -0.875  -0.482  24.369  1.00  0.00     0.036 C 
HETATM   10  C16 UNL     1      -0.093   0.520  23.599  1.00  0.00     0.124 C 
HETATM   11  N4  UNL     1       0.178   0.229  22.200  1.00  0.00    -0.351 N 
ATOM     12  H4  UNL     1       0.992   0.013  21.625  1.00  0.00     0.163 HD
HETATM   13  C17 UNL     1      -1.225   0.386  22.009  1.00  0.00     0.250 C 
HETATM   14  O1  UNL     1      -1.951  -0.063  21.115  1.00  0.00    -0.271 OA
HETATM   15  C18 UNL     1      -1.340   1.204  23.208  1.00  0.00     0.163 C 
HETATM   16  N5  UNL     1      -1.524   2.557  23.214  1.00  0.00    -0.192 N 
ENDROOT
BRANCH  16  17
HETATM   17  C19 UNL     1      -1.506   3.380  22.097  1.00  0.00     0.267 C 
BRANCH  17  18
HETATM   18  O2  UNL     1      -0.377   3.298  21.267  1.00  0.00    -0.373 OA
ATOM     19  H2  UNL     1       0.249   4.012  21.321  1.00  0.00     0.212 HD
ENDBRANCH  17  18
BRANCH  17  20
HETATM   20  C20 UNL     1      -2.683   3.469  21.154  1.00  0.00     0.136 C 
BRANCH  20  21
HETATM   21  C21 UNL     1      -3.920   2.856  21.621  1.00  0.00     0.033 C 
BRANCH  21  22
HETATM   22  C22 UNL     1      -4.983   3.720  22.207  1.00  0.00    -0.021 C 
HETATM   23  C23 UNL     1      -6.190   3.733  21.251  1.00  0.00     0.009 C 
HETATM   24  C24 UNL     1      -5.445   3.411  23.590  1.00  0.00     0.009 C 
ENDBRANCH  21  22
ENDBRANCH  20  21
BRANCH  20  25
HETATM   25  N6  UNL     1      -2.874   4.918  20.951  1.00  0.00    -0.334 N 
HETATM   26  C25 UNL     1      -2.103   5.590  19.989  1.00  0.00     0.318 C 
HETATM   27  O3  UNL     1      -1.265   4.948  19.318  1.00  0.00    -0.247 OA
HETATM   28  N7  UNL     1      -2.256   6.977  19.765  1.00  0.00    -0.343 N 
HETATM   29  C26 UNL     1      -1.446   7.629  18.768  1.00  0.00     0.154 C 
HETATM   30  C27 UNL     1      -3.229   7.705  20.548  1.00  0.00     0.154 C 
ATOM     31  H6  UNL     1      -3.562   5.428  21.506  1.00  0.00     0.164 HD
ENDBRANCH  20  25
ENDBRANCH  17  20
ENDBRANCH  16  17
BRANCH   1  32
HETATM   32  C2  UNL     1       0.062   3.850  24.227  1.00  0.00     0.261 C 
HETATM   33  C1  UNL     1       1.190   3.209  24.970  1.00  0.00     0.037 C 
ENDBRANCH   1  32
BRANCH   4  34
HETATM   34  N2  UNL     1      -3.495   5.618  27.983  1.00  0.00    -0.017 N 
HETATM   35  C6  UNL     1      -4.580   6.577  28.168  1.00  0.00     0.275 C 
HETATM   36  C7  UNL     1      -5.172   6.247  29.533  1.00  0.00     0.303 C 
HETATM   37  N3  UNL     1      -4.205   5.261  30.049  1.00  0.00     0.118 N 
HETATM   38  C8  UNL     1      -2.958   5.984  30.189  1.00  0.00     0.303 C 
HETATM   39  C10 UNL     1      -3.954   4.531  28.777  1.00  0.00     0.513 C 
HETATM   40  C9  UNL     1      -2.390   6.124  28.800  1.00  0.00     0.275 C 
ENDBRANCH   4  34
TORSDOF 8
ENDMDL
MODEL 2
REMARK VINA RESULT: -6.556339707      1.360      2.892
REMARK  8 active torsions:
REMARK  status: ('A' for Active; 'I' for Inactive)
REMARK    1  A    between atoms: C2_2  and  N1_3 
REMARK    2  A    between atoms: C5_6  and  N2_7 
REMARK    3  A    between atoms: N5_25  and  C19_26 
REMARK    4  A    between atoms: C19_26  and  O2_27 
REMARK    5  A    between atoms: C19_26  and  C20_29 
REMARK    6  A    between atoms: C20_29  and  C21_30 
REMARK    7  A    between atoms: C20_29  and  N6_34 
REMARK    8  A    between atoms: C21_30  and  C22_31 
REMARK       I    between atoms: N6_34  and  C25_36 
REMARK       I    between atoms: C25_36  and  N7_38 
ROOT
HETATM    1  N1  UNL     1      -0.776   2.975  24.529  1.00  0.00     0.021 N 
HETATM    2  C3  UNL     1      -1.503   4.137  24.963  1.00  0.00     0.301 C 
HETATM    3  C4  UNL     1      -1.891   3.995  26.381  1.00  0.00    -0.026 C 
HETATM    4  C5  UNL     1      -2.409   4.962  27.150  1.00  0.00     0.209 C 
HETATM    5  C11 UNL     1      -1.589   2.605  26.731  1.00  0.00     0.073 C 
HETATM    6  C12 UNL     1      -1.136   1.970  25.447  1.00  0.00     0.220 C 
HETATM    7  C13 UNL     1      -2.338   1.149  25.011  1.00  0.00     0.044 C 
HETATM    8  C14 UNL     1      -2.116   0.424  23.747  1.00  0.00     0.031 C 
HETATM    9  C15 UNL     1      -1.099  -0.662  23.686  1.00  0.00     0.036 C 
HETATM   10  C16 UNL     1      -0.102   0.312  23.168  1.00  0.00     0.124 C 
HETATM   11  N4  UNL     1       0.201   0.270  21.746  1.00  0.00    -0.351 N 
ATOM     12  H4  UNL     1       0.997   0.027  21.158  1.00  0.00     0.163 HD
HETATM   13  C17 UNL     1      -1.136   0.726  21.560  1.00  0.00     0.250 C 
HETATM   14  O1  UNL     1      -1.873   0.618  20.574  1.00  0.00    -0.271 OA
HETATM   15  C18 UNL     1      -1.178   1.285  22.904  1.00  0.00     0.163 C 
HETATM   16  N5  UNL     1      -1.116   2.617  23.197  1.00  0.00    -0.192 N 
ENDROOT
BRANCH  16  17
HETATM   17  C19 UNL     1      -0.878   3.634  22.284  1.00  0.00     0.267 C 
BRANCH  17  18
HETATM   18  O2  UNL     1       0.084   3.386  21.293  1.00  0.00    -0.373 OA
ATOM     19  H2  UNL     1       0.482   4.145  20.881  1.00  0.00     0.212 HD
ENDBRANCH  17  18
BRANCH  17  20
HETATM   20  C20 UNL     1      -2.006   4.343  21.570  1.00  0.00     0.136 C 
BRANCH  20  21
HETATM   21  C21 UNL     1      -1.812   4.572  20.145  1.00  0.00     0.033 C 
BRANCH  21  22
HETATM   22  C22 UNL     1      -1.915   5.960  19.611  1.00  0.00    -0.021 C 
HETATM   23  C23 UNL     1      -3.291   6.535  19.995  1.00  0.00     0.009 C 
HETATM   24  C24 UNL     1      -0.847   6.930  19.985  1.00  0.00     0.009 C 
ENDBRANCH  21  22
ENDBRANCH  20  21
BRANCH  20  25
HETATM   25  N6  UNL     1      -3.178   3.475  21.794  1.00  0.00    -0.334 N 
HETATM   26  C25 UNL     1      -4.263   3.956  22.544  1.00  0.00     0.318 C 
HETATM   27  O3  UNL     1      -4.219   5.116  23.010  1.00  0.00    -0.247 OA
HETATM   28  N7  UNL     1      -5.403   3.156  22.781  1.00  0.00    -0.343 N 
HETATM   29  C26 UNL     1      -6.497   3.688  23.554  1.00  0.00     0.154 C 
HETATM   30  C27 UNL     1      -5.440   1.818  22.235  1.00  0.00     0.154 C 
ATOM     31  H6  UNL     1      -3.200   2.531  21.407  1.00  0.00     0.164 HD
ENDBRANCH  20  25
ENDBRANCH  17  20
ENDBRANCH  16  17
BRANCH   1  32
HETATM   32  C2  UNL     1       0.610   3.348  24.502  1.00  0.00     0.261 C 
HETATM   33  C1  UNL     1       1.524   2.492  25.317  1.00  0.00     0.037 C 
ENDBRANCH   1  32
BRANCH   4  34
HETATM   34  N2  UNL     1      -2.802   4.941  28.465  1.00  0.00    -0.017 N 
HETATM   35  C6  UNL     1      -3.895   4.011  28.737  1.00  0.00     0.275 C 
HETATM   36  C7  UNL     1      -3.808   3.724  30.231  1.00  0.00     0.303 C 
HETATM   37  N3  UNL     1      -2.790   4.698  30.664  1.00  0.00     0.118 N 
HETATM   38  C8  UNL     1      -3.378   6.000  30.423  1.00  0.00     0.303 C 
HETATM   39  C10 UNL     1      -1.884   4.588  29.490  1.00  0.00     0.513 C 
HETATM   40  C9  UNL     1      -3.277   6.242  28.938  1.00  0.00     0.275 C 
ENDBRANCH   4  34
TORSDOF 8
ENDMDL
MODEL 3
REMARK VINA RESULT: -6.300735244      2.563      5.184
REMARK  8 active torsions:
REMARK  status: ('A' for Active; 'I' for Inactive)
REMARK    1  A    between atoms: C2_2  and  N1_3 
REMARK    2  A    between atoms: C5_6  and  N2_7 
REMARK    3  A    between atoms: N5_25  and  C19_26 
REMARK    4  A    between atoms: C19_26  and  O2_27 
REMARK    5  A    between atoms: C19_26  and  C20_29 
REMARK    6  A    between atoms: C20_29  and  C21_30 
REMARK    7  A    between atoms: C20_29  and  N6_34 
REMARK    8  A    between atoms: C21_30  and  C22_31 
REMARK       I    between atoms: N6_34  and  C25_36 
REMARK       I    between atoms: C25_36  and  N7_38 
ROOT
HETATM    1  N1  UNL     1      -3.191   3.637  23.875  1.00  0.00     0.021 N 
HETATM    2  C3  UNL     1      -4.194   3.723  22.848  1.00  0.00     0.301 C 
HETATM    3  C4  UNL     1      -5.516   3.359  23.394  1.00  0.00    -0.026 C 
HETATM    4  C5  UNL     1      -6.690   3.511  22.767  1.00  0.00     0.209 C 
HETATM    5  C11 UNL     1      -5.251   2.813  24.727  1.00  0.00     0.073 C 
HETATM    6  C12 UNL     1      -3.753   2.787  24.845  1.00  0.00     0.220 C 
HETATM    7  C13 UNL     1      -3.406   1.321  24.645  1.00  0.00     0.044 C 
HETATM    8  C14 UNL     1      -1.958   1.054  24.723  1.00  0.00     0.031 C 
HETATM    9  C15 UNL     1      -1.235   1.258  26.009  1.00  0.00     0.036 C 
HETATM   10  C16 UNL     1      -0.843   2.620  25.562  1.00  0.00     0.124 C 
HETATM   11  N4  UNL     1       0.525   2.809  25.106  1.00  0.00    -0.351 N 
ATOM     12  H4  UNL     1       1.358   3.306  25.422  1.00  0.00     0.163 HD
HETATM   13  C17 UNL     1       0.158   1.975  24.011  1.00  0.00     0.250 C 
HETATM   14  O1  UNL     1       0.873   1.286  23.274  1.00  0.00    -0.271 OA
HETATM   15  C18 UNL     1      -1.252   2.296  24.183  1.00  0.00     0.163 C 
HETATM   16  N5  UNL     1      -1.969   3.121  23.366  1.00  0.00    -0.192 N 
ENDROOT
BRANCH  16  17
HETATM   17  C19 UNL     1      -1.451   3.878  22.326  1.00  0.00     0.267 C 
BRANCH  17  18
HETATM   18  O2  UNL     1      -0.060   4.070  22.312  1.00  0.00    -0.373 OA
ATOM     19  H2  UNL     1       0.285   4.755  22.872  1.00  0.00     0.212 HD
ENDBRANCH  17  18
BRANCH  17  20
HETATM   20  C20 UNL     1      -1.828   3.618  20.886  1.00  0.00     0.136 C 
BRANCH  20  21
HETATM   21  C21 UNL     1      -1.900   4.792  20.026  1.00  0.00     0.033 C 
BRANCH  21  22
HETATM   22  C22 UNL     1      -2.109   6.133  20.642  1.00  0.00    -0.021 C 
HETATM   23  C23 UNL     1      -1.160   7.139  19.963  1.00  0.00     0.009 C 
HETATM   24  C24 UNL     1      -3.493   6.684  20.654  1.00  0.00     0.009 C 
ENDBRANCH  21  22
ENDBRANCH  20  21
BRANCH  20  25
HETATM   25  N6  UNL     1      -0.786   2.691  20.401  1.00  0.00    -0.334 N 
HETATM   26  C25 UNL     1      -1.028   1.309  20.420  1.00  0.00     0.318 C 
HETATM   27  O3  UNL     1      -2.124   0.883  20.847  1.00  0.00    -0.247 OA
HETATM   28  N7  UNL     1      -0.056   0.389  19.965  1.00  0.00    -0.343 N 
HETATM   29  C26 UNL     1      -0.343  -1.023  20.000  1.00  0.00     0.154 C 
HETATM   30  C27 UNL     1       1.206   0.896  19.474  1.00  0.00     0.154 C 
ATOM     31  H6  UNL     1       0.103   3.053  20.055  1.00  0.00     0.164 HD
ENDBRANCH  20  25
ENDBRANCH  17  20
ENDBRANCH  16  17
BRANCH   1  32
HETATM   32  C2  UNL     1      -2.915   4.983  24.288  1.00  0.00     0.261 C 
HETATM   33  C1  UNL     1      -3.065   5.252  25.751  1.00  0.00     0.037 C 
ENDBRANCH   1  32
BRANCH   4  34
HETATM   34  N2  UNL     1      -7.966   3.210  23.176  1.00  0.00    -0.017 N 
HETATM   35  C6  UNL     1      -8.137   1.820  23.591  1.00  0.00     0.275 C 
HETATM   36  C7  UNL     1      -9.368   1.824  24.489  1.00  0.00     0.303 C 
HETATM   37  N3  UNL     1      -9.870   3.198  24.304  1.00  0.00     0.118 N 
HETATM   38  C8  UNL     1     -10.248   3.284  22.908  1.00  0.00     0.303 C 
HETATM   39  C10 UNL     1      -8.556   3.896  24.272  1.00  0.00     0.513 C 
HETATM   40  C9  UNL     1      -8.965   3.425  22.129  1.00  0.00     0.275 C 
ENDBRANCH   4  34
TORSDOF 8
ENDMDL
MODEL 4
REMARK VINA RESULT: -6.266925804      2.692      5.994
REMARK  8 active torsions:
REMARK  status: ('A' for Active; 'I' for Inactive)
REMARK    1  A    between atoms: C2_2  and  N1_3 
REMARK    2  A    between atoms: C5_6  and  N2_7 
REMARK    3  A    between atoms: N5_25  and  C19_26 
REMARK    4  A    between atoms: C19_26  and  O2_27 
REMARK    5  A    between atoms: C19_26  and  C20_29 
REMARK    6  A    between atoms: C20_29  and  C21_30 
REMARK    7  A    between atoms: C20_29  and  N6_34 
REMARK    8  A    between atoms: C21_30  and  C22_31 
REMARK       I    between atoms: N6_34  and  C25_36 
REMARK       I    between atoms: C25_36  and  N7_38 
ROOT
HETATM    1  N1  UNL     1      -1.537   1.503  24.341  1.00  0.00     0.021 N 
HETATM    2  C3  UNL     1      -0.373   0.878  23.773  1.00  0.00     0.301 C 
HETATM    3  C4  UNL     1       0.502   0.362  24.845  1.00  0.00    -0.026 C 
HETATM    4  C5  UNL     1       1.565  -0.435  24.670  1.00  0.00     0.209 C 
HETATM    5  C11 UNL     1      -0.043   0.906  26.090  1.00  0.00     0.073 C 
HETATM    6  C12 UNL     1      -1.161   1.814  25.661  1.00  0.00     0.220 C 
HETATM    7  C13 UNL     1      -0.569   3.205  25.814  1.00  0.00     0.044 C 
HETATM    8  C14 UNL     1      -1.509   4.278  25.442  1.00  0.00     0.031 C 
HETATM    9  C15 UNL     1      -2.742   4.495  26.248  1.00  0.00     0.036 C 
HETATM   10  C16 UNL     1      -3.506   3.652  25.291  1.00  0.00     0.124 C 
HETATM   11  N4  UNL     1      -4.367   4.332  24.337  1.00  0.00    -0.351 N 
ATOM     12  H4  UNL     1      -5.368   4.416  24.160  1.00  0.00     0.163 HD
HETATM   13  C17 UNL     1      -3.159   4.825  23.766  1.00  0.00     0.250 C 
HETATM   14  O1  UNL     1      -2.972   5.832  23.073  1.00  0.00    -0.271 OA
HETATM   15  C18 UNL     1      -2.393   3.722  24.327  1.00  0.00     0.163 C 
HETATM   16  N5  UNL     1      -1.910   2.664  23.612  1.00  0.00    -0.192 N 
ENDROOT
BRANCH  16  17
HETATM   17  C19 UNL     1      -2.174   2.405  22.276  1.00  0.00     0.267 C 
BRANCH  17  18
HETATM   18  O2  UNL     1      -3.513   2.497  21.864  1.00  0.00    -0.373 OA
ATOM     19  H2  UNL     1      -3.674   2.879  21.009  1.00  0.00     0.212 HD
ENDBRANCH  17  18
BRANCH  17  20
HETATM   20  C20 UNL     1      -1.375   3.049  21.166  1.00  0.00     0.136 C 
BRANCH  20  21
HETATM   21  C21 UNL     1      -1.009   2.176  20.058  1.00  0.00     0.033 C 
BRANCH  21  22
HETATM   22  C22 UNL     1      -0.044   1.066  20.296  1.00  0.00    -0.021 C 
HETATM   23  C23 UNL     1      -0.818  -0.265  20.308  1.00  0.00     0.009 C 
HETATM   24  C24 UNL     1       1.125   0.953  19.378  1.00  0.00     0.009 C 
ENDBRANCH  21  22
ENDBRANCH  20  21
BRANCH  20  25
HETATM   25  N6  UNL     1      -2.238   4.147  20.689  1.00  0.00    -0.334 N 
HETATM   26  C25 UNL     1      -1.655   5.353  20.271  1.00  0.00     0.318 C 
HETATM   27  O3  UNL     1      -0.411   5.479  20.309  1.00  0.00    -0.247 OA
HETATM   28  N7  UNL     1      -2.447   6.429  19.809  1.00  0.00    -0.343 N 
HETATM   29  C26 UNL     1      -1.810   7.651  19.388  1.00  0.00     0.154 C 
HETATM   30  C27 UNL     1      -3.883   6.269  19.770  1.00  0.00     0.154 C 
ATOM     31  H6  UNL     1      -3.252   4.030  20.663  1.00  0.00     0.164 HD
ENDBRANCH  20  25
ENDBRANCH  17  20
ENDBRANCH  16  17
BRANCH   1  32
HETATM   32  C2  UNL     1      -2.617   0.571  24.187  1.00  0.00     0.261 C 
HETATM   33  C1  UNL     1      -3.326   0.192  25.447  1.00  0.00     0.037 C 
ENDBRANCH   1  32
BRANCH   4  34
HETATM   34  N2  UNL     1       2.440  -0.968  25.584  1.00  0.00    -0.017 N 
HETATM   35  C6  UNL     1       3.594  -1.626  24.980  1.00  0.00     0.275 C 
HETATM   36  C7  UNL     1       4.658  -1.642  26.071  1.00  0.00     0.303 C 
HETATM   37  N3  UNL     1       3.894  -1.169  27.240  1.00  0.00     0.118 N 
HETATM   38  C8  UNL     1       2.892  -2.186  27.482  1.00  0.00     0.303 C 
HETATM   39  C10 UNL     1       3.074  -0.138  26.549  1.00  0.00     0.513 C 
HETATM   40  C9  UNL     1       1.822  -1.983  26.439  1.00  0.00     0.275 C 
ENDBRANCH   4  34
TORSDOF 8
ENDMDL
MODEL 5
REMARK VINA RESULT: -6.245468331      2.505      3.844
REMARK  8 active torsions:
REMARK  status: ('A' for Active; 'I' for Inactive)
REMARK    1  A    between atoms: C2_2  and  N1_3 
REMARK    2  A    between atoms: C5_6  and  N2_7 
REMARK    3  A    between atoms: N5_25  and  C19_26 
REMARK    4  A    between atoms: C19_26  and  O2_27 
REMARK    5  A    between atoms: C19_26  and  C20_29 
REMARK    6  A    between atoms: C20_29  and  C21_30 
REMARK    7  A    between atoms: C20_29  and  N6_34 
REMARK    8  A    between atoms: C21_30  and  C22_31 
REMARK       I    between atoms: N6_34  and  C25_36 
REMARK       I    between atoms: C25_36  and  N7_38 
ROOT
HETATM    1  N1  UNL     1      -2.895   3.860  25.108  1.00  0.00     0.021 N 
HETATM    2  C3  UNL     1      -4.020   4.135  24.256  1.00  0.00     0.301 C 
HETATM    3  C4  UNL     1      -5.281   3.859  24.972  1.00  0.00    -0.026 C 
HETATM    4  C5  UNL     1      -6.509   4.183  24.545  1.00  0.00     0.209 C 
HETATM    5  C11 UNL     1      -4.888   3.175  26.206  1.00  0.00     0.073 C 
HETATM    6  C12 UNL     1      -3.402   2.989  26.091  1.00  0.00     0.220 C 
HETATM    7  C13 UNL     1      -3.253   1.518  25.736  1.00  0.00     0.044 C 
HETATM    8  C14 UNL     1      -1.849   1.102  25.571  1.00  0.00     0.031 C 
HETATM    9  C15 UNL     1      -0.929   1.119  26.741  1.00  0.00     0.036 C 
HETATM   10  C16 UNL     1      -0.455   2.470  26.338  1.00  0.00     0.124 C 
HETATM   11  N4  UNL     1       0.844   2.559  25.692  1.00  0.00    -0.351 N 
ATOM     12  H4  UNL     1       1.764   2.941  25.911  1.00  0.00     0.163 HD
HETATM   13  C17 UNL     1       0.231   1.865  24.609  1.00  0.00     0.250 C 
HETATM   14  O1  UNL     1       0.749   1.175  23.724  1.00  0.00    -0.271 OA
HETATM   15  C18 UNL     1      -1.094   2.309  25.019  1.00  0.00     0.163 C 
HETATM   16  N5  UNL     1      -1.825   3.270  24.383  1.00  0.00    -0.192 N 
ENDROOT
BRANCH  16  17
HETATM   17  C19 UNL     1      -1.382   4.060  23.332  1.00  0.00     0.267 C 
BRANCH  17  18
HETATM   18  O2  UNL     1      -0.032   4.445  23.354  1.00  0.00    -0.373 OA
ATOM     19  H2  UNL     1       0.612   3.751  23.425  1.00  0.00     0.212 HD
ENDBRANCH  17  18
BRANCH  17  20
HETATM   20  C20 UNL     1      -1.667   3.703  21.892  1.00  0.00     0.136 C 
BRANCH  20  21
HETATM   21  C21 UNL     1      -2.464   2.502  21.680  1.00  0.00     0.033 C 
BRANCH  21  22
HETATM   22  C22 UNL     1      -1.824   1.304  21.066  1.00  0.00    -0.021 C 
HETATM   23  C23 UNL     1      -0.422   1.697  20.564  1.00  0.00     0.009 C 
HETATM   24  C24 UNL     1      -1.729   0.067  21.893  1.00  0.00     0.009 C 
ENDBRANCH  21  22
ENDBRANCH  20  21
BRANCH  20  25
HETATM   25  N6  UNL     1      -2.372   4.886  21.359  1.00  0.00    -0.334 N 
HETATM   26  C25 UNL     1      -1.673   5.806  20.563  1.00  0.00     0.318 C 
HETATM   27  O3  UNL     1      -0.462   5.610  20.316  1.00  0.00    -0.247 OA
HETATM   28  N7  UNL     1      -2.311   6.951  20.034  1.00  0.00    -0.343 N 
HETATM   29  C26 UNL     1      -1.559   7.872  19.220  1.00  0.00     0.154 C 
HETATM   30  C27 UNL     1      -3.711   7.165  20.328  1.00  0.00     0.154 C 
ATOM     31  H6  UNL     1      -3.359   5.033  21.568  1.00  0.00     0.164 HD
ENDBRANCH  20  25
ENDBRANCH  17  20
ENDBRANCH  16  17
BRANCH   1  32
HETATM   32  C2  UNL     1      -2.413   5.131  25.569  1.00  0.00     0.261 C 
HETATM   33  C1  UNL     1      -2.500   5.357  27.044  1.00  0.00     0.037 C 
ENDBRANCH   1  32
BRANCH   4  34
HETATM   34  N2  UNL     1      -7.737   3.976  25.123  1.00  0.00    -0.017 N 
HETATM   35  C6  UNL     1      -8.840   3.948  24.167  1.00  0.00     0.275 C 
HETATM   36  C7  UNL     1      -9.957   3.188  24.873  1.00  0.00     0.303 C 
HETATM   37  N3  UNL     1      -9.414   3.057  26.237  1.00  0.00     0.118 N 
HETATM   38  C8  UNL     1      -9.312   4.411  26.742  1.00  0.00     0.303 C 
HETATM   39  C10 UNL     1      -7.996   2.795  25.872  1.00  0.00     0.513 C 
HETATM   40  C9  UNL     1      -8.094   5.014  26.091  1.00  0.00     0.275 C 
ENDBRANCH   4  34
TORSDOF 8
ENDMDL
