MODEL 1
REMARK VINA RESULT: -5.911130442      0.000      0.000
REMARK  10 active torsions:
REMARK  status: ('A' for Active; 'I' for Inactive)
REMARK       I    between atoms: N1_2  and  C2_4 
REMARK    1  A    between atoms: C2_4  and  C3_6 
REMARK    2  A    between atoms: C3_6  and  N2_7 
REMARK    3  A    between atoms: N2_7  and  C4_8 
REMARK    4  A    between atoms: N2_7  and  N6_30 
REMARK    5  A    between atoms: C4_8  and  O2_9 
REMARK    6  A    between atoms: C4_8  and  C5_11 
REMARK    7  A    between atoms: C5_11  and  C7_13 
REMARK    8  A    between atoms: C5_11  and  C8_16 
REMARK    9  A    between atoms: C7_13  and  O3_14 
REMARK   10  A    between atoms: C8_16  and  C9_17 
REMARK       I    between atoms: C9_17  and  N3_19 
ROOT
HETATM    1  C4  UNL     1      -5.629   3.932  23.850  1.00  0.00     0.152 C 
ENDROOT
BRANCH   1   2
HETATM    2  N2  UNL     1      -4.359   3.973  24.382  1.00  0.00    -0.171 N 
BRANCH   2   3
HETATM    3  C3  UNL     1      -3.245   3.736  23.361  1.00  0.00     0.143 C 
HETATM    4  C25 UNL     1      -1.988   3.213  23.829  1.00  0.00     0.043 C 
HETATM    5  C26 UNL     1      -1.922   2.171  22.770  1.00  0.00     0.006 C 
HETATM    6  C27 UNL     1      -3.412   2.354  22.686  1.00  0.00     0.043 C 
BRANCH   3   7
HETATM    7  C2  UNL     1      -3.282   4.736  22.289  1.00  0.00     0.247 C 
HETATM    8  N1  UNL     1      -3.758   4.583  20.967  1.00  0.00    -0.363 N 
HETATM    9  C1  UNL     1      -3.740   5.682  19.994  1.00  0.00     0.149 C 
ATOM     10  H1  UNL     1      -4.127   3.677  20.679  1.00  0.00     0.162 HD
HETATM   11  O1  UNL     1      -2.838   5.925  22.511  1.00  0.00    -0.271 OA
ENDBRANCH   3   7
ENDBRANCH   2   3
BRANCH   2  12
HETATM   12  N6  UNL     1      -3.979   4.309  25.688  1.00  0.00     0.018 N 
HETATM   13  C16 UNL     1      -3.009   5.368  25.800  1.00  0.00     0.270 C 
HETATM   14  C17 UNL     1      -2.400   5.461  27.172  1.00  0.00     0.015 C 
HETATM   15  C18 UNL     1      -1.883   4.189  27.743  1.00  0.00     0.012 C 
HETATM   16  C22 UNL     1      -3.530   5.916  28.112  1.00  0.00     0.012 C 
HETATM   17  C19 UNL     1      -3.007   3.222  27.735  1.00  0.00     0.015 C 
HETATM   18  C20 UNL     1      -4.196   3.635  28.589  1.00  0.00     0.012 C 
HETATM   19  C24 UNL     1      -3.555   3.096  26.352  1.00  0.00     0.270 C 
HETATM   20  C21 UNL     1      -4.670   4.889  27.973  1.00  0.00     0.015 C 
HETATM   21  C23 UNL     1      -5.089   4.820  26.513  1.00  0.00     0.270 C 
ENDBRANCH   2  12
ENDBRANCH   1   2
BRANCH   1  22
HETATM   22  O2  UNL     1      -5.892   5.121  23.210  1.00  0.00    -0.348 OA
ATOM     23  H2  UNL     1      -6.826   5.188  23.044  1.00  0.00     0.219 HD
ENDBRANCH   1  22
BRANCH   1  24
HETATM   24  C5  UNL     1      -6.875   3.206  23.630  1.00  0.00     0.052 C 
HETATM   25  C6  UNL     1      -6.774   1.950  24.587  1.00  0.00     0.027 C 
BRANCH  24  26
HETATM   26  C7  UNL     1      -8.202   3.697  23.862  1.00  0.00     0.182 C 
BRANCH  26  27
HETATM   27  O3  UNL     1      -8.550   4.764  24.608  1.00  0.00    -0.400 OA
ATOM     28  H3  UNL     1      -9.042   5.523  24.321  1.00  0.00     0.209 HD
ENDBRANCH  26  27
ENDBRANCH  24  26
BRANCH  24  29
HETATM   29  C8  UNL     1      -6.803   2.460  22.274  1.00  0.00     0.123 C 
BRANCH  29  30
HETATM   30  C9  UNL     1      -7.353   3.116  21.114  1.00  0.00     0.226 C 
HETATM   31  O4  UNL     1      -6.865   4.153  20.628  1.00  0.00    -0.273 OA
HETATM   32  N3  UNL     1      -8.517   2.640  20.398  1.00  0.00    -0.305 N 
HETATM   33  C10 UNL     1      -9.024   3.329  19.219  1.00  0.00     0.161 C 
HETATM   34  C15 UNL     1      -9.236   1.481  20.785  1.00  0.00     0.106 C 
HETATM   35  C11 UNL     1     -10.300   2.672  18.814  1.00  0.00     0.257 C 
HETATM   36  N4  UNL     1     -10.214   1.253  18.594  1.00  0.00    -0.067 N 
HETATM   37  C12 UNL     1     -11.593   0.797  18.350  1.00  0.00     0.272 C 
HETATM   38  C13 UNL     1      -9.494   1.023  17.372  1.00  0.00     0.272 C 
HETATM   39  C14 UNL     1      -9.615   0.535  19.681  1.00  0.00     0.312 C 
HETATM   40  N5  UNL     1      -9.547   1.263  22.003  1.00  0.00    -0.387 N 
ATOM     41  H52 UNL     1      -9.289   1.905  22.752  1.00  0.00     0.157 HD
ATOM     42  H51 UNL     1     -10.065   0.429  22.282  1.00  0.00     0.157 HD
ENDBRANCH  29  30
ENDBRANCH  24  29
ENDBRANCH   1  24
TORSDOF 10
ENDMDL
MODEL 2
REMARK VINA RESULT: -5.880802526      6.309      9.869
REMARK  10 active torsions:
REMARK  status: ('A' for Active; 'I' for Inactive)
REMARK       I    between atoms: N1_2  and  C2_4 
REMARK    1  A    between atoms: C2_4  and  C3_6 
REMARK    2  A    between atoms: C3_6  and  N2_7 
REMARK    3  A    between atoms: N2_7  and  C4_8 
REMARK    4  A    between atoms: N2_7  and  N6_30 
REMARK    5  A    between atoms: C4_8  and  O2_9 
REMARK    6  A    between atoms: C4_8  and  C5_11 
REMARK    7  A    between atoms: C5_11  and  C7_13 
REMARK    8  A    between atoms: C5_11  and  C8_16 
REMARK    9  A    between atoms: C7_13  and  O3_14 
REMARK   10  A    between atoms: C8_16  and  C9_17 
REMARK       I    between atoms: C9_17  and  N3_19 
ROOT
HETATM    1  C4  UNL     1       0.718  -0.519  20.136  1.00  0.00     0.152 C 
ENDROOT
BRANCH   1   2
HETATM    2  N2  UNL     1       1.128  -1.521  19.283  1.00  0.00    -0.171 N 
BRANCH   2   3
HETATM    3  C3  UNL     1       2.385  -2.261  19.744  1.00  0.00     0.143 C 
HETATM    4  C25 UNL     1       3.399  -2.562  18.768  1.00  0.00     0.043 C 
HETATM    5  C26 UNL     1       4.504  -2.049  19.621  1.00  0.00     0.006 C 
HETATM    6  C27 UNL     1       3.423  -1.265  20.314  1.00  0.00     0.043 C 
BRANCH   3   7
HETATM    7  C2  UNL     1       2.079  -3.213  20.818  1.00  0.00     0.247 C 
HETATM    8  N1  UNL     1       2.086  -2.987  22.214  1.00  0.00    -0.363 N 
HETATM    9  C1  UNL     1       1.749  -4.040  23.180  1.00  0.00     0.149 C 
ATOM     10  H1  UNL     1       2.333  -2.061  22.561  1.00  0.00     0.162 HD
HETATM   11  O1  UNL     1       1.760  -4.425  20.523  1.00  0.00    -0.271 OA
ENDBRANCH   3   7
ENDBRANCH   2   3
BRANCH   2  12
HETATM   12  N6  UNL     1       0.481  -1.999  18.135  1.00  0.00     0.018 N 
HETATM   13  C16 UNL     1       1.312  -2.722  17.208  1.00  0.00     0.270 C 
HETATM   14  C17 UNL     1       0.660  -2.919  15.868  1.00  0.00     0.015 C 
HETATM   15  C18 UNL     1       0.078  -1.702  15.241  1.00  0.00     0.012 C 
HETATM   16  C22 UNL     1      -0.521  -3.876  16.104  1.00  0.00     0.012 C 
HETATM   17  C19 UNL     1      -0.886  -1.132  16.212  1.00  0.00     0.015 C 
HETATM   18  C20 UNL     1      -2.050  -2.050  16.553  1.00  0.00     0.012 C 
HETATM   19  C24 UNL     1      -0.202  -0.885  17.516  1.00  0.00     0.270 C 
HETATM   20  C21 UNL     1      -1.418  -3.228  17.176  1.00  0.00     0.015 C 
HETATM   21  C23 UNL     1      -0.583  -2.978  18.423  1.00  0.00     0.270 C 
ENDBRANCH   2  12
ENDBRANCH   1   2
BRANCH   1  22
HETATM   22  O2  UNL     1       1.431   0.626  19.865  1.00  0.00    -0.348 OA
ATOM     23  H2  UNL     1       1.036   1.357  20.327  1.00  0.00     0.219 HD
ENDBRANCH   1  22
BRANCH   1  24
HETATM   24  C5  UNL     1      -0.141  -0.073  21.227  1.00  0.00     0.052 C 
HETATM   25  C6  UNL     1      -1.056  -1.324  21.545  1.00  0.00     0.027 C 
BRANCH  24  26
HETATM   26  C7  UNL     1       0.285   0.369  22.523  1.00  0.00     0.182 C 
BRANCH  26  27
HETATM   27  O3  UNL     1       1.063  -0.307  23.390  1.00  0.00    -0.400 OA
ATOM     28  H3  UNL     1       0.801  -0.668  24.229  1.00  0.00     0.209 HD
ENDBRANCH  26  27
ENDBRANCH  24  26
BRANCH  24  29
HETATM   29  C8  UNL     1      -1.236   0.869  20.667  1.00  0.00     0.123 C 
BRANCH  29  30
HETATM   30  C9  UNL     1      -1.248   2.236  21.126  1.00  0.00     0.226 C 
HETATM   31  O4  UNL     1      -0.321   3.034  20.899  1.00  0.00    -0.273 OA
HETATM   32  N3  UNL     1      -2.332   2.817  21.888  1.00  0.00    -0.305 N 
HETATM   33  C10 UNL     1      -2.306   4.209  22.315  1.00  0.00     0.161 C 
HETATM   34  C15 UNL     1      -3.484   2.083  22.268  1.00  0.00     0.106 C 
HETATM   35  C11 UNL     1      -3.489   4.445  23.193  1.00  0.00     0.257 C 
HETATM   36  N4  UNL     1      -4.759   4.098  22.612  1.00  0.00    -0.067 N 
HETATM   37  C12 UNL     1      -5.754   4.272  23.685  1.00  0.00     0.272 C 
HETATM   38  C13 UNL     1      -5.082   5.071  21.606  1.00  0.00     0.272 C 
HETATM   39  C14 UNL     1      -4.805   2.771  22.072  1.00  0.00     0.312 C 
HETATM   40  N5  UNL     1      -3.398   0.906  22.755  1.00  0.00    -0.387 N 
ATOM     41  H52 UNL     1      -2.501   0.439  22.887  1.00  0.00     0.157 HD
ATOM     42  H51 UNL     1      -4.227   0.378  23.028  1.00  0.00     0.157 HD
ENDBRANCH  29  30
ENDBRANCH  24  29
ENDBRANCH   1  24
TORSDOF 10
ENDMDL
MODEL 3
REMARK VINA RESULT: -5.826340196      7.016     10.784
REMARK  10 active torsions:
REMARK  status: ('A' for Active; 'I' for Inactive)
REMARK       I    between atoms: N1_2  and  C2_4 
REMARK    1  A    between atoms: C2_4  and  C3_6 
REMARK    2  A    between atoms: C3_6  and  N2_7 
REMARK    3  A    between atoms: N2_7  and  C4_8 
REMARK    4  A    between atoms: N2_7  and  N6_30 
REMARK    5  A    between atoms: C4_8  and  O2_9 
REMARK    6  A    between atoms: C4_8  and  C5_11 
REMARK    7  A    between atoms: C5_11  and  C7_13 
REMARK    8  A    between atoms: C5_11  and  C8_16 
REMARK    9  A    between atoms: C7_13  and  O3_14 
REMARK   10  A    between atoms: C8_16  and  C9_17 
REMARK       I    between atoms: C9_17  and  N3_19 
ROOT
HETATM    1  C4  UNL     1       0.550  -1.529  19.559  1.00  0.00     0.152 C 
ENDROOT
BRANCH   1   2
HETATM    2  N2  UNL     1       0.697  -2.585  18.686  1.00  0.00    -0.171 N 
BRANCH   2   3
HETATM    3  C3  UNL     1       1.718  -3.631  19.136  1.00  0.00     0.143 C 
HETATM    4  C25 UNL     1       2.345  -4.452  18.132  1.00  0.00     0.043 C 
HETATM    5  C26 UNL     1       3.713  -4.226  18.670  1.00  0.00     0.006 C 
HETATM    6  C27 UNL     1       3.119  -2.992  19.291  1.00  0.00     0.043 C 
BRANCH   3   7
HETATM    7  C2  UNL     1       1.364  -4.194  20.444  1.00  0.00     0.247 C 
HETATM    8  N1  UNL     1       1.958  -3.931  21.698  1.00  0.00    -0.363 N 
HETATM    9  C1  UNL     1       1.492  -4.567  22.937  1.00  0.00     0.149 C 
ATOM     10  H1  UNL     1       2.739  -3.276  21.745  1.00  0.00     0.162 HD
HETATM   11  O1  UNL     1       0.401  -5.044  20.531  1.00  0.00    -0.271 OA
ENDBRANCH   3   7
ENDBRANCH   2   3
BRANCH   2  12
HETATM   12  N6  UNL     1      -0.040  -2.857  17.526  1.00  0.00     0.018 N 
HETATM   13  C16 UNL     1      -0.764  -4.102  17.527  1.00  0.00     0.270 C 
HETATM   14  C17 UNL     1      -1.257  -4.493  16.162  1.00  0.00     0.015 C 
HETATM   15  C18 UNL     1      -0.249  -4.453  15.068  1.00  0.00     0.012 C 
HETATM   16  C22 UNL     1      -2.331  -3.460  15.782  1.00  0.00     0.012 C 
HETATM   17  C19 UNL     1       0.313  -3.081  15.047  1.00  0.00     0.015 C 
HETATM   18  C20 UNL     1      -0.705  -1.991  14.747  1.00  0.00     0.012 C 
HETATM   19  C24 UNL     1       0.854  -2.736  16.395  1.00  0.00     0.270 C 
HETATM   20  C21 UNL     1      -1.667  -2.071  15.862  1.00  0.00     0.015 C 
HETATM   21  C23 UNL     1      -1.110  -1.878  17.264  1.00  0.00     0.270 C 
ENDBRANCH   2  12
ENDBRANCH   1   2
BRANCH   1  22
HETATM   22  O2  UNL     1       1.403  -0.514  19.193  1.00  0.00    -0.348 OA
ATOM     23  H2  UNL     1       1.326   0.200  19.815  1.00  0.00     0.219 HD
ENDBRANCH   1  22
BRANCH   1  24
HETATM   24  C5  UNL     1      -0.102  -0.948  20.728  1.00  0.00     0.052 C 
HETATM   25  C6  UNL     1      -1.304  -1.931  21.038  1.00  0.00     0.027 C 
BRANCH  24  26
HETATM   26  C7  UNL     1       0.490  -0.728  22.015  1.00  0.00     0.182 C 
BRANCH  26  27
HETATM   27  O3  UNL     1       1.763  -0.987  22.373  1.00  0.00    -0.400 OA
ATOM     28  H3  UNL     1       2.083  -1.157  23.250  1.00  0.00     0.209 HD
ENDBRANCH  26  27
ENDBRANCH  24  26
BRANCH  24  29
HETATM   29  C8  UNL     1      -0.930   0.288  20.294  1.00  0.00     0.123 C 
BRANCH  29  30
HETATM   30  C9  UNL     1      -0.436   1.591  20.660  1.00  0.00     0.226 C 
HETATM   31  O4  UNL     1       0.592   2.089  20.165  1.00  0.00    -0.273 OA
HETATM   32  N3  UNL     1      -1.081   2.452  21.628  1.00  0.00    -0.305 N 
HETATM   33  C10 UNL     1      -0.551   3.769  21.952  1.00  0.00     0.161 C 
HETATM   34  C15 UNL     1      -2.259   2.080  22.322  1.00  0.00     0.106 C 
HETATM   35  C11 UNL     1      -1.356   4.326  23.077  1.00  0.00     0.257 C 
HETATM   36  N4  UNL     1      -2.776   4.374  22.848  1.00  0.00    -0.067 N 
HETATM   37  C12 UNL     1      -3.376   4.814  24.118  1.00  0.00     0.272 C 
HETATM   38  C13 UNL     1      -3.050   5.413  21.894  1.00  0.00     0.272 C 
HETATM   39  C14 UNL     1      -3.334   3.126  22.415  1.00  0.00     0.312 C 
HETATM   40  N5  UNL     1      -2.393   0.922  22.842  1.00  0.00    -0.387 N 
ATOM     41  H52 UNL     1      -1.663   0.211  22.778  1.00  0.00     0.157 HD
ATOM     42  H51 UNL     1      -3.241   0.654  23.341  1.00  0.00     0.157 HD
ENDBRANCH  29  30
ENDBRANCH  24  29
ENDBRANCH   1  24
TORSDOF 10
ENDMDL
MODEL 4
REMARK VINA RESULT: -5.814163293      2.858      6.206
REMARK  10 active torsions:
REMARK  status: ('A' for Active; 'I' for Inactive)
REMARK       I    between atoms: N1_2  and  C2_4 
REMARK    1  A    between atoms: C2_4  and  C3_6 
REMARK    2  A    between atoms: C3_6  and  N2_7 
REMARK    3  A    between atoms: N2_7  and  C4_8 
REMARK    4  A    between atoms: N2_7  and  N6_30 
REMARK    5  A    between atoms: C4_8  and  O2_9 
REMARK    6  A    between atoms: C4_8  and  C5_11 
REMARK    7  A    between atoms: C5_11  and  C7_13 
REMARK    8  A    between atoms: C5_11  and  C8_16 
REMARK    9  A    between atoms: C7_13  and  O3_14 
REMARK   10  A    between atoms: C8_16  and  C9_17 
REMARK       I    between atoms: C9_17  and  N3_19 
ROOT
HETATM    1  C4  UNL     1      -3.142   4.303  23.362  1.00  0.00     0.152 C 
ENDROOT
BRANCH   1   2
HETATM    2  N2  UNL     1      -3.887   3.893  24.446  1.00  0.00    -0.171 N 
BRANCH   2   3
HETATM    3  C3  UNL     1      -5.108   3.047  24.083  1.00  0.00     0.143 C 
HETATM    4  C25 UNL     1      -5.012   1.616  24.214  1.00  0.00     0.043 C 
HETATM    5  C26 UNL     1      -6.301   1.504  24.947  1.00  0.00     0.006 C 
HETATM    6  C27 UNL     1      -6.080   2.954  25.283  1.00  0.00     0.043 C 
BRANCH   3   7
HETATM    7  C2  UNL     1      -5.860   3.644  22.974  1.00  0.00     0.247 C 
HETATM    8  N1  UNL     1      -6.050   3.132  21.671  1.00  0.00    -0.363 N 
HETATM    9  C1  UNL     1      -6.841   3.840  20.657  1.00  0.00     0.149 C 
ATOM     10  H1  UNL     1      -5.623   2.238  21.427  1.00  0.00     0.162 HD
HETATM   11  O1  UNL     1      -6.445   4.780  23.140  1.00  0.00    -0.271 OA
ENDBRANCH   3   7
ENDBRANCH   2   3
BRANCH   2  12
HETATM   12  N6  UNL     1      -3.598   4.063  25.807  1.00  0.00     0.018 N 
HETATM   13  C16 UNL     1      -3.370   2.851  26.550  1.00  0.00     0.270 C 
HETATM   14  C17 UNL     1      -3.394   3.063  28.038  1.00  0.00     0.015 C 
HETATM   15  C18 UNL     1      -4.563   3.813  28.571  1.00  0.00     0.012 C 
HETATM   16  C22 UNL     1      -2.159   3.919  28.369  1.00  0.00     0.012 C 
HETATM   17  C19 UNL     1      -4.606   5.112  27.857  1.00  0.00     0.015 C 
HETATM   18  C20 UNL     1      -3.383   5.990  28.078  1.00  0.00     0.012 C 
HETATM   19  C24 UNL     1      -4.646   4.877  26.383  1.00  0.00     0.270 C 
HETATM   20  C21 UNL     1      -2.264   5.204  27.526  1.00  0.00     0.015 C 
HETATM   21  C23 UNL     1      -2.357   4.817  26.058  1.00  0.00     0.270 C 
ENDBRANCH   2  12
ENDBRANCH   1   2
BRANCH   1  22
HETATM   22  O2  UNL     1      -3.399   5.631  23.111  1.00  0.00    -0.348 OA
ATOM     23  H2  UNL     1      -3.292   5.802  22.182  1.00  0.00     0.219 HD
ENDBRANCH   1  22
BRANCH   1  24
HETATM   24  C5  UNL     1      -2.175   3.995  22.314  1.00  0.00     0.052 C 
HETATM   25  C6  UNL     1      -2.661   4.842  21.068  1.00  0.00     0.027 C 
BRANCH  24  26
HETATM   26  C7  UNL     1      -0.763   4.241  22.356  1.00  0.00     0.182 C 
BRANCH  26  27
HETATM   27  O3  UNL     1       0.027   4.585  21.321  1.00  0.00    -0.400 OA
ATOM     28  H3  UNL     1       0.386   4.005  20.661  1.00  0.00     0.209 HD
ENDBRANCH  26  27
ENDBRANCH  24  26
BRANCH  24  29
HETATM   29  C8  UNL     1      -2.463   2.581  21.748  1.00  0.00     0.123 C 
BRANCH  29  30
HETATM   30  C9  UNL     1      -1.616   1.498  22.181  1.00  0.00     0.226 C 
HETATM   31  O4  UNL     1      -1.582   1.094  23.357  1.00  0.00    -0.273 OA
HETATM   32  N3  UNL     1      -0.727   0.772  21.299  1.00  0.00    -0.305 N 
HETATM   33  C10 UNL     1       0.097  -0.328  21.781  1.00  0.00     0.161 C 
HETATM   34  C15 UNL     1      -0.599   1.073  19.920  1.00  0.00     0.106 C 
HETATM   35  C11 UNL     1       0.990  -0.757  20.667  1.00  0.00     0.257 C 
HETATM   36  N4  UNL     1       0.318  -1.104  19.443  1.00  0.00    -0.067 N 
HETATM   37  C12 UNL     1       1.381  -1.353  18.454  1.00  0.00     0.272 C 
HETATM   38  C13 UNL     1      -0.355  -2.359  19.632  1.00  0.00     0.272 C 
HETATM   39  C14 UNL     1      -0.596  -0.100  18.981  1.00  0.00     0.312 C 
HETATM   40  N5  UNL     1      -0.486   2.275  19.505  1.00  0.00    -0.387 N 
ATOM     41  H52 UNL     1      -0.488   3.071  20.143  1.00  0.00     0.157 HD
ATOM     42  H51 UNL     1      -0.393   2.491  18.512  1.00  0.00     0.157 HD
ENDBRANCH  29  30
ENDBRANCH  24  29
ENDBRANCH   1  24
TORSDOF 10
ENDMDL
MODEL 5
REMARK VINA RESULT: -5.716751240      3.037      7.121
REMARK  10 active torsions:
REMARK  status: ('A' for Active; 'I' for Inactive)
REMARK       I    between atoms: N1_2  and  C2_4 
REMARK    1  A    between atoms: C2_4  and  C3_6 
REMARK    2  A    between atoms: C3_6  and  N2_7 
REMARK    3  A    between atoms: N2_7  and  C4_8 
REMARK    4  A    between atoms: N2_7  and  N6_30 
REMARK    5  A    between atoms: C4_8  and  O2_9 
REMARK    6  A    between atoms: C4_8  and  C5_11 
REMARK    7  A    between atoms: C5_11  and  C7_13 
REMARK    8  A    between atoms: C5_11  and  C8_16 
REMARK    9  A    between atoms: C7_13  and  O3_14 
REMARK   10  A    between atoms: C8_16  and  C9_17 
REMARK       I    between atoms: C9_17  and  N3_19 
ROOT
HETATM    1  C4  UNL     1      -3.321   4.128  23.126  1.00  0.00     0.152 C 
ENDROOT
BRANCH   1   2
HETATM    2  N2  UNL     1      -4.270   3.567  23.952  1.00  0.00    -0.171 N 
BRANCH   2   3
HETATM    3  C3  UNL     1      -3.841   3.463  25.417  1.00  0.00     0.143 C 
HETATM    4  C25 UNL     1      -3.497   2.166  25.939  1.00  0.00     0.043 C 
HETATM    5  C26 UNL     1      -2.236   2.649  26.562  1.00  0.00     0.006 C 
HETATM    6  C27 UNL     1      -2.332   3.771  25.565  1.00  0.00     0.043 C 
BRANCH   3   7
HETATM    7  C2  UNL     1      -4.555   4.436  26.252  1.00  0.00     0.247 C 
HETATM    8  N1  UNL     1      -4.427   5.843  26.255  1.00  0.00    -0.363 N 
HETATM    9  C1  UNL     1      -5.217   6.700  27.148  1.00  0.00     0.149 C 
ATOM     10  H1  UNL     1      -3.763   6.279  25.615  1.00  0.00     0.162 HD
HETATM   11  O1  UNL     1      -5.419   4.024  27.113  1.00  0.00    -0.271 OA
ENDBRANCH   3   7
ENDBRANCH   2   3
BRANCH   2  12
HETATM   12  N6  UNL     1      -5.584   3.196  23.635  1.00  0.00     0.018 N 
HETATM   13  C16 UNL     1      -6.597   4.170  23.947  1.00  0.00     0.270 C 
HETATM   14  C17 UNL     1      -7.989   3.604  23.896  1.00  0.00     0.015 C 
HETATM   15  C18 UNL     1      -8.205   2.337  24.646  1.00  0.00     0.012 C 
HETATM   16  C22 UNL     1      -8.261   3.271  22.420  1.00  0.00     0.012 C 
HETATM   17  C19 UNL     1      -7.222   1.355  24.129  1.00  0.00     0.015 C 
HETATM   18  C20 UNL     1      -7.382   1.025  22.653  1.00  0.00     0.012 C 
HETATM   19  C24 UNL     1      -5.841   1.911  24.247  1.00  0.00     0.270 C 
HETATM   20  C21 UNL     1      -7.149   2.308  21.963  1.00  0.00     0.015 C 
HETATM   21  C23 UNL     1      -5.802   2.975  22.194  1.00  0.00     0.270 C 
ENDBRANCH   2  12
ENDBRANCH   1   2
BRANCH   1  22
HETATM   22  O2  UNL     1      -3.366   5.497  23.247  1.00  0.00    -0.348 OA
ATOM     23  H2  UNL     1      -3.708   5.872  22.444  1.00  0.00     0.219 HD
ENDBRANCH   1  22
BRANCH   1  24
HETATM   24  C5  UNL     1      -2.251   3.961  22.148  1.00  0.00     0.052 C 
HETATM   25  C6  UNL     1      -2.758   4.746  20.871  1.00  0.00     0.027 C 
BRANCH  24  26
HETATM   26  C7  UNL     1      -0.891   4.394  22.289  1.00  0.00     0.182 C 
BRANCH  26  27
HETATM   27  O3  UNL     1      -0.007   4.614  21.296  1.00  0.00    -0.400 OA
ATOM     28  H3  UNL     1       0.889   4.302  21.253  1.00  0.00     0.209 HD
ENDBRANCH  26  27
ENDBRANCH  24  26
BRANCH  24  29
HETATM   29  C8  UNL     1      -2.305   2.527  21.565  1.00  0.00     0.123 C 
BRANCH  29  30
HETATM   30  C9  UNL     1      -1.402   1.544  22.110  1.00  0.00     0.226 C 
HETATM   31  O4  UNL     1      -1.393   1.227  23.313  1.00  0.00    -0.273 OA
HETATM   32  N3  UNL     1      -0.424   0.827  21.320  1.00  0.00    -0.305 N 
HETATM   33  C10 UNL     1       0.455  -0.170  21.915  1.00  0.00     0.161 C 
HETATM   34  C15 UNL     1      -0.254   1.040  19.929  1.00  0.00     0.106 C 
HETATM   35  C11 UNL     1       1.428  -0.607  20.872  1.00  0.00     0.257 C 
HETATM   36  N4  UNL     1       0.840  -1.089  19.650  1.00  0.00    -0.067 N 
HETATM   37  C12 UNL     1       1.962  -1.324  18.726  1.00  0.00     0.272 C 
HETATM   38  C13 UNL     1       0.252  -2.375  19.902  1.00  0.00     0.272 C 
HETATM   39  C14 UNL     1      -0.122  -0.192  19.079  1.00  0.00     0.312 C 
HETATM   40  N5  UNL     1      -0.210   2.215  19.432  1.00  0.00    -0.387 N 
ATOM     41  H52 UNL     1      -0.300   3.052  20.009  1.00  0.00     0.157 HD
ATOM     42  H51 UNL     1      -0.088   2.369  18.431  1.00  0.00     0.157 HD
ENDBRANCH  29  30
ENDBRANCH  24  29
ENDBRANCH   1  24
TORSDOF 10
ENDMDL
