MODEL 1
REMARK VINA RESULT: -6.371218606      0.000      0.000
REMARK  15 active torsions:
REMARK  status: ('A' for Active; 'I' for Inactive)
REMARK    1  A    between atoms: C2_2  and  C4_4 
REMARK    2  A    between atoms: C4_4  and  C5_5 
REMARK    3  A    between atoms: C6_8  and  O1_9 
REMARK    4  A    between atoms: C12_18  and  C13_19 
REMARK    5  A    between atoms: C13_19  and  C14_20 
REMARK    6  A    between atoms: C14_20  and  C15_21 
REMARK    7  A    between atoms: C15_21  and  N3_22 
REMARK       I    between atoms: C16_24  and  N5_26 
REMARK    8  A    between atoms: C18_31  and  C19_32 
REMARK    9  A    between atoms: C19_32  and  C20_33 
REMARK   10  A    between atoms: C20_33  and  C21_34 
REMARK   11  A    between atoms: C21_34  and  C22_35 
REMARK   12  A    between atoms: C22_35  and  N8_36 
REMARK   13  A    between atoms: C24_44  and  C25_45 
REMARK   14  A    between atoms: C25_45  and  C26_46 
REMARK   15  A    between atoms: C30_51  and  O4_52 
ROOT
HETATM    1  C5  UNL     1      -0.625  21.333  16.488  1.00  0.00     0.062 C 
HETATM    2  N1  UNL     1       0.335  20.265  16.572  1.00  0.00    -0.335 N 
ATOM      3  H1  UNL     1       1.009  20.314  15.809  1.00  0.00     0.168 HD
HETATM    4  C6  UNL     1       0.599  19.184  17.407  1.00  0.00     0.163 C 
HETATM    5  C7  UNL     1       1.216  18.929  18.692  1.00  0.00     0.065 C 
HETATM    6  C8  UNL     1       2.746  19.106  18.640  1.00  0.00     0.063 C 
HETATM    7  C9  UNL     1       3.029  19.665  19.986  1.00  0.00     0.026 C 
HETATM    8  C10 UNL     1       1.866  19.142  20.847  1.00  0.00     0.133 C 
HETATM    9  N2  UNL     1       0.708  19.402  19.924  1.00  0.00    -0.314 N 
HETATM   10  C11 UNL     1      -0.480  19.951  20.373  1.00  0.00     0.252 C 
HETATM   11  O2  UNL     1      -0.337  21.118  20.924  1.00  0.00    -0.268 OA
HETATM   12  C12 UNL     1      -1.887  19.515  20.376  1.00  0.00     0.011 C 
HETATM   13  C18 UNL     1      -2.781  20.677  20.208  1.00  0.00     0.119 C 
HETATM   14  N9  UNL     1      -4.030  20.443  19.518  1.00  0.00    -0.351 N 
ATOM     15  H9  UNL     1      -4.512  19.566  19.717  1.00  0.00     0.163 HD
HETATM   16  C23 UNL     1      -4.642  21.319  18.596  1.00  0.00     0.241 C 
HETATM   17  O3  UNL     1      -5.884  21.618  18.760  1.00  0.00    -0.271 OA
HETATM   18  C24 UNL     1      -3.954  21.951  17.409  1.00  0.00     0.178 C 
HETATM   19  N10 UNL     1      -3.252  20.913  16.689  1.00  0.00    -0.351 N 
HETATM   20  C29 UNL     1      -4.133  19.703  16.556  1.00  0.00     0.152 C 
HETATM   21  C30 UNL     1      -1.981  20.881  16.133  1.00  0.00     0.161 C 
ENDROOT
BRANCH  12  22
HETATM   22  C13 UNL     1      -2.229  18.233  19.744  1.00  0.00     0.043 C 
BRANCH  22  23
HETATM   23  C14 UNL     1      -1.921  17.023  20.613  1.00  0.00     0.024 C 
BRANCH  23  24
HETATM   24  C15 UNL     1      -1.430  15.858  19.777  1.00  0.00     0.122 C 
BRANCH  24  25
HETATM   25  N3  UNL     1      -1.881  16.131  18.426  1.00  0.00    -0.364 N 
HETATM   26  C16 UNL     1      -1.391  15.486  17.424  1.00  0.00     0.190 C 
HETATM   27  N4  UNL     1      -1.802  15.718  16.084  1.00  0.00    -0.063 NA
HETATM   28  N5  UNL     1      -0.399  14.497  17.654  1.00  0.00    -0.307 N 
HETATM   29  C17 UNL     1      -0.487  13.413  16.952  1.00  0.00     0.203 C 
ATOM     30  H5  UNL     1       0.347  14.634  18.336  1.00  0.00     0.170 HD
HETATM   31  N6  UNL     1       0.502  12.416  17.175  1.00  0.00    -0.066 NA
HETATM   32  N7  UNL     1      -1.481  13.153  15.997  1.00  0.00    -0.066 NA
ATOM     33  H3  UNL     1      -2.595  16.843  18.266  1.00  0.00     0.162 HD
ENDBRANCH  24  25
ENDBRANCH  23  24
ENDBRANCH  22  23
ENDBRANCH  12  22
BRANCH  13  34
HETATM   34  C19 UNL     1      -3.183  21.365  21.524  1.00  0.00     0.030 C 
BRANCH  34  35
HETATM   35  C20 UNL     1      -3.965  20.487  22.440  1.00  0.00     0.004 C 
BRANCH  35  36
HETATM   36  C21 UNL     1      -5.171  21.233  23.029  1.00  0.00     0.027 C 
BRANCH  36  37
HETATM   37  C22 UNL     1      -6.470  20.589  22.624  1.00  0.00     0.229 C 
BRANCH  37  38
HETATM   38  N8  UNL     1      -7.060  21.376  21.539  1.00  0.00    -0.079 N 
ATOM     39  H83 UNL     1      -6.387  22.007  21.103  1.00  0.00     0.274 HD
ATOM     40  H82 UNL     1      -7.275  20.810  20.718  1.00  0.00     0.274 HD
ATOM     41  H81 UNL     1      -7.878  21.865  21.903  1.00  0.00     0.274 HD
ENDBRANCH  37  38
ENDBRANCH  36  37
ENDBRANCH  35  36
ENDBRANCH  34  35
ENDBRANCH  13  34
BRANCH   4  42
HETATM   42  O1  UNL     1       0.178  18.030  16.899  1.00  0.00    -0.345 OA
ATOM     43  H1  UNL     1       0.688  17.288  17.205  1.00  0.00     0.219 HD
ENDBRANCH   4  42
BRANCH  18  44
HETATM   44  C25 UNL     1      -5.090  22.463  16.492  1.00  0.00     0.038 C 
BRANCH  44  45
HETATM   45  C26 UNL     1      -4.570  23.223  15.314  1.00  0.00    -0.020 C 
HETATM   46  C27 UNL     1      -4.583  24.717  15.539  1.00  0.00     0.009 C 
HETATM   47  C28 UNL     1      -5.440  22.909  14.099  1.00  0.00     0.009 C 
ENDBRANCH  44  45
ENDBRANCH  18  44
BRANCH   1  48
HETATM   48  C4  UNL     1      -0.454  22.546  17.292  1.00  0.00     0.065 C 
BRANCH  48  49
HETATM   49  C2  UNL     1      -0.993  23.837  16.714  1.00  0.00    -0.017 C 
HETATM   50  C1  UNL     1      -0.153  24.505  15.703  1.00  0.00     0.010 C 
HETATM   51  C3  UNL     1      -1.469  24.762  17.815  1.00  0.00     0.010 C 
ENDBRANCH  48  49
ENDBRANCH   1  48
BRANCH  21  52
HETATM   52  O4  UNL     1      -1.986  20.280  14.967  1.00  0.00    -0.345 OA
ATOM     53  H4  UNL     1      -2.869  20.208  14.625  1.00  0.00     0.219 HD
ENDBRANCH  21  52
TORSDOF 15
ENDMDL
MODEL 2
REMARK VINA RESULT: -6.284283955      2.639      7.225
REMARK  15 active torsions:
REMARK  status: ('A' for Active; 'I' for Inactive)
REMARK    1  A    between atoms: C2_2  and  C4_4 
REMARK    2  A    between atoms: C4_4  and  C5_5 
REMARK    3  A    between atoms: C6_8  and  O1_9 
REMARK    4  A    between atoms: C12_18  and  C13_19 
REMARK    5  A    between atoms: C13_19  and  C14_20 
REMARK    6  A    between atoms: C14_20  and  C15_21 
REMARK    7  A    between atoms: C15_21  and  N3_22 
REMARK       I    between atoms: C16_24  and  N5_26 
REMARK    8  A    between atoms: C18_31  and  C19_32 
REMARK    9  A    between atoms: C19_32  and  C20_33 
REMARK   10  A    between atoms: C20_33  and  C21_34 
REMARK   11  A    between atoms: C21_34  and  C22_35 
REMARK   12  A    between atoms: C22_35  and  N8_36 
REMARK   13  A    between atoms: C24_44  and  C25_45 
REMARK   14  A    between atoms: C25_45  and  C26_46 
REMARK   15  A    between atoms: C30_51  and  O4_52 
ROOT
HETATM    1  C5  UNL     1       1.078  21.255  21.525  1.00  0.00     0.062 C 
HETATM    2  N1  UNL     1       1.003  22.082  20.350  1.00  0.00    -0.335 N 
ATOM      3  H1  UNL     1       1.526  22.948  20.474  1.00  0.00     0.168 HD
HETATM    4  C6  UNL     1       0.414  22.026  19.091  1.00  0.00     0.163 C 
HETATM    5  C7  UNL     1       0.652  21.400  17.807  1.00  0.00     0.065 C 
HETATM    6  C8  UNL     1       1.861  22.019  17.080  1.00  0.00     0.063 C 
HETATM    7  C9  UNL     1       2.435  20.837  16.392  1.00  0.00     0.026 C 
HETATM    8  C10 UNL     1       1.230  19.897  16.221  1.00  0.00     0.133 C 
HETATM    9  N2  UNL     1       0.607  20.003  17.585  1.00  0.00    -0.314 N 
HETATM   10  C11 UNL     1       0.148  18.895  18.272  1.00  0.00     0.252 C 
HETATM   11  O2  UNL     1       1.065  18.001  18.489  1.00  0.00    -0.268 OA
HETATM   12  C12 UNL     1      -1.157  18.481  18.819  1.00  0.00     0.011 C 
HETATM   13  C18 UNL     1      -0.966  17.707  20.061  1.00  0.00     0.119 C 
HETATM   14  N9  UNL     1      -2.005  17.814  21.060  1.00  0.00    -0.351 N 
ATOM     15  H9  UNL     1      -2.969  17.844  20.726  1.00  0.00     0.163 HD
HETATM   16  C23 UNL     1      -1.806  17.881  22.456  1.00  0.00     0.241 C 
HETATM   17  O3  UNL     1      -2.478  17.083  23.213  1.00  0.00    -0.271 OA
HETATM   18  C24 UNL     1      -0.856  18.824  23.155  1.00  0.00     0.178 C 
HETATM   19  N10 UNL     1      -1.080  20.155  22.640  1.00  0.00    -0.351 N 
HETATM   20  C29 UNL     1      -2.558  20.422  22.553  1.00  0.00     0.152 C 
HETATM   21  C30 UNL     1      -0.195  21.152  22.257  1.00  0.00     0.161 C 
ENDROOT
BRANCH  12  22
HETATM   22  C13 UNL     1      -2.295  19.404  18.700  1.00  0.00     0.043 C 
BRANCH  22  23
HETATM   23  C14 UNL     1      -3.237  19.067  17.555  1.00  0.00     0.024 C 
BRANCH  23  24
HETATM   24  C15 UNL     1      -2.832  19.782  16.282  1.00  0.00     0.122 C 
BRANCH  24  25
HETATM   25  N3  UNL     1      -2.586  21.158  16.670  1.00  0.00    -0.364 N 
HETATM   26  C16 UNL     1      -2.175  22.022  15.808  1.00  0.00     0.190 C 
HETATM   27  N4  UNL     1      -1.922  23.380  16.141  1.00  0.00    -0.063 NA
HETATM   28  N5  UNL     1      -1.963  21.616  14.465  1.00  0.00    -0.307 N 
HETATM   29  C17 UNL     1      -2.334  22.445  13.543  1.00  0.00     0.203 C 
ATOM     30  H5  UNL     1      -1.539  20.717  14.237  1.00  0.00     0.170 HD
HETATM   31  N6  UNL     1      -2.126  22.048  12.193  1.00  0.00    -0.066 NA
HETATM   32  N7  UNL     1      -2.923  23.697  13.777  1.00  0.00    -0.066 NA
ATOM     33  H3  UNL     1      -2.741  21.444  17.637  1.00  0.00     0.162 HD
ENDBRANCH  24  25
ENDBRANCH  23  24
ENDBRANCH  22  23
ENDBRANCH  12  22
BRANCH  13  34
HETATM   34  C19 UNL     1      -0.785  16.195  19.844  1.00  0.00     0.030 C 
BRANCH  34  35
HETATM   35  C20 UNL     1      -1.742  15.615  18.860  1.00  0.00     0.004 C 
BRANCH  35  36
HETATM   36  C21 UNL     1      -1.002  14.868  17.741  1.00  0.00     0.027 C 
BRANCH  36  37
HETATM   37  C22 UNL     1      -1.904  14.599  16.567  1.00  0.00     0.229 C 
BRANCH  37  38
HETATM   38  N8  UNL     1      -1.785  13.185  16.204  1.00  0.00    -0.079 N 
ATOM     39  H83 UNL     1      -1.995  12.562  16.985  1.00  0.00     0.274 HD
ATOM     40  H82 UNL     1      -2.528  12.878  15.576  1.00  0.00     0.274 HD
ATOM     41  H81 UNL     1      -0.854  13.028  15.817  1.00  0.00     0.274 HD
ENDBRANCH  37  38
ENDBRANCH  36  37
ENDBRANCH  35  36
ENDBRANCH  34  35
ENDBRANCH  13  34
BRANCH   4  42
HETATM   42  O1  UNL     1      -0.691  22.760  19.010  1.00  0.00    -0.345 OA
ATOM     43  H1  UNL     1      -0.545  23.596  18.581  1.00  0.00     0.219 HD
ENDBRANCH   4  42
BRANCH  18  44
HETATM   44  C25 UNL     1      -1.285  18.823  24.641  1.00  0.00     0.038 C 
BRANCH  44  45
HETATM   45  C26 UNL     1      -0.166  18.438  25.555  1.00  0.00    -0.020 C 
HETATM   46  C27 UNL     1      -0.590  18.402  27.005  1.00  0.00     0.009 C 
HETATM   47  C28 UNL     1       0.965  19.455  25.407  1.00  0.00     0.009 C 
ENDBRANCH  44  45
ENDBRANCH  18  44
BRANCH   1  48
HETATM   48  C4  UNL     1       2.044  20.155  21.595  1.00  0.00     0.065 C 
BRANCH  48  49
HETATM   49  C2  UNL     1       3.195  20.187  20.611  1.00  0.00    -0.017 C 
HETATM   50  C1  UNL     1       3.566  18.900  19.995  1.00  0.00     0.010 C 
HETATM   51  C3  UNL     1       4.371  20.948  21.185  1.00  0.00     0.010 C 
ENDBRANCH  48  49
ENDBRANCH   1  48
BRANCH  21  52
HETATM   52  O4  UNL     1      -0.606  22.333  22.655  1.00  0.00    -0.345 OA
ATOM     53  H4  UNL     1      -1.171  22.258  23.415  1.00  0.00     0.219 HD
ENDBRANCH  21  52
TORSDOF 15
ENDMDL
MODEL 3
REMARK VINA RESULT: -6.103224122      2.550      7.361
REMARK  15 active torsions:
REMARK  status: ('A' for Active; 'I' for Inactive)
REMARK    1  A    between atoms: C2_2  and  C4_4 
REMARK    2  A    between atoms: C4_4  and  C5_5 
REMARK    3  A    between atoms: C6_8  and  O1_9 
REMARK    4  A    between atoms: C12_18  and  C13_19 
REMARK    5  A    between atoms: C13_19  and  C14_20 
REMARK    6  A    between atoms: C14_20  and  C15_21 
REMARK    7  A    between atoms: C15_21  and  N3_22 
REMARK       I    between atoms: C16_24  and  N5_26 
REMARK    8  A    between atoms: C18_31  and  C19_32 
REMARK    9  A    between atoms: C19_32  and  C20_33 
REMARK   10  A    between atoms: C20_33  and  C21_34 
REMARK   11  A    between atoms: C21_34  and  C22_35 
REMARK   12  A    between atoms: C22_35  and  N8_36 
REMARK   13  A    between atoms: C24_44  and  C25_45 
REMARK   14  A    between atoms: C25_45  and  C26_46 
REMARK   15  A    between atoms: C30_51  and  O4_52 
ROOT
HETATM    1  C5  UNL     1       0.946  21.256  21.562  1.00  0.00     0.062 C 
HETATM    2  N1  UNL     1       0.845  22.067  20.378  1.00  0.00    -0.335 N 
ATOM      3  H1  UNL     1       1.337  22.953  20.494  1.00  0.00     0.168 HD
HETATM    4  C6  UNL     1       0.263  21.977  19.118  1.00  0.00     0.163 C 
HETATM    5  C7  UNL     1       0.527  21.346  17.842  1.00  0.00     0.065 C 
HETATM    6  C8  UNL     1       1.716  22.000  17.112  1.00  0.00     0.063 C 
HETATM    7  C9  UNL     1       2.334  20.832  16.438  1.00  0.00     0.026 C 
HETATM    8  C10 UNL     1       1.163  19.848  16.273  1.00  0.00     0.133 C 
HETATM    9  N2  UNL     1       0.532  19.947  17.635  1.00  0.00    -0.314 N 
HETATM   10  C11 UNL     1       0.110  18.830  18.332  1.00  0.00     0.252 C 
HETATM   11  O2  UNL     1       1.057  17.972  18.561  1.00  0.00    -0.268 OA
HETATM   12  C12 UNL     1      -1.182  18.377  18.879  1.00  0.00     0.011 C 
HETATM   13  C18 UNL     1      -0.968  17.623  20.130  1.00  0.00     0.119 C 
HETATM   14  N9  UNL     1      -2.013  17.704  21.125  1.00  0.00    -0.351 N 
ATOM     15  H9  UNL     1      -2.976  17.697  20.788  1.00  0.00     0.163 HD
HETATM   16  C23 UNL     1      -1.821  17.792  22.521  1.00  0.00     0.241 C 
HETATM   17  O3  UNL     1      -2.467  16.980  23.285  1.00  0.00    -0.271 OA
HETATM   18  C24 UNL     1      -0.907  18.776  23.212  1.00  0.00     0.178 C 
HETATM   19  N10 UNL     1      -1.176  20.092  22.683  1.00  0.00    -0.351 N 
HETATM   20  C29 UNL     1      -2.661  20.307  22.589  1.00  0.00     0.152 C 
HETATM   21  C30 UNL     1      -0.325  21.116  22.292  1.00  0.00     0.161 C 
ENDROOT
BRANCH  12  22
HETATM   22  C13 UNL     1      -2.350  19.257  18.748  1.00  0.00     0.043 C 
BRANCH  22  23
HETATM   23  C14 UNL     1      -3.209  18.955  17.529  1.00  0.00     0.024 C 
BRANCH  23  24
HETATM   24  C15 UNL     1      -3.014  19.998  16.447  1.00  0.00     0.122 C 
BRANCH  24  25
HETATM   25  N3  UNL     1      -2.885  21.263  17.146  1.00  0.00    -0.364 N 
HETATM   26  C16 UNL     1      -3.901  22.039  17.296  1.00  0.00     0.190 C 
HETATM   27  N4  UNL     1      -3.824  23.286  17.973  1.00  0.00    -0.063 NA
HETATM   28  N5  UNL     1      -5.160  21.646  16.770  1.00  0.00    -0.307 N 
HETATM   29  C17 UNL     1      -6.197  21.895  17.502  1.00  0.00     0.203 C 
ATOM     30  H5  UNL     1      -5.242  21.190  15.862  1.00  0.00     0.170 HD
HETATM   31  N6  UNL     1      -7.463  21.504  16.984  1.00  0.00    -0.066 NA
HETATM   32  N7  UNL     1      -6.164  22.516  18.759  1.00  0.00    -0.066 NA
ATOM     33  H3  UNL     1      -1.978  21.541  17.522  1.00  0.00     0.162 HD
ENDBRANCH  24  25
ENDBRANCH  23  24
ENDBRANCH  22  23
ENDBRANCH  12  22
BRANCH  13  34
HETATM   34  C19 UNL     1      -0.733  16.116  19.931  1.00  0.00     0.030 C 
BRANCH  34  35
HETATM   35  C20 UNL     1      -1.511  15.536  18.800  1.00  0.00     0.004 C 
BRANCH  35  36
HETATM   36  C21 UNL     1      -0.700  14.462  18.061  1.00  0.00     0.027 C 
BRANCH  36  37
HETATM   37  C22 UNL     1      -1.449  13.926  16.871  1.00  0.00     0.229 C 
BRANCH  37  38
HETATM   38  N8  UNL     1      -0.595  12.956  16.183  1.00  0.00    -0.079 N 
ATOM     39  H83 UNL     1       0.288  12.797  16.670  1.00  0.00     0.274 HD
ATOM     40  H82 UNL     1      -0.958  12.005  16.238  1.00  0.00     0.274 HD
ATOM     41  H81 UNL     1      -0.460  13.269  15.222  1.00  0.00     0.274 HD
ENDBRANCH  37  38
ENDBRANCH  36  37
ENDBRANCH  35  36
ENDBRANCH  34  35
ENDBRANCH  13  34
BRANCH   4  42
HETATM   42  O1  UNL     1      -0.867  22.672  19.026  1.00  0.00    -0.345 OA
ATOM     43  H1  UNL     1      -1.638  22.117  19.028  1.00  0.00     0.219 HD
ENDBRANCH   4  42
BRANCH  18  44
HETATM   44  C25 UNL     1      -1.340  18.776  24.698  1.00  0.00     0.038 C 
BRANCH  44  45
HETATM   45  C26 UNL     1      -0.219  18.411  25.616  1.00  0.00    -0.020 C 
HETATM   46  C27 UNL     1      -0.630  18.440  27.070  1.00  0.00     0.009 C 
HETATM   47  C28 UNL     1       0.926  19.402  25.417  1.00  0.00     0.009 C 
ENDBRANCH  44  45
ENDBRANCH  18  44
BRANCH   1  48
HETATM   48  C4  UNL     1       1.950  20.192  21.646  1.00  0.00     0.065 C 
BRANCH  48  49
HETATM   49  C2  UNL     1       3.112  20.264  20.679  1.00  0.00    -0.017 C 
HETATM   50  C1  UNL     1       3.522  18.995  20.050  1.00  0.00     0.010 C 
HETATM   51  C3  UNL     1       4.263  21.044  21.280  1.00  0.00     0.010 C 
ENDBRANCH  48  49
ENDBRANCH   1  48
BRANCH  21  52
HETATM   52  O4  UNL     1      -0.779  22.286  22.676  1.00  0.00    -0.345 OA
ATOM     53  H4  UNL     1      -0.886  22.869  21.934  1.00  0.00     0.219 HD
ENDBRANCH  21  52
TORSDOF 15
ENDMDL
MODEL 4
REMARK VINA RESULT: -6.051895994      2.457      5.326
REMARK  15 active torsions:
REMARK  status: ('A' for Active; 'I' for Inactive)
REMARK    1  A    between atoms: C2_2  and  C4_4 
REMARK    2  A    between atoms: C4_4  and  C5_5 
REMARK    3  A    between atoms: C6_8  and  O1_9 
REMARK    4  A    between atoms: C12_18  and  C13_19 
REMARK    5  A    between atoms: C13_19  and  C14_20 
REMARK    6  A    between atoms: C14_20  and  C15_21 
REMARK    7  A    between atoms: C15_21  and  N3_22 
REMARK       I    between atoms: C16_24  and  N5_26 
REMARK    8  A    between atoms: C18_31  and  C19_32 
REMARK    9  A    between atoms: C19_32  and  C20_33 
REMARK   10  A    between atoms: C20_33  and  C21_34 
REMARK   11  A    between atoms: C21_34  and  C22_35 
REMARK   12  A    between atoms: C22_35  and  N8_36 
REMARK   13  A    between atoms: C24_44  and  C25_45 
REMARK   14  A    between atoms: C25_45  and  C26_46 
REMARK   15  A    between atoms: C30_51  and  O4_52 
ROOT
HETATM    1  C5  UNL     1       2.103  20.199  20.839  1.00  0.00     0.062 C 
HETATM    2  N1  UNL     1       1.457  19.078  21.469  1.00  0.00    -0.335 N 
ATOM      3  H1  UNL     1       2.055  18.660  22.181  1.00  0.00     0.168 HD
HETATM    4  C6  UNL     1       0.242  18.406  21.375  1.00  0.00     0.163 C 
HETATM    5  C7  UNL     1      -1.128  18.574  21.812  1.00  0.00     0.065 C 
HETATM    6  C8  UNL     1      -1.274  18.375  23.333  1.00  0.00     0.063 C 
HETATM    7  C9  UNL     1      -2.333  19.360  23.664  1.00  0.00     0.026 C 
HETATM    8  C10 UNL     1      -3.117  19.505  22.348  1.00  0.00     0.133 C 
HETATM    9  N2  UNL     1      -1.982  19.610  21.368  1.00  0.00    -0.314 N 
HETATM   10  C11 UNL     1      -1.979  20.539  20.344  1.00  0.00     0.252 C 
HETATM   11  O2  UNL     1      -2.061  21.767  20.758  1.00  0.00    -0.268 OA
HETATM   12  C12 UNL     1      -1.908  20.463  18.874  1.00  0.00     0.011 C 
HETATM   13  C18 UNL     1      -1.161  21.618  18.340  1.00  0.00     0.119 C 
HETATM   14  N9  UNL     1      -0.410  21.401  17.124  1.00  0.00    -0.351 N 
ATOM     15  H9  UNL     1      -0.841  20.812  16.411  1.00  0.00     0.163 HD
HETATM   16  C23 UNL     1       0.865  21.931  16.834  1.00  0.00     0.241 C 
HETATM   17  O3  UNL     1       1.042  22.535  15.709  1.00  0.00    -0.271 OA
HETATM   18  C24 UNL     1       2.068  21.852  17.745  1.00  0.00     0.178 C 
HETATM   19  N10 UNL     1       2.208  20.485  18.189  1.00  0.00    -0.351 N 
HETATM   20  C29 UNL     1       2.020  19.551  17.025  1.00  0.00     0.152 C 
HETATM   21  C30 UNL     1       2.485  19.949  19.439  1.00  0.00     0.161 C 
ENDROOT
BRANCH  12  22
HETATM   22  C13 UNL     1      -1.762  19.144  18.244  1.00  0.00     0.043 C 
BRANCH  22  23
HETATM   23  C14 UNL     1      -3.086  18.500  17.861  1.00  0.00     0.024 C 
BRANCH  23  24
HETATM   24  C15 UNL     1      -2.907  17.035  17.522  1.00  0.00     0.122 C 
BRANCH  24  25
HETATM   25  N3  UNL     1      -2.105  16.482  18.597  1.00  0.00    -0.364 N 
HETATM   26  C16 UNL     1      -1.711  15.256  18.562  1.00  0.00     0.190 C 
HETATM   27  N4  UNL     1      -0.924  14.671  19.591  1.00  0.00    -0.063 NA
HETATM   28  N5  UNL     1      -2.068  14.443  17.455  1.00  0.00    -0.307 N 
HETATM   29  C17 UNL     1      -1.157  13.641  17.007  1.00  0.00     0.203 C 
ATOM     30  H5  UNL     1      -2.996  14.488  17.034  1.00  0.00     0.170 HD
HETATM   31  N6  UNL     1      -1.505  12.822  15.897  1.00  0.00    -0.066 NA
HETATM   32  N7  UNL     1       0.138  13.522  17.532  1.00  0.00    -0.066 NA
ATOM     33  H3  UNL     1      -1.851  17.071  19.391  1.00  0.00     0.162 HD
ENDBRANCH  24  25
ENDBRANCH  23  24
ENDBRANCH  22  23
ENDBRANCH  12  22
BRANCH  13  34
HETATM   34  C19 UNL     1      -2.028  22.856  18.049  1.00  0.00     0.030 C 
BRANCH  34  35
HETATM   35  C20 UNL     1      -3.321  22.533  17.384  1.00  0.00     0.004 C 
BRANCH  35  36
HETATM   36  C21 UNL     1      -4.513  23.001  18.232  1.00  0.00     0.027 C 
BRANCH  36  37
HETATM   37  C22 UNL     1      -5.317  21.836  18.744  1.00  0.00     0.229 C 
BRANCH  37  38
HETATM   38  N8  UNL     1      -5.224  21.814  20.205  1.00  0.00    -0.079 N 
ATOM     39  H83 UNL     1      -4.259  21.783  20.535  1.00  0.00     0.274 HD
ATOM     40  H82 UNL     1      -5.488  22.703  20.628  1.00  0.00     0.274 HD
ATOM     41  H81 UNL     1      -5.782  21.033  20.553  1.00  0.00     0.274 HD
ENDBRANCH  37  38
ENDBRANCH  36  37
ENDBRANCH  35  36
ENDBRANCH  34  35
ENDBRANCH  13  34
BRANCH   4  42
HETATM   42  O1  UNL     1       0.338  17.268  20.695  1.00  0.00    -0.345 OA
ATOM     43  H1  UNL     1       0.310  17.401  19.754  1.00  0.00     0.219 HD
ENDBRANCH   4  42
BRANCH  18  44
HETATM   44  C25 UNL     1       3.290  22.177  16.853  1.00  0.00     0.038 C 
BRANCH  44  45
HETATM   45  C26 UNL     1       4.503  22.522  17.656  1.00  0.00    -0.020 C 
HETATM   46  C27 UNL     1       4.177  23.383  18.854  1.00  0.00     0.009 C 
HETATM   47  C28 UNL     1       5.485  23.280  16.767  1.00  0.00     0.009 C 
ENDBRANCH  44  45
ENDBRANCH  18  44
BRANCH   1  48
HETATM   48  C4  UNL     1       1.803  21.565  21.276  1.00  0.00     0.065 C 
BRANCH  48  49
HETATM   49  C2  UNL     1       2.811  22.233  22.187  1.00  0.00    -0.017 C 
HETATM   50  C1  UNL     1       4.160  21.638  22.221  1.00  0.00     0.010 C 
HETATM   51  C3  UNL     1       2.219  22.473  23.559  1.00  0.00     0.010 C 
ENDBRANCH  48  49
ENDBRANCH   1  48
BRANCH  21  52
HETATM   52  O4  UNL     1       3.318  18.940  19.351  1.00  0.00    -0.345 OA
ATOM     53  H4  UNL     1       4.184  19.234  19.095  1.00  0.00     0.219 HD
ENDBRANCH  21  52
TORSDOF 15
ENDMDL
MODEL 5
REMARK VINA RESULT: -5.987953176      2.810      6.703
REMARK  15 active torsions:
REMARK  status: ('A' for Active; 'I' for Inactive)
REMARK    1  A    between atoms: C2_2  and  C4_4 
REMARK    2  A    between atoms: C4_4  and  C5_5 
REMARK    3  A    between atoms: C6_8  and  O1_9 
REMARK    4  A    between atoms: C12_18  and  C13_19 
REMARK    5  A    between atoms: C13_19  and  C14_20 
REMARK    6  A    between atoms: C14_20  and  C15_21 
REMARK    7  A    between atoms: C15_21  and  N3_22 
REMARK       I    between atoms: C16_24  and  N5_26 
REMARK    8  A    between atoms: C18_31  and  C19_32 
REMARK    9  A    between atoms: C19_32  and  C20_33 
REMARK   10  A    between atoms: C20_33  and  C21_34 
REMARK   11  A    between atoms: C21_34  and  C22_35 
REMARK   12  A    between atoms: C22_35  and  N8_36 
REMARK   13  A    between atoms: C24_44  and  C25_45 
REMARK   14  A    between atoms: C25_45  and  C26_46 
REMARK   15  A    between atoms: C30_51  and  O4_52 
ROOT
HETATM    1  C5  UNL     1      -3.025  21.706  21.627  1.00  0.00     0.062 C 
HETATM    2  N1  UNL     1      -2.058  21.933  22.668  1.00  0.00    -0.335 N 
ATOM      3  H1  UNL     1      -2.341  22.705  23.271  1.00  0.00     0.168 HD
HETATM    4  C6  UNL     1      -0.845  21.391  23.079  1.00  0.00     0.163 C 
HETATM    5  C7  UNL     1      -0.363  20.242  23.817  1.00  0.00     0.065 C 
HETATM    6  C8  UNL     1      -0.687  20.347  25.320  1.00  0.00     0.063 C 
HETATM    7  C9  UNL     1      -0.949  18.929  25.670  1.00  0.00     0.026 C 
HETATM    8  C10 UNL     1      -0.140  18.143  24.624  1.00  0.00     0.133 C 
HETATM    9  N2  UNL     1      -0.495  18.904  23.378  1.00  0.00    -0.314 N 
HETATM   10  C11 UNL     1      -0.816  18.267  22.194  1.00  0.00     0.252 C 
HETATM   11  O2  UNL     1      -1.836  17.469  22.294  1.00  0.00    -0.268 OA
HETATM   12  C12 UNL     1      -0.263  18.277  20.828  1.00  0.00     0.011 C 
HETATM   13  C18 UNL     1      -1.347  18.114  19.839  1.00  0.00     0.119 C 
HETATM   14  N9  UNL     1      -1.162  18.759  18.558  1.00  0.00    -0.351 N 
ATOM     15  H9  UNL     1      -0.222  18.741  18.161  1.00  0.00     0.163 HD
HETATM   16  C23 UNL     1      -2.164  19.412  17.809  1.00  0.00     0.241 C 
HETATM   17  O3  UNL     1      -2.303  19.106  16.565  1.00  0.00    -0.271 OA
HETATM   18  C24 UNL     1      -3.109  20.460  18.348  1.00  0.00     0.178 C 
HETATM   19  N10 UNL     1      -2.331  21.444  19.064  1.00  0.00    -0.351 N 
HETATM   20  C29 UNL     1      -1.107  21.801  18.268  1.00  0.00     0.152 C 
HETATM   21  C30 UNL     1      -2.543  22.071  20.284  1.00  0.00     0.161 C 
ENDROOT
BRANCH  12  22
HETATM   22  C13 UNL     1       0.867  19.168  20.532  1.00  0.00     0.043 C 
BRANCH  22  23
HETATM   23  C14 UNL     1       2.131  18.432  20.113  1.00  0.00     0.024 C 
BRANCH  23  24
HETATM   24  C15 UNL     1       3.346  19.331  20.206  1.00  0.00     0.122 C 
BRANCH  24  25
HETATM   25  N3  UNL     1       2.825  20.681  20.311  1.00  0.00    -0.364 N 
HETATM   26  C16 UNL     1       3.375  21.541  21.096  1.00  0.00     0.190 C 
HETATM   27  N4  UNL     1       2.901  22.873  21.231  1.00  0.00    -0.063 NA
HETATM   28  N5  UNL     1       4.506  21.157  21.864  1.00  0.00    -0.307 N 
HETATM   29  C17 UNL     1       5.456  22.028  21.973  1.00  0.00     0.203 C 
ATOM     30  H5  UNL     1       4.566  20.240  22.308  1.00  0.00     0.170 HD
HETATM   31  N6  UNL     1       6.594  21.652  22.740  1.00  0.00    -0.066 NA
HETATM   32  N7  UNL     1       5.446  23.305  21.393  1.00  0.00    -0.066 NA
ATOM     33  H3  UNL     1       2.012  20.952  19.757  1.00  0.00     0.162 HD
ENDBRANCH  24  25
ENDBRANCH  23  24
ENDBRANCH  22  23
ENDBRANCH  12  22
BRANCH  13  34
HETATM   34  C19 UNL     1      -1.678  16.651  19.495  1.00  0.00     0.030 C 
BRANCH  34  35
HETATM   35  C20 UNL     1      -0.542  15.913  18.875  1.00  0.00     0.004 C 
BRANCH  35  36
HETATM   36  C21 UNL     1      -1.018  15.052  17.695  1.00  0.00     0.027 C 
BRANCH  36  37
HETATM   37  C22 UNL     1      -2.332  15.541  17.150  1.00  0.00     0.229 C 
BRANCH  37  38
HETATM   38  N8  UNL     1      -2.079  16.247  15.892  1.00  0.00    -0.079 N 
ATOM     39  H83 UNL     1      -1.137  16.636  15.844  1.00  0.00     0.274 HD
ATOM     40  H82 UNL     1      -2.011  15.614  15.095  1.00  0.00     0.274 HD
ATOM     41  H81 UNL     1      -2.802  16.956  15.768  1.00  0.00     0.274 HD
ENDBRANCH  37  38
ENDBRANCH  36  37
ENDBRANCH  35  36
ENDBRANCH  34  35
ENDBRANCH  13  34
BRANCH   4  42
HETATM   42  O1  UNL     1       0.197  22.127  22.706  1.00  0.00    -0.345 OA
ATOM     43  H1  UNL     1       1.025  21.761  22.995  1.00  0.00     0.219 HD
ENDBRANCH   4  42
BRANCH  18  44
HETATM   44  C25 UNL     1      -3.710  21.159  17.105  1.00  0.00     0.038 C 
BRANCH  44  45
HETATM   45  C26 UNL     1      -5.204  21.109  17.092  1.00  0.00    -0.020 C 
HETATM   46  C27 UNL     1      -5.792  21.735  15.849  1.00  0.00     0.009 C 
HETATM   47  C28 UNL     1      -5.735  21.861  18.311  1.00  0.00     0.009 C 
ENDBRANCH  44  45
ENDBRANCH  18  44
BRANCH   1  48
HETATM   48  C4  UNL     1      -4.034  20.653  21.772  1.00  0.00     0.065 C 
BRANCH  48  49
HETATM   49  C2  UNL     1      -4.719  20.538  23.117  1.00  0.00    -0.017 C 
HETATM   50  C1  UNL     1      -4.268  19.440  23.992  1.00  0.00     0.010 C 
HETATM   51  C3  UNL     1      -6.224  20.611  22.962  1.00  0.00     0.010 C 
ENDBRANCH  48  49
ENDBRANCH   1  48
BRANCH  21  52
HETATM   52  O4  UNL     1      -2.224  23.342  20.228  1.00  0.00    -0.345 OA
ATOM     53  H4  UNL     1      -1.526  23.491  19.602  1.00  0.00     0.219 HD
ENDBRANCH  21  52
TORSDOF 15
ENDMDL
