MODEL 1
REMARK VINA RESULT: -6.256274854      0.000      0.000
REMARK  16 active torsions:
REMARK  status: ('A' for Active; 'I' for Inactive)
REMARK    1  A    between atoms: C2_2  and  C4_4 
REMARK    2  A    between atoms: C4_4  and  C5_5 
REMARK    3  A    between atoms: N2_12  and  C9_13 
REMARK    4  A    between atoms: C9_13  and  C10_14 
REMARK    5  A    between atoms: C13_17  and  O2_18 
REMARK    6  A    between atoms: C14_20  and  C15_21 
REMARK    7  A    between atoms: C15_21  and  C16_22 
REMARK    8  A    between atoms: C16_22  and  C17_23 
REMARK    9  A    between atoms: C17_23  and  C18_24 
REMARK   10  A    between atoms: C18_24  and  N3_25 
REMARK   11  A    between atoms: C19_31  and  O3_32 
REMARK   12  A    between atoms: N5_34  and  C20_35 
REMARK   13  A    between atoms: C20_35  and  C22_37 
REMARK   14  A    between atoms: C24_42  and  C25_43 
REMARK   15  A    between atoms: C25_43  and  C26_44 
REMARK   16  A    between atoms: C29_49  and  O6_50 
ROOT
HETATM    1  C5  UNL     1       1.240  21.333  22.097  1.00  0.00     0.159 C 
HETATM    2  N1  UNL     1       1.455  19.936  21.893  1.00  0.00    -0.347 N 
ATOM      3  H1  UNL     1       1.723  19.419  22.731  1.00  0.00     0.163 HD
HETATM    4  C6  UNL     1       1.359  19.169  20.747  1.00  0.00     0.241 C 
HETATM    5  O1  UNL     1       1.963  18.046  20.717  1.00  0.00    -0.271 OA
HETATM    6  C7  UNL     1       0.608  19.528  19.518  1.00  0.00     0.178 C 
HETATM    7  C8  UNL     1       0.867  18.589  18.398  1.00  0.00     0.043 C 
HETATM    8  N2  UNL     1      -0.766  19.853  19.766  1.00  0.00    -0.330 N 
HETATM    9  C13 UNL     1      -1.596  19.363  20.811  1.00  0.00     0.141 C 
HETATM   10  C14 UNL     1      -1.929  18.052  21.334  1.00  0.00     0.160 C 
HETATM   11  N4  UNL     1      -1.471  17.732  22.654  1.00  0.00    -0.344 N 
ATOM     12  H4  UNL     1      -0.537  17.324  22.658  1.00  0.00     0.164 HD
HETATM   13  C19 UNL     1      -2.012  17.852  23.933  1.00  0.00     0.223 C 
HETATM   14  N5  UNL     1      -2.275  19.003  24.751  1.00  0.00    -0.265 N 
HETATM   15  C23 UNL     1      -1.348  20.086  24.934  1.00  0.00     0.274 C 
HETATM   16  O5  UNL     1      -1.886  21.241  24.707  1.00  0.00    -0.266 OA
HETATM   17  C24 UNL     1       0.036  20.147  25.314  1.00  0.00     0.080 C 
HETATM   18  N7  UNL     1       0.890  21.115  24.685  1.00  0.00    -0.338 N 
ATOM     19  H7  UNL     1       1.660  21.398  25.292  1.00  0.00     0.167 HD
HETATM   20  C29 UNL     1       0.931  21.757  23.471  1.00  0.00     0.139 C 
ENDROOT
BRANCH  10  21
HETATM   21  C15 UNL     1      -1.626  16.869  20.394  1.00  0.00     0.034 C 
BRANCH  21  22
HETATM   22  C16 UNL     1      -2.371  17.200  19.081  1.00  0.00     0.004 C 
BRANCH  22  23
HETATM   23  C17 UNL     1      -2.367  16.042  18.137  1.00  0.00     0.027 C 
BRANCH  23  24
HETATM   24  C18 UNL     1      -1.645  16.343  16.840  1.00  0.00     0.229 C 
BRANCH  24  25
HETATM   25  N3  UNL     1      -2.255  17.517  16.203  1.00  0.00    -0.079 N 
ATOM     26  H33 UNL     1      -2.903  17.258  15.458  1.00  0.00     0.274 HD
ATOM     27  H32 UNL     1      -2.920  17.987  16.817  1.00  0.00     0.274 HD
ATOM     28  H31 UNL     1      -1.521  18.145  15.874  1.00  0.00     0.274 HD
ENDBRANCH  24  25
ENDBRANCH  23  24
ENDBRANCH  22  23
ENDBRANCH  21  22
ENDBRANCH  10  21
BRANCH   9  29
HETATM   29  O2  UNL     1      -2.192  20.366  21.432  1.00  0.00    -0.348 OA
ATOM     30  H2  UNL     1      -2.217  20.206  22.368  1.00  0.00     0.219 HD
ENDBRANCH   9  29
BRANCH   8  31
HETATM   31  C9  UNL     1      -1.333  20.921  18.947  1.00  0.00     0.070 C 
BRANCH  31  32
HETATM   32  C10 UNL     1      -2.161  20.650  17.796  1.00  0.00     0.016 C 
HETATM   33  C11 UNL     1      -3.617  21.072  18.205  1.00  0.00     0.015 C 
HETATM   34  C12 UNL     1      -1.934  21.445  16.545  1.00  0.00     0.015 C 
ENDBRANCH  31  32
ENDBRANCH   8  31
BRANCH  13  35
HETATM   35  O3  UNL     1      -2.359  16.740  24.559  1.00  0.00    -0.332 OA
ATOM     36  H3  UNL     1      -3.261  16.659  24.846  1.00  0.00     0.220 HD
ENDBRANCH  13  35
BRANCH  14  37
HETATM   37  C20 UNL     1      -3.568  19.024  25.423  1.00  0.00     0.181 C 
HETATM   38  C21 UNL     1      -3.676  18.075  26.591  1.00  0.00     0.042 C 
BRANCH  37  39
HETATM   39  C22 UNL     1      -4.748  18.755  24.578  1.00  0.00     0.254 C 
HETATM   40  N6  UNL     1      -5.598  17.627  24.834  1.00  0.00    -0.060 NA
HETATM   41  O4  UNL     1      -5.042  19.483  23.630  1.00  0.00    -0.275 OA
ENDBRANCH  37  39
ENDBRANCH  14  37
BRANCH  17  42
HETATM   42  C25 UNL     1       0.799  18.939  25.683  1.00  0.00     0.067 C 
BRANCH  42  43
HETATM   43  C26 UNL     1       1.006  18.742  27.157  1.00  0.00    -0.017 C 
HETATM   44  C27 UNL     1      -0.314  18.372  27.801  1.00  0.00     0.010 C 
HETATM   45  C28 UNL     1       1.408  20.091  27.783  1.00  0.00     0.010 C 
ENDBRANCH  42  43
ENDBRANCH  17  42
BRANCH   1  46
HETATM   46  C4  UNL     1       2.406  22.078  21.485  1.00  0.00     0.037 C 
BRANCH  46  47
HETATM   47  C2  UNL     1       3.748  21.486  21.643  1.00  0.00    -0.020 C 
HETATM   48  C1  UNL     1       4.364  21.423  20.223  1.00  0.00     0.009 C 
HETATM   49  C3  UNL     1       4.718  22.238  22.512  1.00  0.00     0.009 C 
ENDBRANCH  46  47
ENDBRANCH   1  46
BRANCH  20  50
HETATM   50  O6  UNL     1       0.638  23.027  23.495  1.00  0.00    -0.348 OA
ATOM     51  H6  UNL     1       0.313  23.273  24.353  1.00  0.00     0.219 HD
ENDBRANCH  20  50
TORSDOF 16
ENDMDL
MODEL 2
REMARK VINA RESULT: -6.191458265      2.056      6.815
REMARK  16 active torsions:
REMARK  status: ('A' for Active; 'I' for Inactive)
REMARK    1  A    between atoms: C2_2  and  C4_4 
REMARK    2  A    between atoms: C4_4  and  C5_5 
REMARK    3  A    between atoms: N2_12  and  C9_13 
REMARK    4  A    between atoms: C9_13  and  C10_14 
REMARK    5  A    between atoms: C13_17  and  O2_18 
REMARK    6  A    between atoms: C14_20  and  C15_21 
REMARK    7  A    between atoms: C15_21  and  C16_22 
REMARK    8  A    between atoms: C16_22  and  C17_23 
REMARK    9  A    between atoms: C17_23  and  C18_24 
REMARK   10  A    between atoms: C18_24  and  N3_25 
REMARK   11  A    between atoms: C19_31  and  O3_32 
REMARK   12  A    between atoms: N5_34  and  C20_35 
REMARK   13  A    between atoms: C20_35  and  C22_37 
REMARK   14  A    between atoms: C24_42  and  C25_43 
REMARK   15  A    between atoms: C25_43  and  C26_44 
REMARK   16  A    between atoms: C29_49  and  O6_50 
ROOT
HETATM    1  C5  UNL     1       2.551  20.105  21.110  1.00  0.00     0.159 C 
HETATM    2  N1  UNL     1       1.506  21.065  20.955  1.00  0.00    -0.347 N 
ATOM      3  H1  UNL     1       1.276  21.293  19.988  1.00  0.00     0.163 HD
HETATM    4  C6  UNL     1       0.754  21.736  21.901  1.00  0.00     0.241 C 
HETATM    5  O1  UNL     1       0.162  22.812  21.554  1.00  0.00    -0.271 OA
HETATM    6  C7  UNL     1       0.559  21.324  23.314  1.00  0.00     0.178 C 
HETATM    7  C8  UNL     1      -0.135  22.359  24.119  1.00  0.00     0.043 C 
HETATM    8  N2  UNL     1       0.072  19.982  23.453  1.00  0.00    -0.330 N 
HETATM    9  C13 UNL     1      -0.739  19.257  22.536  1.00  0.00     0.141 C 
HETATM   10  C14 UNL     1      -1.979  19.515  21.831  1.00  0.00     0.160 C 
HETATM   11  N4  UNL     1      -1.911  19.645  20.405  1.00  0.00    -0.344 N 
ATOM     12  H4  UNL     1      -1.725  20.602  20.106  1.00  0.00     0.164 HD
HETATM   13  C19 UNL     1      -2.042  18.763  19.334  1.00  0.00     0.223 C 
HETATM   14  N5  UNL     1      -1.193  17.705  18.863  1.00  0.00    -0.265 N 
HETATM   15  C23 UNL     1       0.232  17.826  18.717  1.00  0.00     0.274 C 
HETATM   16  O5  UNL     1       0.873  16.865  19.301  1.00  0.00    -0.266 OA
HETATM   17  C24 UNL     1       1.080  18.784  18.063  1.00  0.00     0.080 C 
HETATM   18  N7  UNL     1       2.323  19.153  18.680  1.00  0.00    -0.338 N 
ATOM     19  H7  UNL     1       3.022  19.435  17.993  1.00  0.00     0.167 HD
HETATM   20  C29 UNL     1       2.807  19.220  19.964  1.00  0.00     0.139 C 
ENDROOT
BRANCH  10  21
HETATM   21  C15 UNL     1      -2.840  20.657  22.402  1.00  0.00     0.034 C 
BRANCH  21  22
HETATM   22  C16 UNL     1      -3.260  20.178  23.810  1.00  0.00     0.004 C 
BRANCH  22  23
HETATM   23  C17 UNL     1      -4.123  18.961  23.745  1.00  0.00     0.027 C 
BRANCH  23  24
HETATM   24  C18 UNL     1      -4.611  18.512  25.107  1.00  0.00     0.229 C 
BRANCH  24  25
HETATM   25  N3  UNL     1      -5.899  17.822  24.960  1.00  0.00    -0.079 N 
ATOM     26  H33 UNL     1      -6.619  18.428  24.566  1.00  0.00     0.274 HD
ATOM     27  H32 UNL     1      -5.879  17.121  24.220  1.00  0.00     0.274 HD
ATOM     28  H31 UNL     1      -6.177  17.428  25.859  1.00  0.00     0.274 HD
ENDBRANCH  24  25
ENDBRANCH  23  24
ENDBRANCH  22  23
ENDBRANCH  21  22
ENDBRANCH  10  21
BRANCH   9  29
HETATM   29  O2  UNL     1      -0.208  18.071  22.295  1.00  0.00    -0.348 OA
ATOM     30  H2  UNL     1      -0.536  17.726  21.473  1.00  0.00     0.219 HD
ENDBRANCH   9  29
BRANCH   8  31
HETATM   31  C9  UNL     1       0.590  19.223  24.587  1.00  0.00     0.070 C 
BRANCH  31  32
HETATM   32  C10 UNL     1      -0.151  19.078  25.818  1.00  0.00     0.016 C 
HETATM   33  C11 UNL     1      -0.945  17.731  25.685  1.00  0.00     0.015 C 
HETATM   34  C12 UNL     1       0.609  18.879  27.095  1.00  0.00     0.015 C 
ENDBRANCH  31  32
ENDBRANCH   8  31
BRANCH  13  35
HETATM   35  O3  UNL     1      -3.120  18.874  18.576  1.00  0.00    -0.332 OA
ATOM     36  H3  UNL     1      -3.463  18.082  18.179  1.00  0.00     0.220 HD
ENDBRANCH  13  35
BRANCH  14  37
HETATM   37  C20 UNL     1      -1.861  16.457  18.515  1.00  0.00     0.181 C 
HETATM   38  C21 UNL     1      -1.692  15.359  19.534  1.00  0.00     0.042 C 
BRANCH  37  39
HETATM   39  C22 UNL     1      -1.491  15.860  17.216  1.00  0.00     0.254 C 
HETATM   40  N6  UNL     1      -0.960  14.528  17.140  1.00  0.00    -0.060 NA
HETATM   41  O4  UNL     1      -1.624  16.479  16.160  1.00  0.00    -0.275 OA
ENDBRANCH  37  39
ENDBRANCH  14  37
BRANCH  17  42
HETATM   42  C25 UNL     1       0.530  19.909  17.282  1.00  0.00     0.067 C 
BRANCH  42  43
HETATM   43  C26 UNL     1       1.554  20.826  16.678  1.00  0.00    -0.017 C 
HETATM   44  C27 UNL     1       0.899  22.149  16.337  1.00  0.00     0.010 C 
HETATM   45  C28 UNL     1       2.014  20.233  15.332  1.00  0.00     0.010 C 
ENDBRANCH  42  43
ENDBRANCH  17  42
BRANCH   1  46
HETATM   46  C4  UNL     1       3.785  20.834  21.595  1.00  0.00     0.037 C 
BRANCH  46  47
HETATM   47  C2  UNL     1       4.152  22.083  20.901  1.00  0.00    -0.020 C 
HETATM   48  C1  UNL     1       5.063  22.870  21.876  1.00  0.00     0.009 C 
HETATM   49  C3  UNL     1       4.909  21.939  19.610  1.00  0.00     0.009 C 
ENDBRANCH  46  47
ENDBRANCH   1  46
BRANCH  20  50
HETATM   50  O6  UNL     1       3.694  18.319  20.280  1.00  0.00    -0.348 OA
ATOM     51  H6  UNL     1       4.131  18.001  19.498  1.00  0.00     0.219 HD
ENDBRANCH  20  50
TORSDOF 16
ENDMDL
MODEL 3
REMARK VINA RESULT: -6.188765334      2.272      6.772
REMARK  16 active torsions:
REMARK  status: ('A' for Active; 'I' for Inactive)
REMARK    1  A    between atoms: C2_2  and  C4_4 
REMARK    2  A    between atoms: C4_4  and  C5_5 
REMARK    3  A    between atoms: N2_12  and  C9_13 
REMARK    4  A    between atoms: C9_13  and  C10_14 
REMARK    5  A    between atoms: C13_17  and  O2_18 
REMARK    6  A    between atoms: C14_20  and  C15_21 
REMARK    7  A    between atoms: C15_21  and  C16_22 
REMARK    8  A    between atoms: C16_22  and  C17_23 
REMARK    9  A    between atoms: C17_23  and  C18_24 
REMARK   10  A    between atoms: C18_24  and  N3_25 
REMARK   11  A    between atoms: C19_31  and  O3_32 
REMARK   12  A    between atoms: N5_34  and  C20_35 
REMARK   13  A    between atoms: C20_35  and  C22_37 
REMARK   14  A    between atoms: C24_42  and  C25_43 
REMARK   15  A    between atoms: C25_43  and  C26_44 
REMARK   16  A    between atoms: C29_49  and  O6_50 
ROOT
HETATM    1  C5  UNL     1       2.185  20.176  21.048  1.00  0.00     0.159 C 
HETATM    2  N1  UNL     1       1.083  21.049  20.800  1.00  0.00    -0.347 N 
ATOM      3  H1  UNL     1       0.882  21.212  19.814  1.00  0.00     0.163 HD
HETATM    4  C6  UNL     1       0.243  21.708  21.678  1.00  0.00     0.241 C 
HETATM    5  O1  UNL     1      -0.406  22.720  21.251  1.00  0.00    -0.271 OA
HETATM    6  C7  UNL     1       0.015  21.352  23.101  1.00  0.00     0.178 C 
HETATM    7  C8  UNL     1      -0.786  22.372  23.822  1.00  0.00     0.043 C 
HETATM    8  N2  UNL     1      -0.383  19.987  23.289  1.00  0.00    -0.330 N 
HETATM    9  C13 UNL     1      -1.098  19.161  22.378  1.00  0.00     0.141 C 
HETATM   10  C14 UNL     1      -2.320  19.293  21.609  1.00  0.00     0.160 C 
HETATM   11  N4  UNL     1      -2.197  19.358  20.182  1.00  0.00    -0.344 N 
ATOM     12  H4  UNL     1      -2.065  20.310  19.842  1.00  0.00     0.164 HD
HETATM   13  C19 UNL     1      -2.217  18.418  19.154  1.00  0.00     0.223 C 
HETATM   14  N5  UNL     1      -1.275  17.404  18.774  1.00  0.00    -0.265 N 
HETATM   15  C23 UNL     1       0.143  17.621  18.682  1.00  0.00     0.274 C 
HETATM   16  O5  UNL     1       0.823  16.738  19.341  1.00  0.00    -0.266 OA
HETATM   17  C24 UNL     1       0.950  18.604  18.014  1.00  0.00     0.080 C 
HETATM   18  N7  UNL     1       2.135  19.092  18.663  1.00  0.00    -0.338 N 
ATOM     19  H7  UNL     1       2.843  19.391  17.992  1.00  0.00     0.167 HD
HETATM   20  C29 UNL     1       2.554  19.257  19.960  1.00  0.00     0.139 C 
ENDROOT
BRANCH  10  21
HETATM   21  C15 UNL     1      -3.284  20.396  22.085  1.00  0.00     0.034 C 
BRANCH  21  22
HETATM   22  C16 UNL     1      -3.952  19.825  23.356  1.00  0.00     0.004 C 
BRANCH  22  23
HETATM   23  C17 UNL     1      -5.223  20.539  23.680  1.00  0.00     0.027 C 
BRANCH  23  24
HETATM   24  C18 UNL     1      -6.037  20.881  22.449  1.00  0.00     0.229 C 
BRANCH  24  25
HETATM   25  N3  UNL     1      -7.378  20.296  22.573  1.00  0.00    -0.079 N 
ATOM     26  H33 UNL     1      -7.408  19.542  23.259  1.00  0.00     0.274 HD
ATOM     27  H32 UNL     1      -8.035  20.930  23.025  1.00  0.00     0.274 HD
ATOM     28  H31 UNL     1      -7.702  19.994  21.654  1.00  0.00     0.274 HD
ENDBRANCH  24  25
ENDBRANCH  23  24
ENDBRANCH  22  23
ENDBRANCH  21  22
ENDBRANCH  10  21
BRANCH   9  29
HETATM   29  O2  UNL     1      -0.474  18.007  22.221  1.00  0.00    -0.348 OA
ATOM     30  H2  UNL     1      -1.098  17.322  22.009  1.00  0.00     0.219 HD
ENDBRANCH   9  29
BRANCH   8  31
HETATM   31  C9  UNL     1       0.136  19.323  24.481  1.00  0.00     0.070 C 
BRANCH  31  32
HETATM   32  C10 UNL     1      -0.732  18.817  25.518  1.00  0.00     0.016 C 
HETATM   33  C11 UNL     1       0.206  18.451  26.723  1.00  0.00     0.015 C 
HETATM   34  C12 UNL     1      -1.718  19.754  26.150  1.00  0.00     0.015 C 
ENDBRANCH  31  32
ENDBRANCH   8  31
BRANCH  13  35
HETATM   35  O3  UNL     1      -3.264  18.414  18.347  1.00  0.00    -0.332 OA
ATOM     36  H3  UNL     1      -3.184  18.870  17.518  1.00  0.00     0.220 HD
ENDBRANCH  13  35
BRANCH  14  37
HETATM   37  C20 UNL     1      -1.837  16.095  18.463  1.00  0.00     0.181 C 
HETATM   38  C21 UNL     1      -1.516  15.026  19.477  1.00  0.00     0.042 C 
BRANCH  37  39
HETATM   39  C22 UNL     1      -1.474  15.525  17.151  1.00  0.00     0.254 C 
HETATM   40  N6  UNL     1      -1.004  14.172  17.038  1.00  0.00    -0.060 NA
HETATM   41  O4  UNL     1      -1.561  16.183  16.114  1.00  0.00    -0.275 OA
ENDBRANCH  37  39
ENDBRANCH  14  37
BRANCH  17  42
HETATM   42  C25 UNL     1       0.359  19.647  17.154  1.00  0.00     0.067 C 
BRANCH  42  43
HETATM   43  C26 UNL     1       1.320  20.691  16.665  1.00  0.00    -0.017 C 
HETATM   44  C27 UNL     1       0.555  21.954  16.327  1.00  0.00     0.010 C 
HETATM   45  C28 UNL     1       1.934  20.212  15.336  1.00  0.00     0.010 C 
ENDBRANCH  42  43
ENDBRANCH  17  42
BRANCH   1  46
HETATM   46  C4  UNL     1       3.342  21.015  21.546  1.00  0.00     0.037 C 
BRANCH  46  47
HETATM   47  C2  UNL     1       3.763  22.154  20.708  1.00  0.00    -0.020 C 
HETATM   48  C1  UNL     1       3.839  23.381  21.651  1.00  0.00     0.009 C 
HETATM   49  C3  UNL     1       5.101  22.034  20.031  1.00  0.00     0.009 C 
ENDBRANCH  46  47
ENDBRANCH   1  46
BRANCH  20  50
HETATM   50  O6  UNL     1       3.488  18.439  20.359  1.00  0.00    -0.348 OA
ATOM     51  H6  UNL     1       3.194  17.539  20.275  1.00  0.00     0.219 HD
ENDBRANCH  20  50
TORSDOF 16
ENDMDL
MODEL 4
REMARK VINA RESULT: -6.168058671      1.341      1.540
REMARK  16 active torsions:
REMARK  status: ('A' for Active; 'I' for Inactive)
REMARK    1  A    between atoms: C2_2  and  C4_4 
REMARK    2  A    between atoms: C4_4  and  C5_5 
REMARK    3  A    between atoms: N2_12  and  C9_13 
REMARK    4  A    between atoms: C9_13  and  C10_14 
REMARK    5  A    between atoms: C13_17  and  O2_18 
REMARK    6  A    between atoms: C14_20  and  C15_21 
REMARK    7  A    between atoms: C15_21  and  C16_22 
REMARK    8  A    between atoms: C16_22  and  C17_23 
REMARK    9  A    between atoms: C17_23  and  C18_24 
REMARK   10  A    between atoms: C18_24  and  N3_25 
REMARK   11  A    between atoms: C19_31  and  O3_32 
REMARK   12  A    between atoms: N5_34  and  C20_35 
REMARK   13  A    between atoms: C20_35  and  C22_37 
REMARK   14  A    between atoms: C24_42  and  C25_43 
REMARK   15  A    between atoms: C25_43  and  C26_44 
REMARK   16  A    between atoms: C29_49  and  O6_50 
ROOT
HETATM    1  C5  UNL     1       0.464  21.603  21.596  1.00  0.00     0.159 C 
HETATM    2  N1  UNL     1       0.986  20.275  21.546  1.00  0.00    -0.347 N 
ATOM      3  H1  UNL     1       1.282  19.899  22.447  1.00  0.00     0.163 HD
HETATM    4  C6  UNL     1       1.156  19.415  20.477  1.00  0.00     0.241 C 
HETATM    5  O1  UNL     1       1.984  18.452  20.600  1.00  0.00    -0.271 OA
HETATM    6  C7  UNL     1       0.458  19.500  19.170  1.00  0.00     0.178 C 
HETATM    7  C8  UNL     1       1.007  18.552  18.169  1.00  0.00     0.043 C 
HETATM    8  N2  UNL     1      -0.971  19.536  19.290  1.00  0.00    -0.330 N 
HETATM    9  C13 UNL     1      -1.767  18.964  20.320  1.00  0.00     0.141 C 
HETATM   10  C14 UNL     1      -1.861  17.659  20.945  1.00  0.00     0.160 C 
HETATM   11  N4  UNL     1      -1.465  17.556  22.319  1.00  0.00    -0.344 N 
ATOM     12  H4  UNL     1      -0.469  17.363  22.427  1.00  0.00     0.164 HD
HETATM   13  C19 UNL     1      -2.128  17.659  23.540  1.00  0.00     0.223 C 
HETATM   14  N5  UNL     1      -2.700  18.787  24.220  1.00  0.00    -0.265 N 
HETATM   15  C23 UNL     1      -2.042  20.058  24.358  1.00  0.00     0.274 C 
HETATM   16  O5  UNL     1      -2.789  21.045  23.982  1.00  0.00    -0.266 OA
HETATM   17  C24 UNL     1      -0.741  20.450  24.824  1.00  0.00     0.080 C 
HETATM   18  N7  UNL     1      -0.058  21.527  24.163  1.00  0.00    -0.338 N 
ATOM     19  H7  UNL     1       0.578  22.019  24.790  1.00  0.00     0.167 HD
HETATM   20  C29 UNL     1      -0.047  22.061  22.897  1.00  0.00     0.139 C 
ENDROOT
BRANCH  10  21
HETATM   21  C15 UNL     1      -1.234  16.499  20.149  1.00  0.00     0.034 C 
BRANCH  21  22
HETATM   22  C16 UNL     1      -2.080  16.392  18.860  1.00  0.00     0.004 C 
BRANCH  22  23
HETATM   23  C17 UNL     1      -1.388  15.588  17.810  1.00  0.00     0.027 C 
BRANCH  23  24
HETATM   24  C18 UNL     1      -1.527  14.095  18.025  1.00  0.00     0.229 C 
BRANCH  24  25
HETATM   25  N3  UNL     1      -1.911  13.453  16.761  1.00  0.00    -0.079 N 
ATOM     26  H33 UNL     1      -2.374  14.102  16.124  1.00  0.00     0.274 HD
ATOM     27  H32 UNL     1      -1.102  13.233  16.179  1.00  0.00     0.274 HD
ATOM     28  H31 UNL     1      -2.481  12.631  16.957  1.00  0.00     0.274 HD
ENDBRANCH  24  25
ENDBRANCH  23  24
ENDBRANCH  22  23
ENDBRANCH  21  22
ENDBRANCH  10  21
BRANCH   9  29
HETATM   29  O2  UNL     1      -2.614  19.861  20.796  1.00  0.00    -0.348 OA
ATOM     30  H2  UNL     1      -2.847  19.649  21.692  1.00  0.00     0.219 HD
ENDBRANCH   9  29
BRANCH   8  31
HETATM   31  C9  UNL     1      -1.676  20.385  18.333  1.00  0.00     0.070 C 
BRANCH  31  32
HETATM   32  C10 UNL     1      -2.268  19.855  17.128  1.00  0.00     0.016 C 
HETATM   33  C11 UNL     1      -3.820  19.876  17.366  1.00  0.00     0.015 C 
HETATM   34  C12 UNL     1      -2.127  20.636  15.855  1.00  0.00     0.015 C 
ENDBRANCH  31  32
ENDBRANCH   8  31
BRANCH  13  35
HETATM   35  O3  UNL     1      -2.287  16.554  24.247  1.00  0.00    -0.332 OA
ATOM     36  H3  UNL     1      -2.354  16.640  25.191  1.00  0.00     0.220 HD
ENDBRANCH  13  35
BRANCH  14  37
HETATM   37  C20 UNL     1      -4.023  18.581  24.797  1.00  0.00     0.181 C 
HETATM   38  C21 UNL     1      -5.123  19.359  24.118  1.00  0.00     0.042 C 
BRANCH  37  39
HETATM   39  C22 UNL     1      -4.158  18.871  26.238  1.00  0.00     0.254 C 
HETATM   40  N6  UNL     1      -4.835  20.052  26.694  1.00  0.00    -0.060 NA
HETATM   41  O4  UNL     1      -3.697  18.115  27.094  1.00  0.00    -0.275 OA
ENDBRANCH  37  39
ENDBRANCH  14  37
BRANCH  17  42
HETATM   42  C25 UNL     1       0.224  19.472  25.362  1.00  0.00     0.067 C 
BRANCH  42  43
HETATM   43  C26 UNL     1      -0.124  18.909  26.709  1.00  0.00    -0.017 C 
HETATM   44  C27 UNL     1      -0.717  20.005  27.571  1.00  0.00     0.010 C 
HETATM   45  C28 UNL     1       1.177  18.484  27.418  1.00  0.00     0.010 C 
ENDBRANCH  42  43
ENDBRANCH  17  42
BRANCH   1  46
HETATM   46  C4  UNL     1       1.496  22.532  20.994  1.00  0.00     0.037 C 
BRANCH  46  47
HETATM   47  C2  UNL     1       2.852  22.509  21.577  1.00  0.00    -0.020 C 
HETATM   48  C1  UNL     1       3.819  22.191  20.410  1.00  0.00     0.009 C 
HETATM   49  C3  UNL     1       3.333  23.784  22.214  1.00  0.00     0.009 C 
ENDBRANCH  46  47
ENDBRANCH   1  46
BRANCH  20  50
HETATM   50  O6  UNL     1      -0.602  23.234  22.776  1.00  0.00    -0.348 OA
ATOM     51  H6  UNL     1      -1.397  23.276  23.293  1.00  0.00     0.219 HD
ENDBRANCH  20  50
TORSDOF 16
ENDMDL
MODEL 5
REMARK VINA RESULT: -6.016222773      2.701      6.374
REMARK  16 active torsions:
REMARK  status: ('A' for Active; 'I' for Inactive)
REMARK    1  A    between atoms: C2_2  and  C4_4 
REMARK    2  A    between atoms: C4_4  and  C5_5 
REMARK    3  A    between atoms: N2_12  and  C9_13 
REMARK    4  A    between atoms: C9_13  and  C10_14 
REMARK    5  A    between atoms: C13_17  and  O2_18 
REMARK    6  A    between atoms: C14_20  and  C15_21 
REMARK    7  A    between atoms: C15_21  and  C16_22 
REMARK    8  A    between atoms: C16_22  and  C17_23 
REMARK    9  A    between atoms: C17_23  and  C18_24 
REMARK   10  A    between atoms: C18_24  and  N3_25 
REMARK   11  A    between atoms: C19_31  and  O3_32 
REMARK   12  A    between atoms: N5_34  and  C20_35 
REMARK   13  A    between atoms: C20_35  and  C22_37 
REMARK   14  A    between atoms: C24_42  and  C25_43 
REMARK   15  A    between atoms: C25_43  and  C26_44 
REMARK   16  A    between atoms: C29_49  and  O6_50 
ROOT
HETATM    1  C5  UNL     1       0.885  19.943  22.516  1.00  0.00     0.159 C 
HETATM    2  N1  UNL     1       1.866  19.475  21.591  1.00  0.00    -0.347 N 
ATOM      3  H1  UNL     1       1.701  18.534  21.234  1.00  0.00     0.163 HD
HETATM    4  C6  UNL     1       3.003  20.088  21.098  1.00  0.00     0.241 C 
HETATM    5  O1  UNL     1       3.919  19.355  20.599  1.00  0.00    -0.271 OA
HETATM    6  C7  UNL     1       3.273  21.547  21.090  1.00  0.00     0.178 C 
HETATM    7  C8  UNL     1       4.661  21.867  20.677  1.00  0.00     0.043 C 
HETATM    8  N2  UNL     1       2.235  22.315  20.466  1.00  0.00    -0.330 N 
HETATM    9  C13 UNL     1       1.355  21.898  19.429  1.00  0.00     0.141 C 
HETATM   10  C14 UNL     1       1.517  21.271  18.131  1.00  0.00     0.160 C 
HETATM   11  N4  UNL     1       1.015  19.937  17.977  1.00  0.00    -0.344 N 
ATOM     12  H4  UNL     1       1.700  19.227  18.231  1.00  0.00     0.164 HD
HETATM   13  C19 UNL     1      -0.197  19.390  17.559  1.00  0.00     0.223 C 
HETATM   14  N5  UNL     1      -1.492  19.363  18.176  1.00  0.00    -0.265 N 
HETATM   15  C23 UNL     1      -1.714  19.046  19.561  1.00  0.00     0.274 C 
HETATM   16  O5  UNL     1      -2.438  19.934  20.162  1.00  0.00    -0.266 OA
HETATM   17  C24 UNL     1      -1.302  17.957  20.403  1.00  0.00     0.080 C 
HETATM   18  N7  UNL     1      -0.947  18.226  21.768  1.00  0.00    -0.338 N 
ATOM     19  H7  UNL     1      -1.119  17.423  22.373  1.00  0.00     0.167 HD
HETATM   20  C29 UNL     1      -0.433  19.293  22.463  1.00  0.00     0.139 C 
ENDROOT
BRANCH  10  21
HETATM   21  C15 UNL     1       2.933  21.351  17.530  1.00  0.00     0.034 C 
BRANCH  21  22
HETATM   22  C16 UNL     1       2.725  21.827  16.075  1.00  0.00     0.004 C 
BRANCH  22  23
HETATM   23  C17 UNL     1       2.955  20.724  15.095  1.00  0.00     0.027 C 
BRANCH  23  24
HETATM   24  C18 UNL     1       1.989  20.763  13.928  1.00  0.00     0.229 C 
BRANCH  24  25
HETATM   25  N3  UNL     1       0.628  20.990  14.429  1.00  0.00    -0.079 N 
ATOM     26  H33 UNL     1       0.614  21.207  15.425  1.00  0.00     0.274 HD
ATOM     27  H32 UNL     1       0.231  21.865  14.085  1.00  0.00     0.274 HD
ATOM     28  H31 UNL     1       0.044  20.185  14.201  1.00  0.00     0.274 HD
ENDBRANCH  24  25
ENDBRANCH  23  24
ENDBRANCH  22  23
ENDBRANCH  21  22
ENDBRANCH  10  21
BRANCH   9  29
HETATM   29  O2  UNL     1       0.103  22.163  19.757  1.00  0.00    -0.348 OA
ATOM     30  H2  UNL     1      -0.324  22.649  19.061  1.00  0.00     0.219 HD
ENDBRANCH   9  29
BRANCH   8  31
HETATM   31  C9  UNL     1       1.945  23.615  21.065  1.00  0.00     0.070 C 
BRANCH  31  32
HETATM   32  C10 UNL     1       1.625  23.762  22.465  1.00  0.00     0.016 C 
HETATM   33  C11 UNL     1       2.629  24.832  23.025  1.00  0.00     0.015 C 
HETATM   34  C12 UNL     1       0.294  24.341  22.841  1.00  0.00     0.015 C 
ENDBRANCH  31  32
ENDBRANCH   8  31
BRANCH  13  35
HETATM   35  O3  UNL     1      -0.218  18.766  16.393  1.00  0.00    -0.332 OA
ATOM     36  H3  UNL     1       0.265  17.951  16.320  1.00  0.00     0.220 HD
ENDBRANCH  13  35
BRANCH  14  37
HETATM   37  C20 UNL     1      -2.620  19.671  17.306  1.00  0.00     0.181 C 
HETATM   38  C21 UNL     1      -3.113  18.501  16.492  1.00  0.00     0.042 C 
BRANCH  37  39
HETATM   39  C22 UNL     1      -2.420  20.773  16.345  1.00  0.00     0.254 C 
HETATM   40  N6  UNL     1      -2.320  22.134  16.792  1.00  0.00    -0.060 NA
HETATM   41  O4  UNL     1      -2.332  20.566  15.134  1.00  0.00    -0.275 OA
ENDBRANCH  37  39
ENDBRANCH  14  37
BRANCH  17  42
HETATM   42  C25 UNL     1      -0.534  16.812  19.878  1.00  0.00     0.067 C 
BRANCH  42  43
HETATM   43  C26 UNL     1      -1.355  15.740  19.222  1.00  0.00    -0.017 C 
HETATM   44  C27 UNL     1      -0.930  14.388  19.757  1.00  0.00     0.010 C 
HETATM   45  C28 UNL     1      -1.020  15.713  17.718  1.00  0.00     0.010 C 
ENDBRANCH  42  43
ENDBRANCH  17  42
BRANCH   1  46
HETATM   46  C4  UNL     1       1.505  19.935  23.897  1.00  0.00     0.037 C 
BRANCH  46  47
HETATM   47  C2  UNL     1       1.834  21.240  24.501  1.00  0.00    -0.020 C 
HETATM   48  C1  UNL     1       1.077  21.295  25.851  1.00  0.00     0.009 C 
HETATM   49  C3  UNL     1       3.286  21.498  24.798  1.00  0.00     0.009 C 
ENDBRANCH  46  47
ENDBRANCH   1  46
BRANCH  20  50
HETATM   50  O6  UNL     1      -1.265  19.894  23.269  1.00  0.00    -0.348 OA
ATOM     51  H6  UNL     1      -1.982  19.312  23.492  1.00  0.00     0.219 HD
ENDBRANCH  20  50
TORSDOF 16
ENDMDL
