MODEL 1
REMARK VINA RESULT: -6.921878577      0.000      0.000
REMARK  13 active torsions:
REMARK  status: ('A' for Active; 'I' for Inactive)
REMARK    1  A    between atoms: C2_2  and  C3_3 
REMARK    2  A    between atoms: C3_3  and  C4_4 
REMARK    3  A    between atoms: C4_4  and  C5_5 
REMARK    4  A    between atoms: C6_8  and  O1_9 
REMARK    5  A    between atoms: C11_19  and  C12_20 
REMARK    6  A    between atoms: C12_20  and  C13_21 
REMARK    7  A    between atoms: N4_29  and  C19_30 
REMARK    8  A    between atoms: C19_30  and  C20_31 
REMARK    9  A    between atoms: C20_31  and  C21_32 
REMARK   10  A    between atoms: C21_32  and  C22_33 
REMARK   11  A    between atoms: C22_33  and  C23_34 
REMARK   12  A    between atoms: C23_34  and  C24_35 
REMARK       I    between atoms: C24_35  and  N5_37 
REMARK   13  A    between atoms: N5_37  and  C25_39 
ROOT
HETATM    1  C5  UNL     1      -1.684  18.376  17.850  1.00  0.00     0.079 C 
HETATM    2  N1  UNL     1      -1.860  18.335  19.272  1.00  0.00    -0.333 N 
ATOM      3  H1  UNL     1      -2.821  18.485  19.580  1.00  0.00     0.168 HD
HETATM    4  C6  UNL     1      -0.944  18.125  20.315  1.00  0.00     0.189 C 
HETATM    5  C7  UNL     1       0.226  18.872  20.688  1.00  0.00     0.221 C 
HETATM    6  O2  UNL     1       1.355  18.250  20.688  1.00  0.00    -0.286 OA
HETATM    7  C8  UNL     1       0.332  20.300  21.088  1.00  0.00     0.159 C 
HETATM    8  C9  UNL     1      -0.922  20.855  21.715  1.00  0.00     0.041 C 
HETATM    9  N2  UNL     1       1.419  20.458  22.030  1.00  0.00    -0.348 N 
ATOM     10  H2  UNL     1       1.246  20.068  22.957  1.00  0.00     0.163 HD
HETATM   11  C10 UNL     1       2.662  21.059  21.868  1.00  0.00     0.241 C 
HETATM   12  O3  UNL     1       3.717  20.304  21.883  1.00  0.00    -0.271 OA
HETATM   13  C11 UNL     1       2.965  22.527  21.671  1.00  0.00     0.179 C 
HETATM   14  N3  UNL     1       4.125  22.571  20.860  1.00  0.00    -0.342 N 
HETATM   15  C16 UNL     1       5.396  22.888  21.572  1.00  0.00     0.153 C 
HETATM   16  C17 UNL     1       4.307  22.334  19.482  1.00  0.00     0.238 C 
HETATM   17  O4  UNL     1       5.305  22.958  18.963  1.00  0.00    -0.272 OA
HETATM   18  C18 UNL     1       3.541  21.496  18.573  1.00  0.00     0.228 C 
HETATM   19  N4  UNL     1       3.050  22.037  17.356  1.00  0.00    -0.342 N 
HETATM   20  C27 UNL     1       1.737  21.692  16.902  1.00  0.00     0.242 C 
HETATM   21  O6  UNL     1       1.021  22.517  16.229  1.00  0.00    -0.271 OA
HETATM   22  C28 UNL     1       1.064  20.372  17.147  1.00  0.00     0.173 C 
HETATM   23  C29 UNL     1       1.371  19.539  15.920  1.00  0.00     0.042 C 
HETATM   24  N6  UNL     1      -0.352  20.567  17.371  1.00  0.00    -0.343 N 
ATOM     25  H6  UNL     1      -0.601  21.509  17.671  1.00  0.00     0.163 HD
HETATM   26  C30 UNL     1      -1.436  19.699  17.251  1.00  0.00     0.264 C 
HETATM   27  O7  UNL     1      -2.389  20.128  16.486  1.00  0.00    -0.266 OA
ENDROOT
BRANCH  19  28
HETATM   28  C19 UNL     1       3.752  22.945  16.460  1.00  0.00     0.126 C 
BRANCH  28  29
HETATM   29  C20 UNL     1       4.036  22.295  15.131  1.00  0.00     0.020 C 
BRANCH  29  30
HETATM   30  C21 UNL     1       5.435  21.748  14.993  1.00  0.00     0.002 C 
BRANCH  30  31
HETATM   31  C22 UNL     1       5.516  20.840  13.802  1.00  0.00     0.009 C 
BRANCH  31  32
HETATM   32  C23 UNL     1       6.876  20.245  13.634  1.00  0.00     0.103 C 
BRANCH  32  33
HETATM   33  C24 UNL     1       7.753  20.913  12.653  1.00  0.00     0.217 C 
HETATM   34  O5  UNL     1       7.309  21.811  11.911  1.00  0.00    -0.274 OA
HETATM   35  N5  UNL     1       9.110  20.558  12.522  1.00  0.00    -0.361 N 
ATOM     36  H5  UNL     1       9.494  19.828  13.120  1.00  0.00     0.162 HD
BRANCH  35  37
HETATM   37  C25 UNL     1       9.959  21.201  11.569  1.00  0.00     0.118 C 
HETATM   38  C26 UNL     1      11.272  20.498  11.410  1.00  0.00     0.026 C 
ENDBRANCH  35  37
ENDBRANCH  32  33
ENDBRANCH  31  32
ENDBRANCH  30  31
ENDBRANCH  29  30
ENDBRANCH  28  29
ENDBRANCH  19  28
BRANCH  13  39
HETATM   39  C12 UNL     1       1.782  23.324  21.381  1.00  0.00     0.039 C 
BRANCH  39  40
HETATM   40  C13 UNL     1       1.291  24.282  22.423  1.00  0.00    -0.020 C 
HETATM   41  C14 UNL     1       0.582  23.729  23.595  1.00  0.00     0.009 C 
HETATM   42  C15 UNL     1       2.445  25.194  22.893  1.00  0.00     0.009 C 
ENDBRANCH  39  40
ENDBRANCH  13  39
BRANCH   1  43
HETATM   43  C4  UNL     1      -0.825  17.267  17.286  1.00  0.00     0.063 C 
BRANCH  43  44
HETATM   44  C3  UNL     1      -1.665  16.036  17.116  1.00  0.00     0.006 C 
BRANCH  44  45
HETATM   45  C2  UNL     1      -0.958  14.942  17.939  1.00  0.00    -0.004 C 
HETATM   46  C1  UNL     1      -1.579  13.610  17.590  1.00  0.00     0.005 C 
ENDBRANCH  44  45
ENDBRANCH  43  44
ENDBRANCH   1  43
BRANCH   4  47
HETATM   47  O1  UNL     1      -1.151  17.095  21.095  1.00  0.00    -0.343 OA
ATOM     48  H1  UNL     1      -0.836  16.250  20.793  1.00  0.00     0.219 HD
ENDBRANCH   4  47
TORSDOF 13
ENDMDL
MODEL 2
REMARK VINA RESULT: -6.907136208      1.225      1.452
REMARK  13 active torsions:
REMARK  status: ('A' for Active; 'I' for Inactive)
REMARK    1  A    between atoms: C2_2  and  C3_3 
REMARK    2  A    between atoms: C3_3  and  C4_4 
REMARK    3  A    between atoms: C4_4  and  C5_5 
REMARK    4  A    between atoms: C6_8  and  O1_9 
REMARK    5  A    between atoms: C11_19  and  C12_20 
REMARK    6  A    between atoms: C12_20  and  C13_21 
REMARK    7  A    between atoms: N4_29  and  C19_30 
REMARK    8  A    between atoms: C19_30  and  C20_31 
REMARK    9  A    between atoms: C20_31  and  C21_32 
REMARK   10  A    between atoms: C21_32  and  C22_33 
REMARK   11  A    between atoms: C22_33  and  C23_34 
REMARK   12  A    between atoms: C23_34  and  C24_35 
REMARK       I    between atoms: C24_35  and  N5_37 
REMARK   13  A    between atoms: N5_37  and  C25_39 
ROOT
HETATM    1  C5  UNL     1      -2.385  18.075  19.484  1.00  0.00     0.079 C 
HETATM    2  N1  UNL     1      -2.366  18.412  20.877  1.00  0.00    -0.333 N 
ATOM      3  H1  UNL     1      -3.267  18.713  21.248  1.00  0.00     0.168 HD
HETATM    4  C6  UNL     1      -1.325  18.400  21.820  1.00  0.00     0.189 C 
HETATM    5  C7  UNL     1      -0.082  19.121  21.839  1.00  0.00     0.221 C 
HETATM    6  O2  UNL     1       1.006  18.429  21.866  1.00  0.00    -0.286 OA
HETATM    7  C8  UNL     1       0.146  20.590  21.833  1.00  0.00     0.159 C 
HETATM    8  C9  UNL     1      -0.982  21.387  22.439  1.00  0.00     0.041 C 
HETATM    9  N2  UNL     1       1.358  20.894  22.563  1.00  0.00    -0.348 N 
ATOM     10  H2  UNL     1       1.296  20.769  23.573  1.00  0.00     0.163 HD
HETATM   11  C10 UNL     1       2.594  21.331  22.099  1.00  0.00     0.241 C 
HETATM   12  O3  UNL     1       3.605  20.521  22.185  1.00  0.00    -0.271 OA
HETATM   13  C11 UNL     1       2.936  22.670  21.487  1.00  0.00     0.179 C 
HETATM   14  N3  UNL     1       3.974  22.412  20.560  1.00  0.00    -0.342 N 
HETATM   15  C16 UNL     1       5.344  22.796  21.004  1.00  0.00     0.153 C 
HETATM   16  C17 UNL     1       3.954  21.817  19.281  1.00  0.00     0.238 C 
HETATM   17  O4  UNL     1       4.899  22.205  18.499  1.00  0.00    -0.272 OA
HETATM   18  C18 UNL     1       3.031  20.841  18.724  1.00  0.00     0.228 C 
HETATM   19  N4  UNL     1       2.403  21.092  17.476  1.00  0.00    -0.342 N 
HETATM   20  C27 UNL     1       1.025  20.751  17.290  1.00  0.00     0.242 C 
HETATM   21  O6  UNL     1       0.263  21.432  16.515  1.00  0.00    -0.271 OA
HETATM   22  C28 UNL     1       0.330  19.596  17.954  1.00  0.00     0.173 C 
HETATM   23  C29 UNL     1       0.427  18.456  16.962  1.00  0.00     0.042 C 
HETATM   24  N6  UNL     1      -1.029  19.956  18.288  1.00  0.00    -0.343 N 
ATOM     25  H6  UNL     1      -1.191  20.960  18.357  1.00  0.00     0.163 HD
HETATM   26  C30 UNL     1      -2.160  19.177  18.533  1.00  0.00     0.264 C 
HETATM   27  O7  UNL     1      -3.188  19.473  17.801  1.00  0.00    -0.266 OA
ENDROOT
BRANCH  19  28
HETATM   28  C19 UNL     1       3.017  21.681  16.295  1.00  0.00     0.126 C 
BRANCH  28  29
HETATM   29  C20 UNL     1       3.437  20.623  15.308  1.00  0.00     0.020 C 
BRANCH  29  30
HETATM   30  C21 UNL     1       4.282  21.136  14.168  1.00  0.00     0.002 C 
BRANCH  30  31
HETATM   31  C22 UNL     1       5.733  21.080  14.538  1.00  0.00     0.009 C 
BRANCH  31  32
HETATM   32  C23 UNL     1       6.530  20.249  13.587  1.00  0.00     0.103 C 
BRANCH  32  33
HETATM   33  C24 UNL     1       7.433  20.991  12.687  1.00  0.00     0.217 C 
HETATM   34  O5  UNL     1       7.006  21.930  11.989  1.00  0.00    -0.274 OA
HETATM   35  N5  UNL     1       8.800  20.661  12.586  1.00  0.00    -0.361 N 
ATOM     36  H5  UNL     1       9.172  19.897  13.150  1.00  0.00     0.162 HD
BRANCH  35  37
HETATM   37  C25 UNL     1       9.675  21.376  11.712  1.00  0.00     0.118 C 
HETATM   38  C26 UNL     1      10.940  20.624  11.433  1.00  0.00     0.026 C 
ENDBRANCH  35  37
ENDBRANCH  32  33
ENDBRANCH  31  32
ENDBRANCH  30  31
ENDBRANCH  29  30
ENDBRANCH  28  29
ENDBRANCH  19  28
BRANCH  13  39
HETATM   39  C12 UNL     1       1.764  23.461  21.143  1.00  0.00     0.039 C 
BRANCH  39  40
HETATM   40  C13 UNL     1       1.906  24.546  20.120  1.00  0.00    -0.020 C 
HETATM   41  C14 UNL     1       1.271  24.346  18.802  1.00  0.00     0.009 C 
HETATM   42  C15 UNL     1       1.458  25.899  20.715  1.00  0.00     0.009 C 
ENDBRANCH  39  40
ENDBRANCH  13  39
BRANCH   1  43
HETATM   43  C4  UNL     1      -1.665  16.793  19.133  1.00  0.00     0.063 C 
BRANCH  43  44
HETATM   44  C3  UNL     1      -2.369  16.135  17.983  1.00  0.00     0.006 C 
BRANCH  44  45
HETATM   45  C2  UNL     1      -1.359  15.122  17.411  1.00  0.00    -0.004 C 
HETATM   46  C1  UNL     1      -0.494  14.624  18.545  1.00  0.00     0.005 C 
ENDBRANCH  44  45
ENDBRANCH  43  44
ENDBRANCH   1  43
BRANCH   4  47
HETATM   47  O1  UNL     1      -1.471  17.624  22.863  1.00  0.00    -0.343 OA
ATOM     48  H1  UNL     1      -1.386  16.688  22.723  1.00  0.00     0.219 HD
ENDBRANCH   4  47
TORSDOF 13
ENDMDL
MODEL 3
REMARK VINA RESULT: -6.864668386      4.082      9.059
REMARK  13 active torsions:
REMARK  status: ('A' for Active; 'I' for Inactive)
REMARK    1  A    between atoms: C2_2  and  C3_3 
REMARK    2  A    between atoms: C3_3  and  C4_4 
REMARK    3  A    between atoms: C4_4  and  C5_5 
REMARK    4  A    between atoms: C6_8  and  O1_9 
REMARK    5  A    between atoms: C11_19  and  C12_20 
REMARK    6  A    between atoms: C12_20  and  C13_21 
REMARK    7  A    between atoms: N4_29  and  C19_30 
REMARK    8  A    between atoms: C19_30  and  C20_31 
REMARK    9  A    between atoms: C20_31  and  C21_32 
REMARK   10  A    between atoms: C21_32  and  C22_33 
REMARK   11  A    between atoms: C22_33  and  C23_34 
REMARK   12  A    between atoms: C23_34  and  C24_35 
REMARK       I    between atoms: C24_35  and  N5_37 
REMARK   13  A    between atoms: N5_37  and  C25_39 
ROOT
HETATM    1  C5  UNL     1      -1.033  17.300  18.472  1.00  0.00     0.079 C 
HETATM    2  N1  UNL     1      -0.205  18.046  17.571  1.00  0.00    -0.333 N 
ATOM      3  H1  UNL     1       0.392  17.471  16.976  1.00  0.00     0.168 HD
HETATM    4  C6  UNL     1      -0.070  19.428  17.364  1.00  0.00     0.189 C 
HETATM    5  C7  UNL     1       0.333  20.468  18.270  1.00  0.00     0.221 C 
HETATM    6  O2  UNL     1      -0.503  21.426  18.487  1.00  0.00    -0.286 OA
HETATM    7  C8  UNL     1       1.610  20.611  19.018  1.00  0.00     0.159 C 
HETATM    8  C9  UNL     1       2.790  19.952  18.346  1.00  0.00     0.041 C 
HETATM    9  N2  UNL     1       1.914  22.015  19.192  1.00  0.00    -0.348 N 
ATOM     10  H2  UNL     1       2.197  22.504  18.342  1.00  0.00     0.163 HD
HETATM   11  C10 UNL     1       1.880  22.801  20.339  1.00  0.00     0.241 C 
HETATM   12  O3  UNL     1       0.975  23.728  20.422  1.00  0.00    -0.271 OA
HETATM   13  C11 UNL     1       2.787  22.723  21.545  1.00  0.00     0.179 C 
HETATM   14  N3  UNL     1       1.990  23.117  22.647  1.00  0.00    -0.342 N 
HETATM   15  C16 UNL     1       2.226  24.500  23.149  1.00  0.00     0.153 C 
HETATM   16  C17 UNL     1       0.973  22.438  23.350  1.00  0.00     0.238 C 
HETATM   17  O4  UNL     1       0.834  22.811  24.574  1.00  0.00    -0.272 OA
HETATM   18  C18 UNL     1       0.069  21.392  22.899  1.00  0.00     0.228 C 
HETATM   19  N4  UNL     1      -0.050  20.189  23.643  1.00  0.00    -0.342 N 
HETATM   20  C27 UNL     1      -0.146  18.935  22.960  1.00  0.00     0.242 C 
HETATM   21  O6  UNL     1       0.330  17.857  23.465  1.00  0.00    -0.271 OA
HETATM   22  C28 UNL     1      -0.795  18.737  21.620  1.00  0.00     0.173 C 
HETATM   23  C29 UNL     1      -2.220  18.327  21.928  1.00  0.00     0.042 C 
HETATM   24  N6  UNL     1      -0.066  17.752  20.852  1.00  0.00    -0.343 N 
ATOM     25  H6  UNL     1       0.899  17.620  21.152  1.00  0.00     0.163 HD
HETATM   26  C30 UNL     1      -0.446  16.950  19.777  1.00  0.00     0.264 C 
HETATM   27  O7  UNL     1      -0.246  15.681  19.952  1.00  0.00    -0.266 OA
ENDROOT
BRANCH  19  28
HETATM   28  C19 UNL     1      -0.091  20.062  25.093  1.00  0.00     0.126 C 
BRANCH  28  29
HETATM   29  C20 UNL     1      -1.499  19.856  25.586  1.00  0.00     0.020 C 
BRANCH  29  30
HETATM   30  C21 UNL     1      -1.711  18.567  26.342  1.00  0.00     0.002 C 
BRANCH  30  31
HETATM   31  C22 UNL     1      -2.593  17.647  25.552  1.00  0.00     0.009 C 
BRANCH  31  32
HETATM   32  C23 UNL     1      -3.997  17.632  26.061  1.00  0.00     0.103 C 
BRANCH  32  33
HETATM   33  C24 UNL     1      -5.019  18.165  25.139  1.00  0.00     0.217 C 
HETATM   34  O5  UNL     1      -5.984  17.461  24.783  1.00  0.00    -0.274 OA
HETATM   35  N5  UNL     1      -4.937  19.477  24.633  1.00  0.00    -0.361 N 
ATOM     36  H5  UNL     1      -4.157  20.072  24.912  1.00  0.00     0.162 HD
BRANCH  35  37
HETATM   37  C25 UNL     1      -5.923  19.993  23.737  1.00  0.00     0.118 C 
HETATM   38  C26 UNL     1      -5.318  20.762  22.604  1.00  0.00     0.026 C 
ENDBRANCH  35  37
ENDBRANCH  32  33
ENDBRANCH  31  32
ENDBRANCH  30  31
ENDBRANCH  29  30
ENDBRANCH  28  29
ENDBRANCH  19  28
BRANCH  13  39
HETATM   39  C12 UNL     1       3.609  21.522  21.569  1.00  0.00     0.039 C 
BRANCH  39  40
HETATM   40  C13 UNL     1       5.036  21.622  21.125  1.00  0.00    -0.020 C 
HETATM   41  C14 UNL     1       5.314  22.245  19.815  1.00  0.00     0.009 C 
HETATM   42  C15 UNL     1       5.887  22.304  22.218  1.00  0.00     0.009 C 
ENDBRANCH  39  40
ENDBRANCH  13  39
BRANCH   1  43
HETATM   43  C4  UNL     1      -2.471  17.764  18.542  1.00  0.00     0.063 C 
BRANCH  43  44
HETATM   44  C3  UNL     1      -3.163  17.405  17.260  1.00  0.00     0.006 C 
BRANCH  44  45
HETATM   45  C2  UNL     1      -3.706  18.735  16.703  1.00  0.00    -0.004 C 
HETATM   46  C1  UNL     1      -3.655  19.766  17.806  1.00  0.00     0.005 C 
ENDBRANCH  44  45
ENDBRANCH  43  44
ENDBRANCH   1  43
BRANCH   4  47
HETATM   47  O1  UNL     1      -0.346  19.884  16.168  1.00  0.00    -0.343 OA
ATOM     48  H1  UNL     1       0.300  20.448  15.759  1.00  0.00     0.219 HD
ENDBRANCH   4  47
TORSDOF 13
ENDMDL
MODEL 4
REMARK VINA RESULT: -6.830894286      4.179      9.825
REMARK  13 active torsions:
REMARK  status: ('A' for Active; 'I' for Inactive)
REMARK    1  A    between atoms: C2_2  and  C3_3 
REMARK    2  A    between atoms: C3_3  and  C4_4 
REMARK    3  A    between atoms: C4_4  and  C5_5 
REMARK    4  A    between atoms: C6_8  and  O1_9 
REMARK    5  A    between atoms: C11_19  and  C12_20 
REMARK    6  A    between atoms: C12_20  and  C13_21 
REMARK    7  A    between atoms: N4_29  and  C19_30 
REMARK    8  A    between atoms: C19_30  and  C20_31 
REMARK    9  A    between atoms: C20_31  and  C21_32 
REMARK   10  A    between atoms: C21_32  and  C22_33 
REMARK   11  A    between atoms: C22_33  and  C23_34 
REMARK   12  A    between atoms: C23_34  and  C24_35 
REMARK       I    between atoms: C24_35  and  N5_37 
REMARK   13  A    between atoms: N5_37  and  C25_39 
ROOT
HETATM    1  C5  UNL     1      -1.000  17.248  18.474  1.00  0.00     0.079 C 
HETATM    2  N1  UNL     1      -0.111  17.996  17.635  1.00  0.00    -0.333 N 
ATOM      3  H1  UNL     1       0.503  17.422  17.055  1.00  0.00     0.168 HD
HETATM    4  C6  UNL     1       0.066  19.380  17.470  1.00  0.00     0.189 C 
HETATM    5  C7  UNL     1       0.447  20.387  18.422  1.00  0.00     0.221 C 
HETATM    6  O2  UNL     1      -0.377  21.358  18.622  1.00  0.00    -0.286 OA
HETATM    7  C8  UNL     1       1.687  20.480  19.236  1.00  0.00     0.159 C 
HETATM    8  C9  UNL     1       2.884  19.811  18.607  1.00  0.00     0.041 C 
HETATM    9  N2  UNL     1       2.013  21.872  19.462  1.00  0.00    -0.348 N 
ATOM     10  H2  UNL     1       2.350  22.375  18.640  1.00  0.00     0.163 HD
HETATM   11  C10 UNL     1       1.939  22.630  20.625  1.00  0.00     0.241 C 
HETATM   12  O3  UNL     1       1.053  23.576  20.688  1.00  0.00    -0.271 OA
HETATM   13  C11 UNL     1       2.782  22.500  21.873  1.00  0.00     0.179 C 
HETATM   14  N3  UNL     1       1.940  22.885  22.944  1.00  0.00    -0.342 N 
HETATM   15  C16 UNL     1       2.181  24.250  23.493  1.00  0.00     0.153 C 
HETATM   16  C17 UNL     1       0.873  22.214  23.578  1.00  0.00     0.238 C 
HETATM   17  O4  UNL     1       0.681  22.559  24.802  1.00  0.00    -0.272 OA
HETATM   18  C18 UNL     1      -0.030  21.202  23.054  1.00  0.00     0.228 C 
HETATM   19  N4  UNL     1      -0.213  19.984  23.761  1.00  0.00    -0.342 N 
HETATM   20  C27 UNL     1      -0.304  18.750  23.041  1.00  0.00     0.242 C 
HETATM   21  O6  UNL     1       0.122  17.648  23.541  1.00  0.00    -0.271 OA
HETATM   22  C28 UNL     1      -0.889  18.600  21.665  1.00  0.00     0.173 C 
HETATM   23  C29 UNL     1      -2.336  18.217  21.892  1.00  0.00     0.042 C 
HETATM   24  N6  UNL     1      -0.144  17.618  20.910  1.00  0.00    -0.343 N 
ATOM     25  H6  UNL     1       0.802  17.455  21.254  1.00  0.00     0.163 HD
HETATM   26  C30 UNL     1      -0.487  16.852  19.796  1.00  0.00     0.264 C 
HETATM   27  O7  UNL     1      -0.325  15.575  19.948  1.00  0.00    -0.266 OA
ENDROOT
BRANCH  19  28
HETATM   28  C19 UNL     1      -0.331  19.822  25.203  1.00  0.00     0.126 C 
BRANCH  28  29
HETATM   29  C20 UNL     1      -1.773  19.757  25.632  1.00  0.00     0.020 C 
BRANCH  29  30
HETATM   30  C21 UNL     1      -1.972  19.497  27.106  1.00  0.00     0.002 C 
BRANCH  30  31
HETATM   31  C22 UNL     1      -3.215  18.688  27.321  1.00  0.00     0.009 C 
BRANCH  31  32
HETATM   32  C23 UNL     1      -3.848  18.267  26.036  1.00  0.00     0.103 C 
BRANCH  32  33
HETATM   33  C24 UNL     1      -5.026  17.387  26.158  1.00  0.00     0.217 C 
HETATM   34  O5  UNL     1      -5.826  17.259  25.211  1.00  0.00    -0.274 OA
HETATM   35  N5  UNL     1      -5.283  16.668  27.342  1.00  0.00    -0.361 N 
ATOM     36  H5  UNL     1      -4.641  16.755  28.129  1.00  0.00     0.162 HD
BRANCH  35  37
HETATM   37  C25 UNL     1      -6.426  15.818  27.463  1.00  0.00     0.118 C 
HETATM   38  C26 UNL     1      -7.563  16.490  28.169  1.00  0.00     0.026 C 
ENDBRANCH  35  37
ENDBRANCH  32  33
ENDBRANCH  31  32
ENDBRANCH  30  31
ENDBRANCH  29  30
ENDBRANCH  28  29
ENDBRANCH  19  28
BRANCH  13  39
HETATM   39  C12 UNL     1       3.575  21.280  21.907  1.00  0.00     0.039 C 
BRANCH  39  40
HETATM   40  C13 UNL     1       5.049  21.376  21.658  1.00  0.00    -0.020 C 
HETATM   41  C14 UNL     1       5.502  21.997  20.397  1.00  0.00     0.009 C 
HETATM   42  C15 UNL     1       5.746  22.058  22.855  1.00  0.00     0.009 C 
ENDBRANCH  39  40
ENDBRANCH  13  39
BRANCH   1  43
HETATM   43  C4  UNL     1      -2.428  17.744  18.483  1.00  0.00     0.063 C 
BRANCH  43  44
HETATM   44  C3  UNL     1      -2.996  17.628  17.100  1.00  0.00     0.006 C 
BRANCH  44  45
HETATM   45  C2  UNL     1      -3.790  18.928  16.874  1.00  0.00    -0.004 C 
HETATM   46  C1  UNL     1      -3.499  19.867  18.021  1.00  0.00     0.005 C 
ENDBRANCH  44  45
ENDBRANCH  43  44
ENDBRANCH   1  43
BRANCH   4  47
HETATM   47  O1  UNL     1      -0.139  19.871  16.275  1.00  0.00    -0.343 OA
ATOM     48  H1  UNL     1       0.466  19.612  15.589  1.00  0.00     0.219 HD
ENDBRANCH   4  47
TORSDOF 13
ENDMDL
MODEL 5
REMARK VINA RESULT: -6.805314042      1.368      1.661
REMARK  13 active torsions:
REMARK  status: ('A' for Active; 'I' for Inactive)
REMARK    1  A    between atoms: C2_2  and  C3_3 
REMARK    2  A    between atoms: C3_3  and  C4_4 
REMARK    3  A    between atoms: C4_4  and  C5_5 
REMARK    4  A    between atoms: C6_8  and  O1_9 
REMARK    5  A    between atoms: C11_19  and  C12_20 
REMARK    6  A    between atoms: C12_20  and  C13_21 
REMARK    7  A    between atoms: N4_29  and  C19_30 
REMARK    8  A    between atoms: C19_30  and  C20_31 
REMARK    9  A    between atoms: C20_31  and  C21_32 
REMARK   10  A    between atoms: C21_32  and  C22_33 
REMARK   11  A    between atoms: C22_33  and  C23_34 
REMARK   12  A    between atoms: C23_34  and  C24_35 
REMARK       I    between atoms: C24_35  and  N5_37 
REMARK   13  A    between atoms: N5_37  and  C25_39 
ROOT
HETATM    1  C5  UNL     1      -2.064  17.577  17.845  1.00  0.00     0.079 C 
HETATM    2  N1  UNL     1      -2.408  17.419  19.227  1.00  0.00    -0.333 N 
ATOM      3  H1  UNL     1      -3.411  17.391  19.410  1.00  0.00     0.168 HD
HETATM    4  C6  UNL     1      -1.607  17.296  20.374  1.00  0.00     0.189 C 
HETATM    5  C7  UNL     1      -0.637  18.199  20.931  1.00  0.00     0.221 C 
HETATM    6  O2  UNL     1       0.572  17.771  21.057  1.00  0.00    -0.286 OA
HETATM    7  C8  UNL     1      -0.826  19.598  21.400  1.00  0.00     0.159 C 
HETATM    8  C9  UNL     1      -2.225  19.901  21.875  1.00  0.00     0.041 C 
HETATM    9  N2  UNL     1       0.091  19.872  22.485  1.00  0.00    -0.348 N 
ATOM     10  H2  UNL     1      -0.128  19.402  23.364  1.00  0.00     0.163 HD
HETATM   11  C10 UNL     1       1.225  20.676  22.515  1.00  0.00     0.241 C 
HETATM   12  O3  UNL     1       2.383  20.103  22.641  1.00  0.00    -0.271 OA
HETATM   13  C11 UNL     1       1.297  22.183  22.421  1.00  0.00     0.179 C 
HETATM   14  N3  UNL     1       2.525  22.466  21.775  1.00  0.00    -0.342 N 
HETATM   15  C16 UNL     1       3.623  22.941  22.663  1.00  0.00     0.153 C 
HETATM   16  C17 UNL     1       2.916  22.349  20.425  1.00  0.00     0.238 C 
HETATM   17  O4  UNL     1       3.851  23.158  20.070  1.00  0.00    -0.272 OA
HETATM   18  C18 UNL     1       2.423  21.456  19.388  1.00  0.00     0.228 C 
HETATM   19  N4  UNL     1       2.004  21.984  18.139  1.00  0.00    -0.342 N 
HETATM   20  C27 UNL     1       0.836  21.459  17.500  1.00  0.00     0.242 C 
HETATM   21  O6  UNL     1       0.081  22.196  16.771  1.00  0.00    -0.271 OA
HETATM   22  C28 UNL     1       0.371  20.034  17.598  1.00  0.00     0.173 C 
HETATM   23  C29 UNL     1       0.967  19.341  16.391  1.00  0.00     0.042 C 
HETATM   24  N6  UNL     1      -1.073  19.981  17.639  1.00  0.00    -0.343 N 
ATOM     25  H6  UNL     1      -1.515  20.850  17.940  1.00  0.00     0.163 HD
HETATM   26  C30 UNL     1      -1.971  18.957  17.339  1.00  0.00     0.264 C 
HETATM   27  O7  UNL     1      -2.880  19.273  16.471  1.00  0.00    -0.266 OA
ENDROOT
BRANCH  19  28
HETATM   28  C19 UNL     1       2.648  23.049  17.383  1.00  0.00     0.126 C 
BRANCH  28  29
HETATM   29  C20 UNL     1       3.737  22.509  16.494  1.00  0.00     0.020 C 
BRANCH  29  30
HETATM   30  C21 UNL     1       3.372  22.445  15.031  1.00  0.00     0.002 C 
BRANCH  30  31
HETATM   31  C22 UNL     1       3.649  21.074  14.492  1.00  0.00     0.009 C 
BRANCH  31  32
HETATM   32  C23 UNL     1       5.063  20.650  14.719  1.00  0.00     0.103 C 
BRANCH  32  33
HETATM   33  C24 UNL     1       5.941  20.681  13.532  1.00  0.00     0.217 C 
HETATM   34  O5  UNL     1       5.506  21.065  12.429  1.00  0.00    -0.274 OA
HETATM   35  N5  UNL     1       7.288  20.276  13.607  1.00  0.00    -0.361 N 
ATOM     36  H5  UNL     1       7.665  19.959  14.500  1.00  0.00     0.162 HD
BRANCH  35  37
HETATM   37  C25 UNL     1       8.138  20.301  12.458  1.00  0.00     0.118 C 
HETATM   38  C26 UNL     1       8.913  21.577  12.351  1.00  0.00     0.026 C 
ENDBRANCH  35  37
ENDBRANCH  32  33
ENDBRANCH  31  32
ENDBRANCH  30  31
ENDBRANCH  29  30
ENDBRANCH  28  29
ENDBRANCH  19  28
BRANCH  13  39
HETATM   39  C12 UNL     1       0.042  22.793  22.007  1.00  0.00     0.039 C 
BRANCH  39  40
HETATM   40  C13 UNL     1      -0.732  23.591  23.012  1.00  0.00    -0.020 C 
HETATM   41  C14 UNL     1      -2.084  23.121  23.378  1.00  0.00     0.009 C 
HETATM   42  C15 UNL     1       0.111  23.799  24.289  1.00  0.00     0.009 C 
ENDBRANCH  39  40
ENDBRANCH  13  39
BRANCH   1  43
HETATM   43  C4  UNL     1      -0.965  16.660  17.357  1.00  0.00     0.063 C 
BRANCH  43  44
HETATM   44  C3  UNL     1      -1.576  15.544  16.563  1.00  0.00     0.006 C 
BRANCH  44  45
HETATM   45  C2  UNL     1      -1.602  14.333  17.515  1.00  0.00    -0.004 C 
HETATM   46  C1  UNL     1      -0.358  14.376  18.371  1.00  0.00     0.005 C 
ENDBRANCH  44  45
ENDBRANCH  43  44
ENDBRANCH   1  43
BRANCH   4  47
HETATM   47  O1  UNL     1      -1.732  16.199  21.077  1.00  0.00    -0.343 OA
ATOM     48  H1  UNL     1      -1.519  16.249  22.002  1.00  0.00     0.219 HD
ENDBRANCH   4  47
TORSDOF 13
ENDMDL
