MODEL 1
REMARK VINA RESULT: -6.725622551      0.000      0.000
REMARK  15 active torsions:
REMARK  status: ('A' for Active; 'I' for Inactive)
REMARK    1  A    between atoms: C2_2  and  C3_3 
REMARK    2  A    between atoms: C5_8  and  C6_9 
REMARK    3  A    between atoms: C6_9  and  C7_10 
REMARK    4  A    between atoms: C7_10  and  C8_11 
REMARK    5  A    between atoms: C8_11  and  C9_12 
REMARK    6  A    between atoms: C9_12  and  C10_13 
REMARK    7  A    between atoms: C10_13  and  C11_14 
REMARK    8  A    between atoms: N3_17  and  C12_18 
REMARK    9  A    between atoms: C21_31  and  O4_32 
REMARK   10  A    between atoms: C22_34  and  C23_35 
REMARK   11  A    between atoms: C23_35  and  C24_36 
REMARK   12  A    between atoms: C24_36  and  C25_37 
REMARK   13  A    between atoms: C25_37  and  C26_38 
REMARK   14  A    between atoms: C26_38  and  N6_39 
REMARK   15  A    between atoms: C29_46  and  O5_47 
ROOT
HETATM    1  C3  UNL     1      -1.400  20.000  16.738  1.00  0.00     0.159 C 
HETATM    2  N1  UNL     1      -0.682  20.556  15.620  1.00  0.00    -0.344 N 
ATOM      3  H1  UNL     1      -0.837  20.134  14.705  1.00  0.00     0.163 HD
HETATM    4  C4  UNL     1       0.241  21.665  15.696  1.00  0.00     0.266 C 
HETATM    5  O1  UNL     1       0.128  22.446  14.712  1.00  0.00    -0.266 OA
HETATM    6  C5  UNL     1       1.209  21.904  16.755  1.00  0.00     0.097 C 
HETATM    7  N3  UNL     1       0.970  22.833  17.759  1.00  0.00    -0.280 N 
HETATM    8  N4  UNL     1       1.905  22.834  18.794  1.00  0.00    -0.265 N 
ATOM      9  H4  UNL     1       2.620  23.559  18.719  1.00  0.00     0.190 HD
HETATM   10  C16 UNL     1       2.028  22.011  19.916  1.00  0.00     0.259 C 
HETATM   11  O3  UNL     1       1.893  22.587  21.056  1.00  0.00    -0.269 OA
HETATM   12  C17 UNL     1       2.295  20.563  19.986  1.00  0.00     0.180 C 
HETATM   13  C18 UNL     1       3.765  20.441  20.520  1.00  0.00     0.037 C 
HETATM   14  C19 UNL     1       3.497  20.602  21.978  1.00  0.00     0.022 C 
HETATM   15  C20 UNL     1       2.092  20.226  22.247  1.00  0.00     0.126 C 
HETATM   16  N5  UNL     1       1.535  19.811  20.938  1.00  0.00    -0.347 N 
HETATM   17  C21 UNL     1       0.518  18.857  20.723  1.00  0.00     0.162 C 
HETATM   18  C22 UNL     1      -0.753  18.961  19.997  1.00  0.00     0.067 C 
HETATM   19  N9  UNL     1      -0.739  18.365  18.671  1.00  0.00    -0.334 N 
HETATM   20  C28 UNL     1      -0.807  16.870  18.649  1.00  0.00     0.158 C 
HETATM   21  C29 UNL     1      -0.669  18.911  17.402  1.00  0.00     0.141 C 
ENDROOT
BRANCH  18  22
HETATM   22  C23 UNL     1      -1.461  20.262  20.112  1.00  0.00     0.088 C 
BRANCH  22  23
HETATM   23  C24 UNL     1      -2.861  20.193  20.585  1.00  0.00    -0.023 C 
BRANCH  23  24
HETATM   24  C25 UNL     1      -3.281  20.473  21.945  1.00  0.00    -0.011 C 
BRANCH  24  25
HETATM   25  C26 UNL     1      -3.292  19.555  23.069  1.00  0.00     0.149 C 
BRANCH  25  26
HETATM   26  N6  UNL     1      -2.030  19.332  23.749  1.00  0.00    -0.363 N 
HETATM   27  C27 UNL     1      -1.486  18.172  23.613  1.00  0.00     0.197 C 
HETATM   28  N7  UNL     1      -2.085  17.139  22.831  1.00  0.00    -0.067 NA
HETATM   29  N8  UNL     1      -0.249  17.842  24.234  1.00  0.00    -0.067 NA
ATOM     30  H6  UNL     1      -1.593  20.063  24.311  1.00  0.00     0.162 HD
ENDBRANCH  25  26
ENDBRANCH  24  25
ENDBRANCH  23  24
ENDBRANCH  22  23
ENDBRANCH  18  22
BRANCH  17  31
HETATM   31  O4  UNL     1       0.752  17.693  21.263  1.00  0.00    -0.345 OA
ATOM     32  H4  UNL     1      -0.027  17.238  21.563  1.00  0.00     0.219 HD
ENDBRANCH  17  31
BRANCH  21  33
HETATM   33  O5  UNL     1       0.224  18.348  16.636  1.00  0.00    -0.348 OA
ATOM     34  H5  UNL     1       0.159  17.401  16.617  1.00  0.00     0.219 HD
ENDBRANCH  21  33
BRANCH   1  35
HETATM   35  C2  UNL     1      -2.739  19.518  16.169  1.00  0.00     0.029 C 
HETATM   36  C1  UNL     1      -3.903  19.752  17.055  1.00  0.00     0.007 C 
ENDBRANCH   1  35
BRANCH   7  37
HETATM   37  C12 UNL     1       0.194  23.963  17.712  1.00  0.00     0.043 C 
HETATM   38  C13 UNL     1      -1.305  23.833  17.693  1.00  0.00     0.039 C 
HETATM   39  C14 UNL     1       0.547  25.025  16.680  1.00  0.00     0.039 C 
HETATM   40  C15 UNL     1       0.427  24.720  19.054  1.00  0.00     0.039 C 
ENDBRANCH   7  37
BRANCH   6  41
HETATM   41  C6  UNL     1       2.659  21.730  16.323  1.00  0.00     0.065 C 
BRANCH  41  42
HETATM   42  C7  UNL     1       2.979  20.661  15.401  1.00  0.00     0.006 C 
BRANCH  42  43
HETATM   43  C8  UNL     1       3.767  20.938  14.173  1.00  0.00     0.001 C 
BRANCH  43  44
HETATM   44  C9  UNL     1       5.199  21.262  14.294  1.00  0.00     0.009 C 
BRANCH  44  45
HETATM   45  C10 UNL     1       6.236  20.238  14.029  1.00  0.00     0.099 C 
BRANCH  45  46
HETATM   46  C11 UNL     1       7.029  20.641  12.793  1.00  0.00     0.231 C 
HETATM   47  N2  UNL     1       8.196  19.912  12.447  1.00  0.00    -0.062 NA
HETATM   48  O2  UNL     1       6.597  21.607  12.144  1.00  0.00    -0.277 OA
ENDBRANCH  45  46
ENDBRANCH  44  45
ENDBRANCH  43  44
ENDBRANCH  42  43
ENDBRANCH  41  42
ENDBRANCH   6  41
TORSDOF 15
ENDMDL
MODEL 2
REMARK VINA RESULT: -6.559398607      1.575      1.829
REMARK  15 active torsions:
REMARK  status: ('A' for Active; 'I' for Inactive)
REMARK    1  A    between atoms: C2_2  and  C3_3 
REMARK    2  A    between atoms: C5_8  and  C6_9 
REMARK    3  A    between atoms: C6_9  and  C7_10 
REMARK    4  A    between atoms: C7_10  and  C8_11 
REMARK    5  A    between atoms: C8_11  and  C9_12 
REMARK    6  A    between atoms: C9_12  and  C10_13 
REMARK    7  A    between atoms: C10_13  and  C11_14 
REMARK    8  A    between atoms: N3_17  and  C12_18 
REMARK    9  A    between atoms: C21_31  and  O4_32 
REMARK   10  A    between atoms: C22_34  and  C23_35 
REMARK   11  A    between atoms: C23_35  and  C24_36 
REMARK   12  A    between atoms: C24_36  and  C25_37 
REMARK   13  A    between atoms: C25_37  and  C26_38 
REMARK   14  A    between atoms: C26_38  and  N6_39 
REMARK   15  A    between atoms: C29_46  and  O5_47 
ROOT
HETATM    1  C3  UNL     1      -1.440  19.992  16.742  1.00  0.00     0.159 C 
HETATM    2  N1  UNL     1      -0.742  20.579  15.628  1.00  0.00    -0.344 N 
ATOM      3  H1  UNL     1      -0.898  20.171  14.706  1.00  0.00     0.163 HD
HETATM    4  C4  UNL     1       0.162  21.704  15.714  1.00  0.00     0.266 C 
HETATM    5  O1  UNL     1       0.026  22.500  14.744  1.00  0.00    -0.266 OA
HETATM    6  C5  UNL     1       1.136  21.941  16.767  1.00  0.00     0.097 C 
HETATM    7  N3  UNL     1       0.891  22.849  17.789  1.00  0.00    -0.280 N 
HETATM    8  N4  UNL     1       1.835  22.849  18.816  1.00  0.00    -0.265 N 
ATOM      9  H4  UNL     1       2.536  23.587  18.747  1.00  0.00     0.190 HD
HETATM   10  C16 UNL     1       1.983  22.008  19.922  1.00  0.00     0.259 C 
HETATM   11  O3  UNL     1       1.849  22.563  21.073  1.00  0.00    -0.269 OA
HETATM   12  C17 UNL     1       2.277  20.564  19.965  1.00  0.00     0.180 C 
HETATM   13  C18 UNL     1       3.754  20.459  20.482  1.00  0.00     0.037 C 
HETATM   14  C19 UNL     1       3.497  20.590  21.945  1.00  0.00     0.022 C 
HETATM   15  C20 UNL     1       2.102  20.185  22.221  1.00  0.00     0.126 C 
HETATM   16  N5  UNL     1       1.539  19.783  20.910  1.00  0.00    -0.347 N 
HETATM   17  C21 UNL     1       0.537  18.815  20.688  1.00  0.00     0.162 C 
HETATM   18  C22 UNL     1      -0.743  18.909  19.977  1.00  0.00     0.067 C 
HETATM   19  N9  UNL     1      -0.731  18.336  18.640  1.00  0.00    -0.334 N 
HETATM   20  C28 UNL     1      -0.773  16.841  18.593  1.00  0.00     0.158 C 
HETATM   21  C29 UNL     1      -0.683  18.905  17.380  1.00  0.00     0.141 C 
ENDROOT
BRANCH  18  22
HETATM   22  C23 UNL     1      -1.473  20.195  20.121  1.00  0.00     0.088 C 
BRANCH  22  23
HETATM   23  C24 UNL     1      -2.849  20.098  20.654  1.00  0.00    -0.023 C 
BRANCH  23  24
HETATM   24  C25 UNL     1      -3.221  20.410  22.021  1.00  0.00    -0.011 C 
BRANCH  24  25
HETATM   25  C26 UNL     1      -3.204  19.515  23.164  1.00  0.00     0.149 C 
BRANCH  25  26
HETATM   26  N6  UNL     1      -1.921  19.283  23.799  1.00  0.00    -0.363 N 
HETATM   27  C27 UNL     1      -1.378  18.127  23.623  1.00  0.00     0.197 C 
HETATM   28  N7  UNL     1      -2.000  17.107  22.841  1.00  0.00    -0.067 NA
HETATM   29  N8  UNL     1      -0.122  17.788  24.198  1.00  0.00    -0.067 NA
ATOM     30  H6  UNL     1      -1.467  20.003  24.361  1.00  0.00     0.162 HD
ENDBRANCH  25  26
ENDBRANCH  24  25
ENDBRANCH  23  24
ENDBRANCH  22  23
ENDBRANCH  18  22
BRANCH  17  31
HETATM   31  O4  UNL     1       0.796  17.646  21.206  1.00  0.00    -0.345 OA
ATOM     32  H4  UNL     1       0.028  17.169  21.497  1.00  0.00     0.219 HD
ENDBRANCH  17  31
BRANCH  21  33
HETATM   33  O5  UNL     1       0.212  18.371  16.596  1.00  0.00    -0.348 OA
ATOM     34  H5  UNL     1       1.073  18.311  16.994  1.00  0.00     0.219 HD
ENDBRANCH  21  33
BRANCH   1  35
HETATM   35  C2  UNL     1      -2.775  19.496  16.178  1.00  0.00     0.029 C 
HETATM   36  C1  UNL     1      -3.911  19.577  17.125  1.00  0.00     0.007 C 
ENDBRANCH   1  35
BRANCH   7  37
HETATM   37  C12 UNL     1       0.094  23.965  17.769  1.00  0.00     0.043 C 
HETATM   38  C13 UNL     1      -1.403  23.809  17.758  1.00  0.00     0.039 C 
HETATM   39  C14 UNL     1       0.422  25.053  16.757  1.00  0.00     0.039 C 
HETATM   40  C15 UNL     1       0.323  24.700  19.125  1.00  0.00     0.039 C 
ENDBRANCH   7  37
BRANCH   6  41
HETATM   41  C6  UNL     1       2.584  21.800  16.319  1.00  0.00     0.065 C 
BRANCH  41  42
HETATM   42  C7  UNL     1       2.923  20.724  15.413  1.00  0.00     0.006 C 
BRANCH  42  43
HETATM   43  C8  UNL     1       3.806  20.973  14.246  1.00  0.00     0.001 C 
BRANCH  43  44
HETATM   44  C9  UNL     1       3.210  21.403  12.970  1.00  0.00     0.009 C 
BRANCH  44  45
HETATM   45  C10 UNL     1       1.934  20.823  12.491  1.00  0.00     0.099 C 
BRANCH  45  46
HETATM   46  C11 UNL     1       1.742  21.183  11.025  1.00  0.00     0.231 C 
HETATM   47  N2  UNL     1       0.757  22.139  10.666  1.00  0.00    -0.062 NA
HETATM   48  O2  UNL     1       2.477  20.605  10.208  1.00  0.00    -0.277 OA
ENDBRANCH  45  46
ENDBRANCH  44  45
ENDBRANCH  43  44
ENDBRANCH  42  43
ENDBRANCH  41  42
ENDBRANCH   6  41
TORSDOF 15
ENDMDL
MODEL 3
REMARK VINA RESULT: -6.500136878      1.040      1.180
REMARK  15 active torsions:
REMARK  status: ('A' for Active; 'I' for Inactive)
REMARK    1  A    between atoms: C2_2  and  C3_3 
REMARK    2  A    between atoms: C5_8  and  C6_9 
REMARK    3  A    between atoms: C6_9  and  C7_10 
REMARK    4  A    between atoms: C7_10  and  C8_11 
REMARK    5  A    between atoms: C8_11  and  C9_12 
REMARK    6  A    between atoms: C9_12  and  C10_13 
REMARK    7  A    between atoms: C10_13  and  C11_14 
REMARK    8  A    between atoms: N3_17  and  C12_18 
REMARK    9  A    between atoms: C21_31  and  O4_32 
REMARK   10  A    between atoms: C22_34  and  C23_35 
REMARK   11  A    between atoms: C23_35  and  C24_36 
REMARK   12  A    between atoms: C24_36  and  C25_37 
REMARK   13  A    between atoms: C25_37  and  C26_38 
REMARK   14  A    between atoms: C26_38  and  N6_39 
REMARK   15  A    between atoms: C29_46  and  O5_47 
ROOT
HETATM    1  C3  UNL     1      -2.119  19.530  16.903  1.00  0.00     0.159 C 
HETATM    2  N1  UNL     1      -1.592  20.124  15.702  1.00  0.00    -0.344 N 
ATOM      3  H1  UNL     1      -1.825  19.680  14.815  1.00  0.00     0.163 HD
HETATM    4  C4  UNL     1      -0.756  21.303  15.658  1.00  0.00     0.266 C 
HETATM    5  O1  UNL     1      -1.051  22.060  14.692  1.00  0.00    -0.266 OA
HETATM    6  C5  UNL     1       0.315  21.630  16.586  1.00  0.00     0.097 C 
HETATM    7  N3  UNL     1       0.131  22.551  17.609  1.00  0.00    -0.280 N 
HETATM    8  N4  UNL     1       1.184  22.638  18.519  1.00  0.00    -0.265 N 
ATOM      9  H4  UNL     1       1.825  23.415  18.353  1.00  0.00     0.190 HD
HETATM   10  C16 UNL     1       1.510  21.842  19.619  1.00  0.00     0.259 C 
HETATM   11  O3  UNL     1       1.473  22.421  20.765  1.00  0.00    -0.269 OA
HETATM   12  C17 UNL     1       1.896  20.420  19.661  1.00  0.00     0.180 C 
HETATM   13  C18 UNL     1       3.426  20.419  20.007  1.00  0.00     0.037 C 
HETATM   14  C19 UNL     1       3.330  20.578  21.486  1.00  0.00     0.022 C 
HETATM   15  C20 UNL     1       2.003  20.098  21.931  1.00  0.00     0.126 C 
HETATM   16  N5  UNL     1       1.321  19.624  20.703  1.00  0.00    -0.347 N 
HETATM   17  C21 UNL     1       0.363  18.592  20.620  1.00  0.00     0.162 C 
HETATM   18  C22 UNL     1      -0.992  18.588  20.059  1.00  0.00     0.067 C 
HETATM   19  N9  UNL     1      -1.096  17.977  18.743  1.00  0.00    -0.334 N 
HETATM   20  C28 UNL     1      -1.050  16.481  18.736  1.00  0.00     0.158 C 
HETATM   21  C29 UNL     1      -1.228  18.510  17.474  1.00  0.00     0.141 C 
ENDROOT
BRANCH  18  22
HETATM   22  C23 UNL     1      -1.780  19.832  20.257  1.00  0.00     0.088 C 
BRANCH  22  23
HETATM   23  C24 UNL     1      -2.503  19.938  21.543  1.00  0.00    -0.023 C 
BRANCH  23  24
HETATM   24  C25 UNL     1      -1.997  20.632  22.712  1.00  0.00    -0.011 C 
BRANCH  24  25
HETATM   25  C26 UNL     1      -1.627  20.050  23.989  1.00  0.00     0.149 C 
BRANCH  25  26
HETATM   26  N6  UNL     1      -2.251  18.789  24.344  1.00  0.00    -0.363 N 
HETATM   27  C27 UNL     1      -1.498  17.743  24.357  1.00  0.00     0.197 C 
HETATM   28  N7  UNL     1      -0.107  17.805  24.040  1.00  0.00    -0.067 NA
HETATM   29  N8  UNL     1      -2.001  16.456  24.691  1.00  0.00    -0.067 NA
ATOM     30  H6  UNL     1      -3.244  18.733  24.572  1.00  0.00     0.162 HD
ENDBRANCH  25  26
ENDBRANCH  24  25
ENDBRANCH  23  24
ENDBRANCH  22  23
ENDBRANCH  18  22
BRANCH  17  31
HETATM   31  O4  UNL     1       0.753  17.457  21.132  1.00  0.00    -0.345 OA
ATOM     32  H4  UNL     1       0.260  17.183  21.897  1.00  0.00     0.219 HD
ENDBRANCH  17  31
BRANCH  21  33
HETATM   33  O5  UNL     1      -0.396  18.007  16.604  1.00  0.00    -0.348 OA
ATOM     34  H5  UNL     1       0.367  18.553  16.455  1.00  0.00     0.219 HD
ENDBRANCH  21  33
BRANCH   1  35
HETATM   35  C2  UNL     1      -3.477  18.938  16.508  1.00  0.00     0.029 C 
HETATM   36  C1  UNL     1      -4.585  19.920  16.460  1.00  0.00     0.007 C 
ENDBRANCH   1  35
BRANCH   7  37
HETATM   37  C12 UNL     1      -0.731  23.617  17.655  1.00  0.00     0.043 C 
HETATM   38  C13 UNL     1      -2.207  23.372  17.820  1.00  0.00     0.039 C 
HETATM   39  C14 UNL     1      -0.590  24.691  16.587  1.00  0.00     0.039 C 
HETATM   40  C15 UNL     1      -0.396  24.404  18.958  1.00  0.00     0.039 C 
ENDBRANCH   7  37
BRANCH   6  41
HETATM   41  C6  UNL     1       1.709  21.562  15.977  1.00  0.00     0.065 C 
BRANCH  41  42
HETATM   42  C7  UNL     1       1.991  20.517  15.017  1.00  0.00     0.006 C 
BRANCH  42  43
HETATM   43  C8  UNL     1       2.396  20.858  13.630  1.00  0.00     0.001 C 
BRANCH  43  44
HETATM   44  C9  UNL     1       3.766  21.333  13.376  1.00  0.00     0.009 C 
BRANCH  44  45
HETATM   45  C10 UNL     1       4.873  20.994  14.300  1.00  0.00     0.099 C 
BRANCH  45  46
HETATM   46  C11 UNL     1       6.111  20.642  13.486  1.00  0.00     0.231 C 
HETATM   47  N2  UNL     1       6.369  21.336  12.277  1.00  0.00    -0.062 NA
HETATM   48  O2  UNL     1       6.840  19.745  13.941  1.00  0.00    -0.277 OA
ENDBRANCH  45  46
ENDBRANCH  44  45
ENDBRANCH  43  44
ENDBRANCH  42  43
ENDBRANCH  41  42
ENDBRANCH   6  41
TORSDOF 15
ENDMDL
MODEL 4
REMARK VINA RESULT: -6.374632734      1.610      1.727
REMARK  15 active torsions:
REMARK  status: ('A' for Active; 'I' for Inactive)
REMARK    1  A    between atoms: C2_2  and  C3_3 
REMARK    2  A    between atoms: C5_8  and  C6_9 
REMARK    3  A    between atoms: C6_9  and  C7_10 
REMARK    4  A    between atoms: C7_10  and  C8_11 
REMARK    5  A    between atoms: C8_11  and  C9_12 
REMARK    6  A    between atoms: C9_12  and  C10_13 
REMARK    7  A    between atoms: C10_13  and  C11_14 
REMARK    8  A    between atoms: N3_17  and  C12_18 
REMARK    9  A    between atoms: C21_31  and  O4_32 
REMARK   10  A    between atoms: C22_34  and  C23_35 
REMARK   11  A    between atoms: C23_35  and  C24_36 
REMARK   12  A    between atoms: C24_36  and  C25_37 
REMARK   13  A    between atoms: C25_37  and  C26_38 
REMARK   14  A    between atoms: C26_38  and  N6_39 
REMARK   15  A    between atoms: C29_46  and  O5_47 
ROOT
HETATM    1  C3  UNL     1      -2.380  19.466  16.985  1.00  0.00     0.159 C 
HETATM    2  N1  UNL     1      -1.887  19.844  15.686  1.00  0.00    -0.344 N 
ATOM      3  H1  UNL     1      -2.268  19.354  14.877  1.00  0.00     0.163 HD
HETATM    4  C4  UNL     1      -0.892  20.864  15.440  1.00  0.00     0.266 C 
HETATM    5  O1  UNL     1      -1.163  21.556  14.420  1.00  0.00    -0.266 OA
HETATM    6  C5  UNL     1       0.299  21.109  16.238  1.00  0.00     0.097 C 
HETATM    7  N3  UNL     1       0.353  22.147  17.158  1.00  0.00    -0.280 N 
HETATM    8  N4  UNL     1       1.490  22.158  17.967  1.00  0.00    -0.265 N 
ATOM      9  H4  UNL     1       2.220  22.802  17.662  1.00  0.00     0.190 HD
HETATM   10  C16 UNL     1       1.796  21.437  19.123  1.00  0.00     0.259 C 
HETATM   11  O3  UNL     1       1.956  22.128  20.193  1.00  0.00    -0.269 OA
HETATM   12  C17 UNL     1       1.968  19.983  19.298  1.00  0.00     0.180 C 
HETATM   13  C18 UNL     1       3.507  19.774  19.520  1.00  0.00     0.037 C 
HETATM   14  C19 UNL     1       3.577  20.096  20.974  1.00  0.00     0.022 C 
HETATM   15  C20 UNL     1       2.242  19.881  21.573  1.00  0.00     0.126 C 
HETATM   16  N5  UNL     1       1.383  19.399  20.466  1.00  0.00    -0.347 N 
HETATM   17  C21 UNL     1       0.278  18.529  20.579  1.00  0.00     0.162 C 
HETATM   18  C22 UNL     1      -1.110  18.683  20.130  1.00  0.00     0.067 C 
HETATM   19  N9  UNL     1      -1.429  17.965  18.906  1.00  0.00    -0.334 N 
HETATM   20  C28 UNL     1      -1.608  16.488  19.067  1.00  0.00     0.158 C 
HETATM   21  C29 UNL     1      -1.601  18.381  17.598  1.00  0.00     0.141 C 
ENDROOT
BRANCH  18  22
HETATM   22  C23 UNL     1      -1.681  20.050  20.245  1.00  0.00     0.088 C 
BRANCH  22  23
HETATM   23  C24 UNL     1      -3.064  20.128  20.764  1.00  0.00    -0.023 C 
BRANCH  23  24
HETATM   24  C25 UNL     1      -3.404  20.397  22.149  1.00  0.00    -0.011 C 
BRANCH  24  25
HETATM   25  C26 UNL     1      -3.327  19.476  23.268  1.00  0.00     0.149 C 
BRANCH  25  26
HETATM   26  N6  UNL     1      -2.024  19.286  23.875  1.00  0.00    -0.363 N 
HETATM   27  C27 UNL     1      -1.490  18.117  23.769  1.00  0.00     0.197 C 
HETATM   28  N7  UNL     1      -2.140  17.045  23.086  1.00  0.00    -0.067 NA
HETATM   29  N8  UNL     1      -0.216  17.817  24.324  1.00  0.00    -0.067 NA
ATOM     30  H6  UNL     1      -1.549  20.044  24.366  1.00  0.00     0.162 HD
ENDBRANCH  25  26
ENDBRANCH  24  25
ENDBRANCH  23  24
ENDBRANCH  22  23
ENDBRANCH  18  22
BRANCH  17  31
HETATM   31  O4  UNL     1       0.542  17.404  21.185  1.00  0.00    -0.345 OA
ATOM     32  H4  UNL     1       0.109  16.647  20.808  1.00  0.00     0.219 HD
ENDBRANCH  17  31
BRANCH  21  33
HETATM   33  O5  UNL     1      -0.940  17.666  16.729  1.00  0.00    -0.348 OA
ATOM     34  H5  UNL     1      -1.501  17.147  16.165  1.00  0.00     0.219 HD
ENDBRANCH  21  33
BRANCH   1  35
HETATM   35  C2  UNL     1      -3.842  19.060  16.769  1.00  0.00     0.029 C 
HETATM   36  C1  UNL     1      -4.763  20.192  16.517  1.00  0.00     0.007 C 
ENDBRANCH   1  35
BRANCH   7  37
HETATM   37  C12 UNL     1      -0.332  23.335  17.149  1.00  0.00     0.043 C 
HETATM   38  C13 UNL     1      -1.805  23.346  17.459  1.00  0.00     0.039 C 
HETATM   39  C14 UNL     1      -0.137  24.258  15.955  1.00  0.00     0.039 C 
HETATM   40  C15 UNL     1       0.241  24.189  18.321  1.00  0.00     0.039 C 
ENDBRANCH   7  37
BRANCH   6  41
HETATM   41  C6  UNL     1       1.602  20.760  15.532  1.00  0.00     0.065 C 
BRANCH  41  42
HETATM   42  C7  UNL     1       1.995  21.545  14.382  1.00  0.00     0.006 C 
BRANCH  42  43
HETATM   43  C8  UNL     1       3.339  21.369  13.775  1.00  0.00     0.001 C 
BRANCH  43  44
HETATM   44  C9  UNL     1       4.459  20.926  14.621  1.00  0.00     0.009 C 
BRANCH  44  45
HETATM   45  C10 UNL     1       5.562  21.851  14.972  1.00  0.00     0.099 C 
BRANCH  45  46
HETATM   46  C11 UNL     1       5.072  22.835  16.025  1.00  0.00     0.231 C 
HETATM   47  N2  UNL     1       5.324  24.220  15.854  1.00  0.00    -0.062 NA
HETATM   48  O2  UNL     1       4.465  22.355  16.996  1.00  0.00    -0.277 OA
ENDBRANCH  45  46
ENDBRANCH  44  45
ENDBRANCH  43  44
ENDBRANCH  42  43
ENDBRANCH  41  42
ENDBRANCH   6  41
TORSDOF 15
ENDMDL
MODEL 5
REMARK VINA RESULT: -6.337200854      1.230      1.404
REMARK  15 active torsions:
REMARK  status: ('A' for Active; 'I' for Inactive)
REMARK    1  A    between atoms: C2_2  and  C3_3 
REMARK    2  A    between atoms: C5_8  and  C6_9 
REMARK    3  A    between atoms: C6_9  and  C7_10 
REMARK    4  A    between atoms: C7_10  and  C8_11 
REMARK    5  A    between atoms: C8_11  and  C9_12 
REMARK    6  A    between atoms: C9_12  and  C10_13 
REMARK    7  A    between atoms: C10_13  and  C11_14 
REMARK    8  A    between atoms: N3_17  and  C12_18 
REMARK    9  A    between atoms: C21_31  and  O4_32 
REMARK   10  A    between atoms: C22_34  and  C23_35 
REMARK   11  A    between atoms: C23_35  and  C24_36 
REMARK   12  A    between atoms: C24_36  and  C25_37 
REMARK   13  A    between atoms: C25_37  and  C26_38 
REMARK   14  A    between atoms: C26_38  and  N6_39 
REMARK   15  A    between atoms: C29_46  and  O5_47 
ROOT
HETATM    1  C3  UNL     1      -2.075  19.394  16.994  1.00  0.00     0.159 C 
HETATM    2  N1  UNL     1      -1.828  19.824  15.642  1.00  0.00    -0.344 N 
ATOM      3  H1  UNL     1      -2.134  19.208  14.888  1.00  0.00     0.163 HD
HETATM    4  C4  UNL     1      -1.181  21.061  15.269  1.00  0.00     0.266 C 
HETATM    5  O1  UNL     1      -1.725  21.601  14.267  1.00  0.00    -0.266 OA
HETATM    6  C5  UNL     1      -0.034  21.662  15.932  1.00  0.00     0.097 C 
HETATM    7  N3  UNL     1      -0.182  22.722  16.817  1.00  0.00    -0.280 N 
HETATM    8  N4  UNL     1       0.978  23.083  17.502  1.00  0.00    -0.265 N 
ATOM      9  H4  UNL     1       1.471  23.885  17.108  1.00  0.00     0.190 HD
HETATM   10  C16 UNL     1       1.579  22.532  18.637  1.00  0.00     0.259 C 
HETATM   11  O3  UNL     1       1.641  23.295  19.668  1.00  0.00    -0.269 OA
HETATM   12  C17 UNL     1       2.160  21.191  18.828  1.00  0.00     0.180 C 
HETATM   13  C18 UNL     1       3.710  21.420  18.893  1.00  0.00     0.037 C 
HETATM   14  C19 UNL     1       3.825  21.824  20.324  1.00  0.00     0.022 C 
HETATM   15  C20 UNL     1       2.663  21.285  21.064  1.00  0.00     0.126 C 
HETATM   16  N5  UNL     1       1.870  20.531  20.064  1.00  0.00    -0.347 N 
HETATM   17  C21 UNL     1       1.063  19.401  20.313  1.00  0.00     0.162 C 
HETATM   18  C22 UNL     1      -0.349  19.149  20.008  1.00  0.00     0.067 C 
HETATM   19  N9  UNL     1      -0.572  18.309  18.840  1.00  0.00    -0.334 N 
HETATM   20  C28 UNL     1      -0.321  16.850  19.055  1.00  0.00     0.158 C 
HETATM   21  C29 UNL     1      -0.973  18.594  17.548  1.00  0.00     0.141 C 
ENDROOT
BRANCH  18  22
HETATM   22  C23 UNL     1      -1.261  20.313  20.148  1.00  0.00     0.088 C 
BRANCH  22  23
HETATM   23  C24 UNL     1      -2.630  20.005  20.615  1.00  0.00    -0.023 C 
BRANCH  23  24
HETATM   24  C25 UNL     1      -3.113  20.256  21.960  1.00  0.00    -0.011 C 
BRANCH  24  25
HETATM   25  C26 UNL     1      -2.429  19.968  23.208  1.00  0.00     0.149 C 
BRANCH  25  26
HETATM   26  N6  UNL     1      -2.735  18.703  23.850  1.00  0.00    -0.363 N 
HETATM   27  C27 UNL     1      -1.795  17.821  23.890  1.00  0.00     0.197 C 
HETATM   28  N7  UNL     1      -0.504  18.062  23.331  1.00  0.00    -0.067 NA
HETATM   29  N8  UNL     1      -1.982  16.548  24.494  1.00  0.00    -0.067 NA
ATOM     30  H6  UNL     1      -3.654  18.520  24.252  1.00  0.00     0.162 HD
ENDBRANCH  25  26
ENDBRANCH  24  25
ENDBRANCH  23  24
ENDBRANCH  22  23
ENDBRANCH  18  22
BRANCH  17  31
HETATM   31  O4  UNL     1       1.682  18.423  20.915  1.00  0.00    -0.345 OA
ATOM     32  H4  UNL     1       1.220  18.075  21.669  1.00  0.00     0.219 HD
ENDBRANCH  17  31
BRANCH  21  33
HETATM   33  O5  UNL     1      -0.225  18.043  16.632  1.00  0.00    -0.348 OA
ATOM     34  H5  UNL     1       0.535  17.597  16.987  1.00  0.00     0.219 HD
ENDBRANCH  21  33
BRANCH   1  35
HETATM   35  C2  UNL     1      -3.382  18.596  16.941  1.00  0.00     0.029 C 
HETATM   36  C1  UNL     1      -4.579  19.399  16.602  1.00  0.00     0.007 C 
ENDBRANCH   1  35
BRANCH   7  37
HETATM   37  C12 UNL     1      -1.166  23.677  16.851  1.00  0.00     0.043 C 
HETATM   38  C13 UNL     1      -2.552  23.300  17.299  1.00  0.00     0.039 C 
HETATM   39  C14 UNL     1      -1.335  24.565  15.627  1.00  0.00     0.039 C 
HETATM   40  C15 UNL     1      -0.750  24.706  17.947  1.00  0.00     0.039 C 
ENDBRANCH   7  37
BRANCH   6  41
HETATM   41  C6  UNL     1       1.243  21.644  15.104  1.00  0.00     0.065 C 
BRANCH  41  42
HETATM   42  C7  UNL     1       2.078  20.463  15.152  1.00  0.00     0.006 C 
BRANCH  42  43
HETATM   43  C8  UNL     1       3.547  20.587  15.334  1.00  0.00     0.001 C 
BRANCH  43  44
HETATM   44  C9  UNL     1       4.381  21.001  14.194  1.00  0.00     0.009 C 
BRANCH  44  45
HETATM   45  C10 UNL     1       5.786  20.545  14.073  1.00  0.00     0.099 C 
BRANCH  45  46
HETATM   46  C11 UNL     1       6.371  21.073  12.770  1.00  0.00     0.231 C 
HETATM   47  N2  UNL     1       5.899  22.302  12.243  1.00  0.00    -0.062 NA
HETATM   48  O2  UNL     1       7.249  20.379  12.232  1.00  0.00    -0.277 OA
ENDBRANCH  45  46
ENDBRANCH  44  45
ENDBRANCH  43  44
ENDBRANCH  42  43
ENDBRANCH  41  42
ENDBRANCH   6  41
TORSDOF 15
ENDMDL
