MODEL 1
REMARK VINA RESULT: -5.700660730      0.000      0.000
REMARK  18 active torsions:
REMARK  status: ('A' for Active; 'I' for Inactive)
REMARK    1  A    between atoms: C2_2  and  C3_3 
REMARK    2  A    between atoms: C5_5  and  O1_6 
REMARK    3  A    between atoms: C7_10  and  C8_11 
REMARK    4  A    between atoms: C8_11  and  C10_13 
REMARK    5  A    between atoms: C12_15  and  O2_16 
REMARK    6  A    between atoms: C13_20  and  C14_21 
REMARK    7  A    between atoms: C14_21  and  O3_22 
REMARK    8  A    between atoms: C14_21  and  N3_24 
REMARK    9  A    between atoms: N3_24  and  C15_25 
REMARK   10  A    between atoms: C15_25  and  C16_26 
REMARK   11  A    between atoms: C15_25  and  C20_34 
REMARK   12  A    between atoms: C16_26  and  C17_27 
REMARK   13  A    between atoms: C17_27  and  C18_28 
REMARK   14  A    between atoms: C18_28  and  N4_29 
REMARK   15  A    between atoms: C23_37  and  N7_38 
REMARK   16  A    between atoms: N7_38  and  C24_40 
REMARK   17  A    between atoms: N8_44  and  N9_46 
REMARK   18  A    between atoms: N9_46  and  N10_48 
ROOT
HETATM    1  C3  UNL     1      -0.366  18.230  22.093  1.00  0.00     0.042 C 
HETATM    2  C4  UNL     1      -1.498  18.121  21.135  1.00  0.00     0.094 C 
HETATM    3  C5  UNL     1      -1.536  16.856  20.360  1.00  0.00     0.118 C 
HETATM    4  N1  UNL     1      -0.824  16.478  19.207  1.00  0.00    -0.335 N 
HETATM    5  C6  UNL     1      -0.000  15.237  19.394  1.00  0.00     0.158 C 
HETATM    6  C7  UNL     1      -0.769  17.050  17.908  1.00  0.00     0.067 C 
HETATM    7  C12 UNL     1      -0.034  18.272  17.665  1.00  0.00     0.160 C 
HETATM    8  N2  UNL     1       0.422  19.293  18.498  1.00  0.00    -0.354 N 
ATOM      9  H2  UNL     1       0.132  20.236  18.238  1.00  0.00     0.162 HD
HETATM   10  C13 UNL     1       1.250  19.196  19.677  1.00  0.00     0.201 C 
HETATM   11  C23 UNL     1       0.694  20.130  20.730  1.00  0.00     0.157 C 
HETATM   12  C27 UNL     1       0.455  19.454  22.015  1.00  0.00     0.034 C 
HETATM   13  N8  UNL     1       0.942  19.879  23.096  1.00  0.00    -0.292 N 
ATOM     14  H8  UNL     1       0.680  19.280  23.879  1.00  0.00     0.188 HD
ENDROOT
BRANCH  10  15
HETATM   15  C14 UNL     1       2.640  19.640  19.248  1.00  0.00     0.215 C 
BRANCH  15  16
HETATM   16  O3  UNL     1       3.590  19.080  19.962  1.00  0.00    -0.337 OA
ATOM     17  H3  UNL     1       4.446  19.449  19.781  1.00  0.00     0.220 HD
ENDBRANCH  15  16
BRANCH  15  18
HETATM   18  N3  UNL     1       2.928  20.482  18.295  1.00  0.00    -0.391 NA
BRANCH  18  19
HETATM   19  C15 UNL     1       3.176  21.238  17.406  1.00  0.00     0.068 C 
BRANCH  19  20
HETATM   20  C16 UNL     1       3.856  22.556  17.646  1.00  0.00     0.070 C 
BRANCH  20  21
HETATM   21  C17 UNL     1       5.010  22.459  18.554  1.00  0.00     0.026 C 
BRANCH  21  22
HETATM   22  C18 UNL     1       4.694  23.119  19.918  1.00  0.00     0.122 C 
BRANCH  22  23
HETATM   23  N4  UNL     1       5.741  22.786  20.830  1.00  0.00    -0.367 N 
HETATM   24  C19 UNL     1       5.530  21.906  21.751  1.00  0.00     0.196 C 
HETATM   25  N5  UNL     1       6.624  21.625  22.634  1.00  0.00    -0.067 NA
HETATM   26  N6  UNL     1       4.294  21.233  21.906  1.00  0.00    -0.067 NA
ATOM     27  H4  UNL     1       6.651  23.241  20.755  1.00  0.00     0.161 HD
ENDBRANCH  22  23
ENDBRANCH  21  22
ENDBRANCH  20  21
ENDBRANCH  19  20
BRANCH  19  28
HETATM   28  C20 UNL     1       2.775  20.841  16.007  1.00  0.00     0.037 C 
HETATM   29  C21 UNL     1       1.560  21.589  15.581  1.00  0.00     0.017 C 
HETATM   30  C22 UNL     1       3.941  21.082  15.040  1.00  0.00     0.017 C 
ENDBRANCH  19  28
ENDBRANCH  18  19
ENDBRANCH  15  18
ENDBRANCH  10  15
BRANCH  11  31
HETATM   31  N7  UNL     1       1.469  21.312  20.839  1.00  0.00    -0.406 N 
ATOM     32  H7  UNL     1       2.413  21.267  21.224  1.00  0.00     0.154 HD
BRANCH  31  33
HETATM   33  C24 UNL     1       0.943  22.547  20.418  1.00  0.00     0.069 C 
HETATM   34  C25 UNL     1      -0.585  22.362  20.279  1.00  0.00     0.031 C 
HETATM   35  C26 UNL     1       1.156  23.731  21.290  1.00  0.00     0.031 C 
ENDBRANCH  31  33
ENDBRANCH  11  31
BRANCH   7  36
HETATM   36  O2  UNL     1       0.269  18.471  16.414  1.00  0.00    -0.345 OA
ATOM     37  H2  UNL     1       0.997  17.945  16.103  1.00  0.00     0.219 HD
ENDBRANCH   7  36
BRANCH   6  38
HETATM   38  C8  UNL     1      -2.121  17.096  17.178  1.00  0.00     0.036 C 
HETATM   39  C9  UNL     1      -3.049  18.135  17.657  1.00  0.00     0.016 C 
BRANCH  38  40
HETATM   40  C10 UNL     1      -2.723  15.708  17.124  1.00  0.00     0.006 C 
HETATM   41  C11 UNL     1      -1.970  14.805  16.177  1.00  0.00     0.006 C 
ENDBRANCH  38  40
ENDBRANCH   6  38
BRANCH   1  42
HETATM   42  C2  UNL     1      -0.759  17.970  23.541  1.00  0.00     0.006 C 
HETATM   43  C1  UNL     1      -2.246  17.985  23.770  1.00  0.00     0.006 C 
ENDBRANCH   1  42
BRANCH  13  44
HETATM   44  N9  UNL     1       1.707  20.897  23.503  1.00  0.00    -0.249 N 
ATOM     45  H9  UNL     1       1.515  21.814  23.101  1.00  0.00     0.207 HD
BRANCH  44  46
HETATM   46  N10 UNL     1       2.666  20.820  24.358  1.00  0.00    -0.331 N 
ATOM     47 2H10 UNL     1       2.683  19.981  24.937  1.00  0.00     0.178 HD
ATOM     48 1H10 UNL     1       3.395  21.519  24.498  1.00  0.00     0.178 HD
ENDBRANCH  44  46
ENDBRANCH  13  44
BRANCH   3  49
HETATM   49  O1  UNL     1      -2.358  15.956  20.823  1.00  0.00    -0.349 OA
ATOM     50  H1  UNL     1      -2.849  15.486  20.159  1.00  0.00     0.219 HD
ENDBRANCH   3  49
TORSDOF 18
ENDMDL
MODEL 2
REMARK VINA RESULT: -5.203977044      2.602      6.924
REMARK  18 active torsions:
REMARK  status: ('A' for Active; 'I' for Inactive)
REMARK    1  A    between atoms: C2_2  and  C3_3 
REMARK    2  A    between atoms: C5_5  and  O1_6 
REMARK    3  A    between atoms: C7_10  and  C8_11 
REMARK    4  A    between atoms: C8_11  and  C10_13 
REMARK    5  A    between atoms: C12_15  and  O2_16 
REMARK    6  A    between atoms: C13_20  and  C14_21 
REMARK    7  A    between atoms: C14_21  and  O3_22 
REMARK    8  A    between atoms: C14_21  and  N3_24 
REMARK    9  A    between atoms: N3_24  and  C15_25 
REMARK   10  A    between atoms: C15_25  and  C16_26 
REMARK   11  A    between atoms: C15_25  and  C20_34 
REMARK   12  A    between atoms: C16_26  and  C17_27 
REMARK   13  A    between atoms: C17_27  and  C18_28 
REMARK   14  A    between atoms: C18_28  and  N4_29 
REMARK   15  A    between atoms: C23_37  and  N7_38 
REMARK   16  A    between atoms: N7_38  and  C24_40 
REMARK   17  A    between atoms: N8_44  and  N9_46 
REMARK   18  A    between atoms: N9_46  and  N10_48 
ROOT
HETATM    1  C3  UNL     1       2.685  20.741  23.689  1.00  0.00     0.042 C 
HETATM    2  C4  UNL     1       1.425  21.213  24.321  1.00  0.00     0.094 C 
HETATM    3  C5  UNL     1       0.814  20.256  25.279  1.00  0.00     0.118 C 
HETATM    4  N1  UNL     1       0.005  19.130  25.041  1.00  0.00    -0.335 N 
HETATM    5  C6  UNL     1       0.579  17.856  25.591  1.00  0.00     0.158 C 
HETATM    6  C7  UNL     1      -1.255  18.997  24.399  1.00  0.00     0.067 C 
HETATM    7  C12 UNL     1      -1.366  19.077  22.958  1.00  0.00     0.160 C 
HETATM    8  N2  UNL     1      -0.540  19.598  21.965  1.00  0.00    -0.354 N 
ATOM      9  H2  UNL     1      -0.975  20.277  21.340  1.00  0.00     0.162 HD
HETATM   10  C13 UNL     1       0.850  19.307  21.701  1.00  0.00     0.201 C 
HETATM   11  C23 UNL     1       1.560  20.606  21.385  1.00  0.00     0.157 C 
HETATM   12  C27 UNL     1       2.757  20.812  22.217  1.00  0.00     0.034 C 
HETATM   13  N8  UNL     1       3.888  21.046  21.716  1.00  0.00    -0.292 N 
ATOM     14  H8  UNL     1       4.598  21.150  22.441  1.00  0.00     0.188 HD
ENDROOT
BRANCH  10  15
HETATM   15  C14 UNL     1       0.859  18.386  20.489  1.00  0.00     0.215 C 
BRANCH  15  16
HETATM   16  O3  UNL     1       2.019  17.795  20.317  1.00  0.00    -0.337 OA
ATOM     17  H3  UNL     1       2.241  17.691  19.399  1.00  0.00     0.220 HD
ENDBRANCH  15  16
BRANCH  15  18
HETATM   18  N3  UNL     1      -0.131  18.167  19.672  1.00  0.00    -0.391 NA
BRANCH  18  19
HETATM   19  C15 UNL     1      -1.021  17.968  18.902  1.00  0.00     0.068 C 
BRANCH  19  20
HETATM   20  C16 UNL     1      -2.015  16.859  19.102  1.00  0.00     0.070 C 
BRANCH  20  21
HETATM   21  C17 UNL     1      -1.402  15.603  19.562  1.00  0.00     0.026 C 
BRANCH  21  22
HETATM   22  C18 UNL     1      -0.613  14.924  18.417  1.00  0.00     0.122 C 
BRANCH  22  23
HETATM   23  N4  UNL     1      -1.436  14.915  17.250  1.00  0.00    -0.367 N 
HETATM   24  C19 UNL     1      -1.348  13.937  16.413  1.00  0.00     0.196 C 
HETATM   25  N5  UNL     1      -2.200  13.996  15.262  1.00  0.00    -0.067 NA
HETATM   26  N6  UNL     1      -0.465  12.844  16.595  1.00  0.00    -0.067 NA
ATOM     27  H4  UNL     1      -2.091  15.679  17.078  1.00  0.00     0.161 HD
ENDBRANCH  22  23
ENDBRANCH  21  22
ENDBRANCH  20  21
ENDBRANCH  19  20
BRANCH  19  28
HETATM   28  C20 UNL     1      -1.126  18.865  17.694  1.00  0.00     0.037 C 
HETATM   29  C21 UNL     1       0.161  18.881  16.945  1.00  0.00     0.017 C 
HETATM   30  C22 UNL     1      -2.283  18.405  16.798  1.00  0.00     0.017 C 
ENDBRANCH  19  28
ENDBRANCH  18  19
ENDBRANCH  15  18
ENDBRANCH  10  15
BRANCH  11  31
HETATM   31  N7  UNL     1       1.796  20.747  19.995  1.00  0.00    -0.406 N 
ATOM     32  H7  UNL     1       2.495  20.163  19.536  1.00  0.00     0.154 HD
BRANCH  31  33
HETATM   33  C24 UNL     1       1.070  21.689  19.244  1.00  0.00     0.069 C 
HETATM   34  C25 UNL     1       0.627  22.800  20.222  1.00  0.00     0.031 C 
HETATM   35  C26 UNL     1       1.759  22.361  18.111  1.00  0.00     0.031 C 
ENDBRANCH  31  33
ENDBRANCH  11  31
BRANCH   7  36
HETATM   36  O2  UNL     1      -2.462  18.558  22.480  1.00  0.00    -0.345 OA
ATOM     37  H2  UNL     1      -3.219  19.128  22.542  1.00  0.00     0.219 HD
ENDBRANCH   7  36
BRANCH   6  38
HETATM   38  C8  UNL     1      -2.390  19.797  25.059  1.00  0.00     0.036 C 
HETATM   39  C9  UNL     1      -2.360  21.246  24.799  1.00  0.00     0.016 C 
BRANCH  38  40
HETATM   40  C10 UNL     1      -2.488  19.435  26.525  1.00  0.00     0.006 C 
HETATM   41  C11 UNL     1      -2.421  20.655  27.411  1.00  0.00     0.006 C 
ENDBRANCH  38  40
ENDBRANCH   6  38
BRANCH   1  42
HETATM   42  C2  UNL     1       3.942  21.356  24.292  1.00  0.00     0.006 C 
HETATM   43  C1  UNL     1       3.687  22.651  25.015  1.00  0.00     0.006 C 
ENDBRANCH   1  42
BRANCH  13  44
HETATM   44  N9  UNL     1       4.418  21.196  20.497  1.00  0.00    -0.249 N 
ATOM     45  H9  UNL     1       4.049  20.604  19.753  1.00  0.00     0.207 HD
BRANCH  44  46
HETATM   46  N10 UNL     1       5.353  22.021  20.182  1.00  0.00    -0.331 N 
ATOM     47 2H10 UNL     1       5.098  23.008  20.184  1.00  0.00     0.178 HD
ATOM     48 1H10 UNL     1       6.310  21.769  19.935  1.00  0.00     0.178 HD
ENDBRANCH  44  46
ENDBRANCH  13  44
BRANCH   3  49
HETATM   49  O1  UNL     1       1.070  20.500  26.533  1.00  0.00    -0.349 OA
ATOM     50  H1  UNL     1       1.101  19.731  27.090  1.00  0.00     0.219 HD
ENDBRANCH   3  49
TORSDOF 18
ENDMDL
MODEL 3
REMARK VINA RESULT: -5.139215353      2.990      7.463
REMARK  18 active torsions:
REMARK  status: ('A' for Active; 'I' for Inactive)
REMARK    1  A    between atoms: C2_2  and  C3_3 
REMARK    2  A    between atoms: C5_5  and  O1_6 
REMARK    3  A    between atoms: C7_10  and  C8_11 
REMARK    4  A    between atoms: C8_11  and  C10_13 
REMARK    5  A    between atoms: C12_15  and  O2_16 
REMARK    6  A    between atoms: C13_20  and  C14_21 
REMARK    7  A    between atoms: C14_21  and  O3_22 
REMARK    8  A    between atoms: C14_21  and  N3_24 
REMARK    9  A    between atoms: N3_24  and  C15_25 
REMARK   10  A    between atoms: C15_25  and  C16_26 
REMARK   11  A    between atoms: C15_25  and  C20_34 
REMARK   12  A    between atoms: C16_26  and  C17_27 
REMARK   13  A    between atoms: C17_27  and  C18_28 
REMARK   14  A    between atoms: C18_28  and  N4_29 
REMARK   15  A    between atoms: C23_37  and  N7_38 
REMARK   16  A    between atoms: N7_38  and  C24_40 
REMARK   17  A    between atoms: N8_44  and  N9_46 
REMARK   18  A    between atoms: N9_46  and  N10_48 
ROOT
HETATM    1  C3  UNL     1       1.789  19.760  19.721  1.00  0.00     0.042 C 
HETATM    2  C4  UNL     1       2.753  19.857  18.593  1.00  0.00     0.094 C 
HETATM    3  C5  UNL     1       3.029  21.240  18.128  1.00  0.00     0.118 C 
HETATM    4  N1  UNL     1       2.290  22.069  17.266  1.00  0.00    -0.335 N 
HETATM    5  C6  UNL     1       1.881  23.371  17.894  1.00  0.00     0.158 C 
HETATM    6  C7  UNL     1       1.887  21.899  15.914  1.00  0.00     0.067 C 
HETATM    7  C12 UNL     1       0.812  20.993  15.568  1.00  0.00     0.160 C 
HETATM    8  N2  UNL     1       0.217  19.921  16.230  1.00  0.00    -0.354 N 
ATOM      9  H2  UNL     1       0.191  19.042  15.713  1.00  0.00     0.162 HD
HETATM   10  C13 UNL     1      -0.368  19.887  17.550  1.00  0.00     0.201 C 
HETATM   11  C23 UNL     1       0.053  18.600  18.227  1.00  0.00     0.157 C 
HETATM   12  C27 UNL     1       0.657  18.829  19.549  1.00  0.00     0.034 C 
HETATM   13  N8  UNL     1       0.235  18.254  20.587  1.00  0.00    -0.292 N 
ATOM     14  H8  UNL     1       0.766  18.541  21.409  1.00  0.00     0.188 HD
ENDROOT
BRANCH  10  15
HETATM   15  C14 UNL     1      -1.875  19.911  17.338  1.00  0.00     0.215 C 
BRANCH  15  16
HETATM   16  O3  UNL     1      -2.225  19.444  16.162  1.00  0.00    -0.337 OA
ATOM     17  H3  UNL     1      -2.845  20.009  15.716  1.00  0.00     0.220 HD
ENDBRANCH  15  16
BRANCH  15  18
HETATM   18  N3  UNL     1      -2.771  20.337  18.182  1.00  0.00    -0.391 NA
BRANCH  18  19
HETATM   19  C15 UNL     1      -3.573  20.741  18.968  1.00  0.00     0.068 C 
BRANCH  19  20
HETATM   20  C16 UNL     1      -4.878  21.347  18.537  1.00  0.00     0.070 C 
BRANCH  20  21
HETATM   21  C17 UNL     1      -4.716  22.567  17.730  1.00  0.00     0.026 C 
BRANCH  21  22
HETATM   22  C18 UNL     1      -5.253  22.353  16.295  1.00  0.00     0.122 C 
BRANCH  22  23
HETATM   23  N4  UNL     1      -4.250  21.676  15.537  1.00  0.00    -0.367 N 
HETATM   24  C19 UNL     1      -3.531  22.338  14.693  1.00  0.00     0.196 C 
HETATM   25  N5  UNL     1      -2.546  21.594  13.965  1.00  0.00    -0.067 NA
HETATM   26  N6  UNL     1      -3.681  23.730  14.478  1.00  0.00    -0.067 NA
ATOM     27  H4  UNL     1      -4.101  20.674  15.661  1.00  0.00     0.161 HD
ENDBRANCH  22  23
ENDBRANCH  21  22
ENDBRANCH  20  21
ENDBRANCH  19  20
BRANCH  19  28
HETATM   28  C20 UNL     1      -3.240  20.637  20.435  1.00  0.00     0.037 C 
HETATM   29  C21 UNL     1      -1.915  21.258  20.714  1.00  0.00     0.017 C 
HETATM   30  C22 UNL     1      -4.345  21.293  21.272  1.00  0.00     0.017 C 
ENDBRANCH  19  28
ENDBRANCH  18  19
ENDBRANCH  15  18
ENDBRANCH  10  15
BRANCH  11  31
HETATM   31  N7  UNL     1      -0.996  17.647  18.233  1.00  0.00    -0.406 N 
ATOM     32  H7  UNL     1      -1.821  17.803  18.812  1.00  0.00     0.154 HD
BRANCH  31  33
HETATM   33  C24 UNL     1      -0.905  16.486  17.443  1.00  0.00     0.069 C 
HETATM   34  C25 UNL     1      -0.517  15.327  18.388  1.00  0.00     0.031 C 
HETATM   35  C26 UNL     1      -2.116  16.050  16.699  1.00  0.00     0.031 C 
ENDBRANCH  31  33
ENDBRANCH  11  31
BRANCH   7  36
HETATM   36  O2  UNL     1       0.286  21.216  14.397  1.00  0.00    -0.345 OA
ATOM     37  H2  UNL     1       0.094  20.428  13.903  1.00  0.00     0.219 HD
ENDBRANCH   7  36
BRANCH   6  38
HETATM   38  C8  UNL     1       3.050  21.738  14.922  1.00  0.00     0.036 C 
HETATM   39  C9  UNL     1       3.697  20.414  14.935  1.00  0.00     0.016 C 
BRANCH  38  40
HETATM   40  C10 UNL     1       4.013  22.897  15.068  1.00  0.00     0.006 C 
HETATM   41  C11 UNL     1       5.421  22.426  15.340  1.00  0.00     0.006 C 
ENDBRANCH  38  40
ENDBRANCH   6  38
BRANCH   1  42
HETATM   42  C2  UNL     1       2.447  19.521  21.073  1.00  0.00     0.006 C 
HETATM   43  C1  UNL     1       2.758  20.790  21.820  1.00  0.00     0.006 C 
ENDBRANCH   1  42
BRANCH  13  44
HETATM   44  N9  UNL     1      -0.716  17.371  20.911  1.00  0.00    -0.249 N 
ATOM     45  H9  UNL     1      -0.740  16.499  20.384  1.00  0.00     0.207 HD
BRANCH  44  46
HETATM   46  N10 UNL     1      -1.602  17.527  21.830  1.00  0.00    -0.331 N 
ATOM     47 2H10 UNL     1      -2.053  18.440  21.867  1.00  0.00     0.178 HD
ATOM     48 1H10 UNL     1      -1.883  16.821  22.511  1.00  0.00     0.178 HD
ENDBRANCH  44  46
ENDBRANCH  13  44
BRANCH   3  49
HETATM   49  O1  UNL     1       4.127  21.763  18.594  1.00  0.00    -0.349 OA
ATOM     50  H1  UNL     1       4.172  22.711  18.536  1.00  0.00     0.219 HD
ENDBRANCH   3  49
TORSDOF 18
ENDMDL
MODEL 4
REMARK VINA RESULT: -5.110922477      2.970      6.657
REMARK  18 active torsions:
REMARK  status: ('A' for Active; 'I' for Inactive)
REMARK    1  A    between atoms: C2_2  and  C3_3 
REMARK    2  A    between atoms: C5_5  and  O1_6 
REMARK    3  A    between atoms: C7_10  and  C8_11 
REMARK    4  A    between atoms: C8_11  and  C10_13 
REMARK    5  A    between atoms: C12_15  and  O2_16 
REMARK    6  A    between atoms: C13_20  and  C14_21 
REMARK    7  A    between atoms: C14_21  and  O3_22 
REMARK    8  A    between atoms: C14_21  and  N3_24 
REMARK    9  A    between atoms: N3_24  and  C15_25 
REMARK   10  A    between atoms: C15_25  and  C16_26 
REMARK   11  A    between atoms: C15_25  and  C20_34 
REMARK   12  A    between atoms: C16_26  and  C17_27 
REMARK   13  A    between atoms: C17_27  and  C18_28 
REMARK   14  A    between atoms: C18_28  and  N4_29 
REMARK   15  A    between atoms: C23_37  and  N7_38 
REMARK   16  A    between atoms: N7_38  and  C24_40 
REMARK   17  A    between atoms: N8_44  and  N9_46 
REMARK   18  A    between atoms: N9_46  and  N10_48 
ROOT
HETATM    1  C3  UNL     1      -3.039  20.824  20.698  1.00  0.00     0.042 C 
HETATM    2  C4  UNL     1      -3.550  20.215  21.955  1.00  0.00     0.094 C 
HETATM    3  C5  UNL     1      -3.009  20.814  23.201  1.00  0.00     0.118 C 
HETATM    4  N1  UNL     1      -1.786  20.587  23.858  1.00  0.00    -0.335 N 
HETATM    5  C6  UNL     1      -0.956  21.827  24.020  1.00  0.00     0.158 C 
HETATM    6  C7  UNL     1      -1.219  19.405  24.406  1.00  0.00     0.067 C 
HETATM    7  C12 UNL     1      -0.670  18.378  23.548  1.00  0.00     0.160 C 
HETATM    8  N2  UNL     1      -0.836  18.071  22.198  1.00  0.00    -0.354 N 
ATOM      9  H2  UNL     1      -1.120  17.113  21.995  1.00  0.00     0.162 HD
HETATM   10  C13 UNL     1      -0.659  18.928  21.050  1.00  0.00     0.201 C 
HETATM   11  C23 UNL     1      -1.791  18.667  20.079  1.00  0.00     0.157 C 
HETATM   12  C27 UNL     1      -2.493  19.900  19.686  1.00  0.00     0.034 C 
HETATM   13  N8  UNL     1      -2.651  20.224  18.479  1.00  0.00    -0.292 N 
ATOM     14  H8  UNL     1      -3.149  21.110  18.399  1.00  0.00     0.188 HD
ENDROOT
BRANCH  10  15
HETATM   15  C14 UNL     1       0.674  18.530  20.434  1.00  0.00     0.215 C 
BRANCH  15  16
HETATM   16  O3  UNL     1       0.981  17.274  20.668  1.00  0.00    -0.337 OA
ATOM     17  H3  UNL     1       1.438  17.159  21.492  1.00  0.00     0.220 HD
ENDBRANCH  15  16
BRANCH  15  18
HETATM   18  N3  UNL     1       1.473  19.297  19.748  1.00  0.00    -0.391 NA
BRANCH  18  19
HETATM   19  C15 UNL     1       2.219  20.004  19.142  1.00  0.00     0.068 C 
BRANCH  19  20
HETATM   20  C16 UNL     1       2.374  19.909  17.651  1.00  0.00     0.070 C 
BRANCH  20  21
HETATM   21  C17 UNL     1       1.100  20.028  16.924  1.00  0.00     0.026 C 
BRANCH  21  22
HETATM   22  C18 UNL     1       1.051  21.345  16.112  1.00  0.00     0.122 C 
BRANCH  22  23
HETATM   23  N4  UNL     1       0.201  21.143  14.982  1.00  0.00    -0.367 N 
HETATM   24  C19 UNL     1      -0.998  21.620  14.992  1.00  0.00     0.196 C 
HETATM   25  N5  UNL     1      -1.797  21.376  13.826  1.00  0.00    -0.067 NA
HETATM   26  N6  UNL     1      -1.527  22.355  16.081  1.00  0.00    -0.067 NA
ATOM     27  H4  UNL     1       0.539  20.624  14.171  1.00  0.00     0.161 HD
ENDBRANCH  22  23
ENDBRANCH  21  22
ENDBRANCH  20  21
ENDBRANCH  19  20
BRANCH  19  28
HETATM   28  C20 UNL     1       3.028  21.011  19.920  1.00  0.00     0.037 C 
HETATM   29  C21 UNL     1       3.840  20.331  20.967  1.00  0.00     0.017 C 
HETATM   30  C22 UNL     1       3.919  21.818  18.967  1.00  0.00     0.017 C 
ENDBRANCH  19  28
ENDBRANCH  18  19
ENDBRANCH  15  18
ENDBRANCH  10  15
BRANCH  11  31
HETATM   31  N7  UNL     1      -1.366  17.874  18.984  1.00  0.00    -0.406 N 
ATOM     32  H7  UNL     1      -0.623  18.210  18.371  1.00  0.00     0.154 HD
BRANCH  31  33
HETATM   33  C24 UNL     1      -1.965  16.625  18.738  1.00  0.00     0.069 C 
HETATM   34  C25 UNL     1      -1.617  16.237  17.283  1.00  0.00     0.031 C 
HETATM   35  C26 UNL     1      -1.567  15.478  19.597  1.00  0.00     0.031 C 
ENDBRANCH  31  33
ENDBRANCH  11  31
BRANCH   7  36
HETATM   36  O2  UNL     1       0.150  17.564  24.151  1.00  0.00    -0.345 OA
ATOM     37  H2  UNL     1       1.068  17.778  24.029  1.00  0.00     0.219 HD
ENDBRANCH   7  36
BRANCH   6  38
HETATM   38  C8  UNL     1      -2.054  18.763  25.527  1.00  0.00     0.036 C 
HETATM   39  C9  UNL     1      -3.257  18.046  25.070  1.00  0.00     0.016 C 
BRANCH  38  40
HETATM   40  C10 UNL     1      -2.318  19.780  26.617  1.00  0.00     0.006 C 
HETATM   41  C11 UNL     1      -2.386  19.136  27.981  1.00  0.00     0.006 C 
ENDBRANCH  38  40
ENDBRANCH   6  38
BRANCH   1  42
HETATM   42  C2  UNL     1      -4.019  21.784  20.038  1.00  0.00     0.006 C 
HETATM   43  C1  UNL     1      -5.427  21.650  20.553  1.00  0.00     0.006 C 
ENDBRANCH   1  42
BRANCH  13  44
HETATM   44  N9  UNL     1      -2.348  19.729  17.275  1.00  0.00    -0.249 N 
ATOM     45  H9  UNL     1      -1.368  19.518  17.092  1.00  0.00     0.207 HD
BRANCH  44  46
HETATM   46  N10 UNL     1      -3.186  19.497  16.326  1.00  0.00    -0.331 N 
ATOM     47 2H10 UNL     1      -3.325  18.517  16.082  1.00  0.00     0.178 HD
ATOM     48 1H10 UNL     1      -3.710  20.203  15.810  1.00  0.00     0.178 HD
ENDBRANCH  44  46
ENDBRANCH  13  44
BRANCH   3  49
HETATM   49  O1  UNL     1      -3.790  21.687  23.771  1.00  0.00    -0.349 OA
ATOM     50  H1  UNL     1      -3.483  22.008  24.611  1.00  0.00     0.219 HD
ENDBRANCH   3  49
TORSDOF 18
ENDMDL
MODEL 5
REMARK VINA RESULT: -5.028751706      2.313      5.612
REMARK  18 active torsions:
REMARK  status: ('A' for Active; 'I' for Inactive)
REMARK    1  A    between atoms: C2_2  and  C3_3 
REMARK    2  A    between atoms: C5_5  and  O1_6 
REMARK    3  A    between atoms: C7_10  and  C8_11 
REMARK    4  A    between atoms: C8_11  and  C10_13 
REMARK    5  A    between atoms: C12_15  and  O2_16 
REMARK    6  A    between atoms: C13_20  and  C14_21 
REMARK    7  A    between atoms: C14_21  and  O3_22 
REMARK    8  A    between atoms: C14_21  and  N3_24 
REMARK    9  A    between atoms: N3_24  and  C15_25 
REMARK   10  A    between atoms: C15_25  and  C16_26 
REMARK   11  A    between atoms: C15_25  and  C20_34 
REMARK   12  A    between atoms: C16_26  and  C17_27 
REMARK   13  A    between atoms: C17_27  and  C18_28 
REMARK   14  A    between atoms: C18_28  and  N4_29 
REMARK   15  A    between atoms: C23_37  and  N7_38 
REMARK   16  A    between atoms: N7_38  and  C24_40 
REMARK   17  A    between atoms: N8_44  and  N9_46 
REMARK   18  A    between atoms: N9_46  and  N10_48 
ROOT
HETATM    1  C3  UNL     1      -1.904  17.876  17.775  1.00  0.00     0.042 C 
HETATM    2  C4  UNL     1      -2.455  19.245  17.592  1.00  0.00     0.094 C 
HETATM    3  C5  UNL     1      -1.720  20.086  16.614  1.00  0.00     0.118 C 
HETATM    4  N1  UNL     1      -0.537  20.831  16.770  1.00  0.00    -0.335 N 
HETATM    5  C6  UNL     1       0.552  20.429  15.817  1.00  0.00     0.158 C 
HETATM    6  C7  UNL     1      -0.208  21.899  17.647  1.00  0.00     0.067 C 
HETATM    7  C12 UNL     1       0.050  21.654  19.050  1.00  0.00     0.160 C 
HETATM    8  N2  UNL     1      -0.263  20.602  19.909  1.00  0.00    -0.354 N 
ATOM      9  H2  UNL     1      -0.761  20.861  20.760  1.00  0.00     0.162 HD
HETATM   10  C13 UNL     1       0.024  19.195  19.756  1.00  0.00     0.201 C 
HETATM   11  C23 UNL     1      -1.197  18.409  20.185  1.00  0.00     0.157 C 
HETATM   12  C27 UNL     1      -1.637  17.447  19.161  1.00  0.00     0.034 C 
HETATM   13  N8  UNL     1      -1.796  16.224  19.416  1.00  0.00    -0.292 N 
ATOM     14  H8  UNL     1      -2.093  15.711  18.587  1.00  0.00     0.188 HD
ENDROOT
BRANCH  10  15
HETATM   15  C14 UNL     1       1.197  18.906  20.680  1.00  0.00     0.215 C 
BRANCH  15  16
HETATM   16  O3  UNL     1       1.739  17.732  20.452  1.00  0.00    -0.337 OA
ATOM     17  H3  UNL     1       2.488  17.562  21.011  1.00  0.00     0.220 HD
ENDBRANCH  15  16
BRANCH  15  18
HETATM   18  N3  UNL     1       1.659  19.686  21.616  1.00  0.00    -0.391 NA
BRANCH  18  19
HETATM   19  C15 UNL     1       2.067  20.419  22.465  1.00  0.00     0.068 C 
BRANCH  19  20
HETATM   20  C16 UNL     1       3.428  21.049  22.390  1.00  0.00     0.070 C 
BRANCH  20  21
HETATM   21  C17 UNL     1       4.215  20.599  21.231  1.00  0.00     0.026 C 
BRANCH  21  22
HETATM   22  C18 UNL     1       4.778  21.808  20.445  1.00  0.00     0.122 C 
BRANCH  22  23
HETATM   23  N4  UNL     1       3.777  22.250  19.527  1.00  0.00    -0.367 N 
HETATM   24  C19 UNL     1       4.124  22.658  18.353  1.00  0.00     0.196 C 
HETATM   25  N5  UNL     1       3.068  23.091  17.485  1.00  0.00    -0.067 NA
HETATM   26  N6  UNL     1       5.469  22.686  17.912  1.00  0.00    -0.067 NA
ATOM     27  H4  UNL     1       2.794  22.244  19.798  1.00  0.00     0.161 HD
ENDBRANCH  22  23
ENDBRANCH  21  22
ENDBRANCH  20  21
ENDBRANCH  19  20
BRANCH  19  28
HETATM   28  C20 UNL     1       1.172  20.698  23.647  1.00  0.00     0.037 C 
HETATM   29  C21 UNL     1       1.982  21.083  24.835  1.00  0.00     0.017 C 
HETATM   30  C22 UNL     1       0.159  21.793  23.290  1.00  0.00     0.017 C 
ENDBRANCH  19  28
ENDBRANCH  18  19
ENDBRANCH  15  18
ENDBRANCH  10  15
BRANCH  11  31
HETATM   31  N7  UNL     1      -1.024  17.839  21.471  1.00  0.00    -0.406 N 
ATOM     32  H7  UNL     1      -0.229  17.226  21.653  1.00  0.00     0.154 HD
BRANCH  31  33
HETATM   33  C24 UNL     1      -1.944  18.116  22.499  1.00  0.00     0.069 C 
HETATM   34  C25 UNL     1      -1.151  18.116  23.825  1.00  0.00     0.031 C 
HETATM   35  C26 UNL     1      -2.689  19.401  22.442  1.00  0.00     0.031 C 
ENDBRANCH  31  33
ENDBRANCH  11  31
BRANCH   7  36
HETATM   36  O2  UNL     1       0.710  22.608  19.643  1.00  0.00    -0.345 OA
ATOM     37  H2  UNL     1       1.649  22.577  19.501  1.00  0.00     0.219 HD
ENDBRANCH   7  36
BRANCH   6  38
HETATM   38  C8  UNL     1      -1.090  23.147  17.484  1.00  0.00     0.036 C 
HETATM   39  C9  UNL     1      -2.431  23.041  18.084  1.00  0.00     0.016 C 
BRANCH  38  40
HETATM   40  C10 UNL     1      -1.094  23.588  16.036  1.00  0.00     0.006 C 
HETATM   41  C11 UNL     1      -2.496  23.696  15.486  1.00  0.00     0.006 C 
ENDBRANCH  38  40
ENDBRANCH   6  38
BRANCH   1  42
HETATM   42  C2  UNL     1      -2.692  16.794  17.048  1.00  0.00     0.006 C 
HETATM   43  C1  UNL     1      -1.824  15.848  16.263  1.00  0.00     0.006 C 
ENDBRANCH   1  42
BRANCH  13  44
HETATM   44  N9  UNL     1      -1.684  15.411  20.472  1.00  0.00    -0.249 N 
ATOM     45  H9  UNL     1      -1.909  15.803  21.386  1.00  0.00     0.207 HD
BRANCH  44  46
HETATM   46  N10 UNL     1      -1.317  14.179  20.434  1.00  0.00    -0.331 N 
ATOM     47 2H10 UNL     1      -0.320  14.013  20.300  1.00  0.00     0.178 HD
ATOM     48 1H10 UNL     1      -1.934  13.372  20.527  1.00  0.00     0.178 HD
ENDBRANCH  44  46
ENDBRANCH  13  44
BRANCH   3  49
HETATM   49  O1  UNL     1      -2.255  20.138  15.427  1.00  0.00    -0.349 OA
ATOM     50  H1  UNL     1      -2.768  19.375  15.188  1.00  0.00     0.219 HD
ENDBRANCH   3  49
TORSDOF 18
ENDMDL
