MODEL 1
REMARK VINA RESULT: -7.532749698      0.000      0.000
REMARK  12 active torsions:
REMARK  status: ('A' for Active; 'I' for Inactive)
REMARK    1  A    between atoms: N1_2  and  C2_4 
REMARK       I    between atoms: N2_6  and  C4_8 
REMARK    2  A    between atoms: C4_8  and  C5_10 
REMARK    3  A    between atoms: C5_10  and  C6_11 
REMARK    4  A    between atoms: C6_11  and  C7_12 
REMARK    5  A    between atoms: C6_11  and  C14_20 
REMARK    6  A    between atoms: C7_12  and  C8_13 
REMARK       I    between atoms: C14_20  and  N4_22 
REMARK    7  A    between atoms: N4_22  and  C15_24 
REMARK    8  A    between atoms: C15_24  and  C16_25 
REMARK    9  A    between atoms: C15_24  and  C22_38 
REMARK   10  A    between atoms: C16_25  and  C17_26 
REMARK   11  A    between atoms: C19_30  and  C20_31 
REMARK   12  A    between atoms: C20_31  and  N6_32 
ROOT
HETATM    1  C14 UNL     1      42.975  23.903  52.569  1.00  0.00     0.223 C 
HETATM    2  O2  UNL     1      43.169  23.181  53.582  1.00  0.00    -0.273 OA
HETATM    3  N4  UNL     1      42.016  24.938  52.698  1.00  0.00    -0.348 N 
ATOM      4  H4  UNL     1      41.841  25.538  51.892  1.00  0.00     0.163 HD
ENDROOT
BRANCH   1   5
HETATM    5  C6  UNL     1      43.715  23.674  51.315  1.00  0.00     0.091 C 
BRANCH   5   6
HETATM    6  C5  UNL     1      43.534  22.354  50.673  1.00  0.00     0.117 C 
BRANCH   6   7
HETATM    7  C4  UNL     1      44.604  21.378  50.797  1.00  0.00     0.223 C 
HETATM    8  N2  UNL     1      45.210  21.047  52.065  1.00  0.00    -0.317 N 
HETATM    9  C2  UNL     1      45.206  19.848  52.515  1.00  0.00     0.074 C 
ATOM     10  H2  UNL     1      45.651  21.785  52.614  1.00  0.00     0.170 HD
HETATM   11  C3  UNL     1      44.562  18.784  51.713  1.00  0.00     0.089 C 
HETATM   12  O1  UNL     1      45.077  20.757  49.820  1.00  0.00    -0.273 OA
BRANCH   9  13
HETATM   13  N1  UNL     1      45.801  19.525  53.759  1.00  0.00    -0.384 N 
HETATM   14  C1  UNL     1      45.871  18.190  54.312  1.00  0.00     0.147 C 
ATOM     15  H1  UNL     1      46.208  20.286  54.302  1.00  0.00     0.160 HD
ENDBRANCH   9  13
ENDBRANCH   6   7
ENDBRANCH   5   6
BRANCH   5  16
HETATM   16  C7  UNL     1      43.406  24.827  50.374  1.00  0.00     0.054 C 
BRANCH  16  17
HETATM   17  C8  UNL     1      44.076  24.741  49.072  1.00  0.00    -0.042 A 
HETATM   18  C9  UNL     1      45.416  24.437  49.000  1.00  0.00     0.010 A 
HETATM   19  C10 UNL     1      46.095  24.343  47.805  1.00  0.00     0.018 A 
HETATM   20  C11 UNL     1      45.421  24.559  46.624  1.00  0.00     0.090 A 
HETATM   21  N3  UNL     1      44.111  24.857  46.689  1.00  0.00    -0.370 N 
HETATM   22  C12 UNL     1      43.421  25.081  45.416  1.00  0.00     0.154 C 
HETATM   23  C13 UNL     1      43.450  24.948  47.862  1.00  0.00     0.097 A 
ENDBRANCH  16  17
ENDBRANCH   5  16
ENDBRANCH   1   5
BRANCH   3  24
HETATM   24  C15 UNL     1      41.273  25.189  53.907  1.00  0.00     0.178 C 
BRANCH  24  25
HETATM   25  C16 UNL     1      39.950  25.885  53.613  1.00  0.00     0.074 C 
BRANCH  25  26
HETATM   26  C17 UNL     1      38.972  25.708  54.712  1.00  0.00    -0.038 A 
HETATM   27  C18 UNL     1      38.090  26.640  55.235  1.00  0.00     0.095 A 
HETATM   28  N5  UNL     1      37.375  26.047  56.236  1.00  0.00    -0.367 N 
HETATM   29  C19 UNL     1      37.761  24.772  56.377  1.00  0.00     0.029 A 
ATOM     30  H5  UNL     1      36.655  26.507  56.793  1.00  0.00     0.165 HD
HETATM   31  C21 UNL     1      38.744  24.560  55.440  1.00  0.00     0.035 A 
BRANCH  29  32
HETATM   32  C20 UNL     1      37.252  23.768  57.337  1.00  0.00     0.195 C 
BRANCH  32  33
HETATM   33  N6  UNL     1      35.886  24.011  57.680  1.00  0.00    -0.337 N 
HETATM   34  N7  UNL     1      35.170  23.060  58.022  1.00  0.00    -0.349 N 
ATOM     35  H72 UNL     1      35.566  22.120  58.052  1.00  0.00     0.176 HD
ATOM     36  H71 UNL     1      34.195  23.233  58.267  1.00  0.00     0.176 HD
ATOM     37  H6  UNL     1      35.505  24.956  57.645  1.00  0.00     0.179 HD
ENDBRANCH  32  33
ENDBRANCH  29  32
ENDBRANCH  25  26
ENDBRANCH  24  25
BRANCH  24  38
HETATM   38  C22 UNL     1      42.010  25.901  54.956  1.00  0.00     0.254 C 
HETATM   39  N8  UNL     1      42.462  27.230  54.726  1.00  0.00    -0.060 NA
HETATM   40  O3  UNL     1      42.276  25.400  56.076  1.00  0.00    -0.275 OA
ENDBRANCH  24  38
ENDBRANCH   3  24
TORSDOF 12
ENDMDL
MODEL 2
REMARK VINA RESULT: -7.452622268      3.197      8.221
REMARK  12 active torsions:
REMARK  status: ('A' for Active; 'I' for Inactive)
REMARK    1  A    between atoms: N1_2  and  C2_4 
REMARK       I    between atoms: N2_6  and  C4_8 
REMARK    2  A    between atoms: C4_8  and  C5_10 
REMARK    3  A    between atoms: C5_10  and  C6_11 
REMARK    4  A    between atoms: C6_11  and  C7_12 
REMARK    5  A    between atoms: C6_11  and  C14_20 
REMARK    6  A    between atoms: C7_12  and  C8_13 
REMARK       I    between atoms: C14_20  and  N4_22 
REMARK    7  A    between atoms: N4_22  and  C15_24 
REMARK    8  A    between atoms: C15_24  and  C16_25 
REMARK    9  A    between atoms: C15_24  and  C22_38 
REMARK   10  A    between atoms: C16_25  and  C17_26 
REMARK   11  A    between atoms: C19_30  and  C20_31 
REMARK   12  A    between atoms: C20_31  and  N6_32 
ROOT
HETATM    1  C14 UNL     1      43.530  23.775  52.692  1.00  0.00     0.223 C 
HETATM    2  O2  UNL     1      42.357  23.583  52.276  1.00  0.00    -0.273 OA
HETATM    3  N4  UNL     1      44.577  23.187  51.940  1.00  0.00    -0.348 N 
ATOM      4  H4  UNL     1      45.537  23.329  52.256  1.00  0.00     0.163 HD
ENDROOT
BRANCH   1   5
HETATM    5  C6  UNL     1      43.790  24.574  53.904  1.00  0.00     0.091 C 
BRANCH   5   6
HETATM    6  C5  UNL     1      45.128  25.194  54.011  1.00  0.00     0.117 C 
BRANCH   6   7
HETATM    7  C4  UNL     1      46.036  24.694  55.030  1.00  0.00     0.223 C 
HETATM    8  N2  UNL     1      47.437  24.458  54.772  1.00  0.00    -0.317 N 
HETATM    9  C2  UNL     1      48.351  25.050  55.446  1.00  0.00     0.074 C 
ATOM     10  H2  UNL     1      47.705  23.804  54.036  1.00  0.00     0.170 HD
HETATM   11  C3  UNL     1      47.954  25.999  56.512  1.00  0.00     0.089 C 
HETATM   12  O1  UNL     1      45.675  24.433  56.198  1.00  0.00    -0.273 OA
BRANCH   9  13
HETATM   13  N1  UNL     1      49.724  24.817  55.192  1.00  0.00    -0.384 N 
HETATM   14  C1  UNL     1      50.791  25.107  56.125  1.00  0.00     0.147 C 
ATOM     15  H1  UNL     1      49.978  24.417  54.290  1.00  0.00     0.160 HD
ENDBRANCH   9  13
ENDBRANCH   6   7
ENDBRANCH   5   6
BRANCH   5  16
HETATM   16  C7  UNL     1      42.665  25.586  54.044  1.00  0.00     0.054 C 
BRANCH  16  17
HETATM   17  C8  UNL     1      41.701  25.274  55.105  1.00  0.00    -0.042 A 
HETATM   18  C9  UNL     1      42.096  25.271  56.423  1.00  0.00     0.010 A 
HETATM   19  C10 UNL     1      41.234  24.985  57.459  1.00  0.00     0.018 A 
HETATM   20  C11 UNL     1      39.918  24.689  57.182  1.00  0.00     0.090 A 
HETATM   21  N3  UNL     1      39.526  24.690  55.896  1.00  0.00    -0.370 N 
HETATM   22  C12 UNL     1      38.121  24.370  55.634  1.00  0.00     0.154 C 
HETATM   23  C13 UNL     1      40.375  24.969  54.884  1.00  0.00     0.097 A 
ENDBRANCH  16  17
ENDBRANCH   5  16
ENDBRANCH   1   5
BRANCH   3  24
HETATM   24  C15 UNL     1      44.361  22.399  50.753  1.00  0.00     0.178 C 
BRANCH  24  25
HETATM   25  C16 UNL     1      45.430  21.325  50.595  1.00  0.00     0.074 C 
BRANCH  25  26
HETATM   26  C17 UNL     1      45.108  20.101  51.366  1.00  0.00    -0.038 A 
HETATM   27  C18 UNL     1      44.078  19.199  51.154  1.00  0.00     0.095 A 
HETATM   28  N5  UNL     1      44.157  18.219  52.102  1.00  0.00    -0.367 N 
HETATM   29  C19 UNL     1      45.196  18.455  52.914  1.00  0.00     0.029 A 
ATOM     30  H5  UNL     1      43.520  17.427  52.180  1.00  0.00     0.165 HD
HETATM   31  C21 UNL     1      45.783  19.613  52.464  1.00  0.00     0.035 A 
BRANCH  29  32
HETATM   32  C20 UNL     1      45.647  17.651  54.071  1.00  0.00     0.195 C 
BRANCH  32  33
HETATM   33  N6  UNL     1      46.048  18.479  55.166  1.00  0.00    -0.337 N 
HETATM   34  N7  UNL     1      45.919  18.057  56.322  1.00  0.00    -0.349 N 
ATOM     35  H72 UNL     1      45.529  17.127  56.476  1.00  0.00     0.176 HD
ATOM     36  H71 UNL     1      46.206  18.648  57.103  1.00  0.00     0.176 HD
ATOM     37  H6  UNL     1      46.436  19.407  54.995  1.00  0.00     0.179 HD
ENDBRANCH  32  33
ENDBRANCH  29  32
ENDBRANCH  25  26
ENDBRANCH  24  25
BRANCH  24  38
HETATM   38  C22 UNL     1      44.212  23.167  49.513  1.00  0.00     0.254 C 
HETATM   39  N8  UNL     1      45.358  23.480  48.732  1.00  0.00    -0.060 NA
HETATM   40  O3  UNL     1      43.105  23.578  49.083  1.00  0.00    -0.275 OA
ENDBRANCH  24  38
ENDBRANCH   3  24
TORSDOF 12
ENDMDL
MODEL 3
REMARK VINA RESULT: -7.333884735      2.705      8.002
REMARK  12 active torsions:
REMARK  status: ('A' for Active; 'I' for Inactive)
REMARK    1  A    between atoms: N1_2  and  C2_4 
REMARK       I    between atoms: N2_6  and  C4_8 
REMARK    2  A    between atoms: C4_8  and  C5_10 
REMARK    3  A    between atoms: C5_10  and  C6_11 
REMARK    4  A    between atoms: C6_11  and  C7_12 
REMARK    5  A    between atoms: C6_11  and  C14_20 
REMARK    6  A    between atoms: C7_12  and  C8_13 
REMARK       I    between atoms: C14_20  and  N4_22 
REMARK    7  A    between atoms: N4_22  and  C15_24 
REMARK    8  A    between atoms: C15_24  and  C16_25 
REMARK    9  A    between atoms: C15_24  and  C22_38 
REMARK   10  A    between atoms: C16_25  and  C17_26 
REMARK   11  A    between atoms: C19_30  and  C20_31 
REMARK   12  A    between atoms: C20_31  and  N6_32 
ROOT
HETATM    1  C14 UNL     1      42.989  24.560  53.656  1.00  0.00     0.223 C 
HETATM    2  O2  UNL     1      43.032  23.367  54.056  1.00  0.00    -0.273 OA
HETATM    3  N4  UNL     1      43.018  24.764  52.254  1.00  0.00    -0.348 N 
ATOM      4  H4  UNL     1      42.984  25.722  51.905  1.00  0.00     0.163 HD
ENDROOT
BRANCH   1   5
HETATM    5  C6  UNL     1      42.913  25.682  54.609  1.00  0.00     0.091 C 
BRANCH   5   6
HETATM    6  C5  UNL     1      41.598  25.924  55.241  1.00  0.00     0.117 C 
BRANCH   6   7
HETATM    7  C4  UNL     1      40.408  25.454  54.552  1.00  0.00     0.223 C 
HETATM    8  N2  UNL     1      39.485  24.516  55.148  1.00  0.00    -0.317 N 
HETATM    9  C2  UNL     1      38.249  24.807  55.313  1.00  0.00     0.074 C 
ATOM     10  H2  UNL     1      39.826  23.601  55.445  1.00  0.00     0.170 HD
HETATM   11  C3  UNL     1      37.763  26.137  54.881  1.00  0.00     0.089 C 
HETATM   12  O1  UNL     1      40.097  25.823  53.399  1.00  0.00    -0.273 OA
BRANCH   9  13
HETATM   13  N1  UNL     1      37.345  23.887  55.897  1.00  0.00    -0.384 N 
HETATM   14  C1  UNL     1      37.071  23.795  57.314  1.00  0.00     0.147 C 
ATOM     15  H1  UNL     1      36.854  23.245  55.275  1.00  0.00     0.160 HD
ENDBRANCH   9  13
ENDBRANCH   6   7
ENDBRANCH   5   6
BRANCH   5  16
HETATM   16  C7  UNL     1      44.026  25.504  55.628  1.00  0.00     0.054 C 
BRANCH  16  17
HETATM   17  C8  UNL     1      45.375  25.719  55.092  1.00  0.00    -0.042 A 
HETATM   18  C9  UNL     1      46.362  24.784  55.303  1.00  0.00     0.010 A 
HETATM   19  C10 UNL     1      47.645  24.934  54.823  1.00  0.00     0.018 A 
HETATM   20  C11 UNL     1      47.970  26.060  54.101  1.00  0.00     0.090 A 
HETATM   21  N3  UNL     1      47.009  26.977  53.892  1.00  0.00    -0.370 N 
HETATM   22  C12 UNL     1      47.386  28.163  53.120  1.00  0.00     0.154 C 
HETATM   23  C13 UNL     1      45.754  26.826  54.364  1.00  0.00     0.097 A 
ENDBRANCH  16  17
ENDBRANCH   5  16
ENDBRANCH   1   5
BRANCH   3  24
HETATM   24  C15 UNL     1      43.095  23.692  51.295  1.00  0.00     0.178 C 
BRANCH  24  25
HETATM   25  C16 UNL     1      44.540  23.355  50.950  1.00  0.00     0.074 C 
BRANCH  25  26
HETATM   26  C17 UNL     1      44.777  21.893  50.911  1.00  0.00    -0.038 A 
HETATM   27  C18 UNL     1      45.271  21.130  49.866  1.00  0.00     0.095 A 
HETATM   28  N5  UNL     1      45.325  19.826  50.267  1.00  0.00    -0.367 N 
HETATM   29  C19 UNL     1      44.886  19.720  51.528  1.00  0.00     0.029 A 
ATOM     30  H5  UNL     1      45.650  19.049  49.692  1.00  0.00     0.165 HD
HETATM   31  C21 UNL     1      44.547  20.990  51.928  1.00  0.00     0.035 A 
BRANCH  29  32
HETATM   32  C20 UNL     1      44.775  18.496  52.353  1.00  0.00     0.195 C 
BRANCH  32  33
HETATM   33  N6  UNL     1      46.003  18.196  53.020  1.00  0.00    -0.337 N 
HETATM   34  N7  UNL     1      45.994  17.412  53.979  1.00  0.00    -0.349 N 
ATOM     35  H72 UNL     1      45.112  16.995  54.277  1.00  0.00     0.176 HD
ATOM     36  H71 UNL     1      46.871  17.197  54.454  1.00  0.00     0.176 HD
ATOM     37  H6  UNL     1      46.876  18.621  52.710  1.00  0.00     0.179 HD
ENDBRANCH  32  33
ENDBRANCH  29  32
ENDBRANCH  25  26
ENDBRANCH  24  25
BRANCH  24  38
HETATM   38  C22 UNL     1      42.306  23.889  50.075  1.00  0.00     0.254 C 
HETATM   39  N8  UNL     1      42.963  24.050  48.824  1.00  0.00    -0.060 NA
HETATM   40  O3  UNL     1      41.050  23.928  50.062  1.00  0.00    -0.275 OA
ENDBRANCH  24  38
ENDBRANCH   3  24
TORSDOF 12
ENDMDL
MODEL 4
REMARK VINA RESULT: -7.267379145      3.078      9.694
REMARK  12 active torsions:
REMARK  status: ('A' for Active; 'I' for Inactive)
REMARK    1  A    between atoms: N1_2  and  C2_4 
REMARK       I    between atoms: N2_6  and  C4_8 
REMARK    2  A    between atoms: C4_8  and  C5_10 
REMARK    3  A    between atoms: C5_10  and  C6_11 
REMARK    4  A    between atoms: C6_11  and  C7_12 
REMARK    5  A    between atoms: C6_11  and  C14_20 
REMARK    6  A    between atoms: C7_12  and  C8_13 
REMARK       I    between atoms: C14_20  and  N4_22 
REMARK    7  A    between atoms: N4_22  and  C15_24 
REMARK    8  A    between atoms: C15_24  and  C16_25 
REMARK    9  A    between atoms: C15_24  and  C22_38 
REMARK   10  A    between atoms: C16_25  and  C17_26 
REMARK   11  A    between atoms: C19_30  and  C20_31 
REMARK   12  A    between atoms: C20_31  and  N6_32 
ROOT
HETATM    1  C14 UNL     1      41.106  24.855  54.371  1.00  0.00     0.223 C 
HETATM    2  O2  UNL     1      40.704  25.197  53.228  1.00  0.00    -0.273 OA
HETATM    3  N4  UNL     1      42.444  24.399  54.466  1.00  0.00    -0.348 N 
ATOM      4  H4  UNL     1      42.794  24.117  55.382  1.00  0.00     0.163 HD
ENDROOT
BRANCH   1   5
HETATM    5  C6  UNL     1      40.218  24.929  55.546  1.00  0.00     0.091 C 
BRANCH   5   6
HETATM    6  C5  UNL     1      38.850  24.394  55.374  1.00  0.00     0.117 C 
BRANCH   6   7
HETATM    7  C4  UNL     1      37.731  25.231  55.773  1.00  0.00     0.223 C 
HETATM    8  N2  UNL     1      36.773  24.821  56.773  1.00  0.00    -0.317 N 
HETATM    9  C2  UNL     1      36.576  25.511  57.833  1.00  0.00     0.074 C 
ATOM     10  H2  UNL     1      36.241  23.961  56.631  1.00  0.00     0.170 HD
HETATM   11  C3  UNL     1      37.353  26.756  58.032  1.00  0.00     0.089 C 
HETATM   12  O1  UNL     1      37.515  26.360  55.282  1.00  0.00    -0.273 OA
BRANCH   9  13
HETATM   13  N1  UNL     1      35.636  25.108  58.812  1.00  0.00    -0.384 N 
HETATM   14  C1  UNL     1      34.689  24.028  58.644  1.00  0.00     0.147 C 
ATOM     15  H1  UNL     1      35.627  25.614  59.698  1.00  0.00     0.160 HD
ENDBRANCH   9  13
ENDBRANCH   6   7
ENDBRANCH   5   6
BRANCH   5  16
HETATM   16  C7  UNL     1      40.948  24.299  56.721  1.00  0.00     0.054 C 
BRANCH  16  17
HETATM   17  C8  UNL     1      40.981  25.132  57.928  1.00  0.00    -0.042 A 
HETATM   18  C9  UNL     1      40.962  26.504  57.825  1.00  0.00     0.010 A 
HETATM   19  C10 UNL     1      40.991  27.334  58.925  1.00  0.00     0.018 A 
HETATM   20  C11 UNL     1      41.041  26.785  60.186  1.00  0.00     0.090 A 
HETATM   21  N3  UNL     1      41.060  25.444  60.292  1.00  0.00    -0.370 N 
HETATM   22  C12 UNL     1      41.113  24.890  61.647  1.00  0.00     0.154 C 
HETATM   23  C13 UNL     1      41.031  24.635  59.213  1.00  0.00     0.097 A 
ENDBRANCH  16  17
ENDBRANCH   5  16
ENDBRANCH   1   5
BRANCH   3  24
HETATM   24  C15 UNL     1      43.338  24.312  53.340  1.00  0.00     0.178 C 
BRANCH  24  25
HETATM   25  C16 UNL     1      44.512  23.386  53.631  1.00  0.00     0.074 C 
BRANCH  25  26
HETATM   26  C17 UNL     1      44.482  22.167  52.788  1.00  0.00    -0.038 A 
HETATM   27  C18 UNL     1      43.829  21.973  51.582  1.00  0.00     0.095 A 
HETATM   28  N5  UNL     1      44.073  20.699  51.156  1.00  0.00    -0.367 N 
HETATM   29  C19 UNL     1      44.857  20.066  52.039  1.00  0.00     0.029 A 
ATOM     30  H5  UNL     1      43.712  20.290  50.294  1.00  0.00     0.165 HD
HETATM   31  C21 UNL     1      45.110  20.967  53.046  1.00  0.00     0.035 A 
BRANCH  29  32
HETATM   32  C20 UNL     1      45.365  18.678  51.974  1.00  0.00     0.195 C 
BRANCH  32  33
HETATM   33  N6  UNL     1      45.033  17.939  53.153  1.00  0.00    -0.337 N 
HETATM   34  N7  UNL     1      45.944  17.504  53.869  1.00  0.00    -0.349 N 
ATOM     35  H72 UNL     1      46.915  17.679  53.608  1.00  0.00     0.176 HD
ATOM     36  H71 UNL     1      45.708  16.977  54.710  1.00  0.00     0.176 HD
ATOM     37  H6  UNL     1      44.058  17.772  53.400  1.00  0.00     0.179 HD
ENDBRANCH  32  33
ENDBRANCH  29  32
ENDBRANCH  25  26
ENDBRANCH  24  25
BRANCH  24  38
HETATM   38  C22 UNL     1      43.812  25.598  52.818  1.00  0.00     0.254 C 
HETATM   39  N8  UNL     1      43.819  25.833  51.415  1.00  0.00    -0.060 NA
HETATM   40  O3  UNL     1      44.224  26.532  53.550  1.00  0.00    -0.275 OA
ENDBRANCH  24  38
ENDBRANCH   3  24
TORSDOF 12
ENDMDL
MODEL 5
REMARK VINA RESULT: -7.257202055      1.569      4.882
REMARK  12 active torsions:
REMARK  status: ('A' for Active; 'I' for Inactive)
REMARK    1  A    between atoms: N1_2  and  C2_4 
REMARK       I    between atoms: N2_6  and  C4_8 
REMARK    2  A    between atoms: C4_8  and  C5_10 
REMARK    3  A    between atoms: C5_10  and  C6_11 
REMARK    4  A    between atoms: C6_11  and  C7_12 
REMARK    5  A    between atoms: C6_11  and  C14_20 
REMARK    6  A    between atoms: C7_12  and  C8_13 
REMARK       I    between atoms: C14_20  and  N4_22 
REMARK    7  A    between atoms: N4_22  and  C15_24 
REMARK    8  A    between atoms: C15_24  and  C16_25 
REMARK    9  A    between atoms: C15_24  and  C22_38 
REMARK   10  A    between atoms: C16_25  and  C17_26 
REMARK   11  A    between atoms: C19_30  and  C20_31 
REMARK   12  A    between atoms: C20_31  and  N6_32 
ROOT
HETATM    1  C14 UNL     1      42.293  24.027  52.987  1.00  0.00     0.223 C 
HETATM    2  O2  UNL     1      42.909  23.781  54.057  1.00  0.00    -0.273 OA
HETATM    3  N4  UNL     1      41.202  24.927  53.072  1.00  0.00    -0.348 N 
ATOM      4  H4  UNL     1      40.688  25.143  52.218  1.00  0.00     0.163 HD
ENDROOT
BRANCH   1   5
HETATM    5  C6  UNL     1      42.696  23.402  51.713  1.00  0.00     0.091 C 
BRANCH   5   6
HETATM    6  C5  UNL     1      42.289  24.103  50.477  1.00  0.00     0.117 C 
BRANCH   6   7
HETATM    7  C4  UNL     1      43.318  24.770  49.696  1.00  0.00     0.223 C 
HETATM    8  N2  UNL     1      43.874  24.196  48.493  1.00  0.00    -0.317 N 
HETATM    9  C2  UNL     1      43.811  24.808  47.369  1.00  0.00     0.074 C 
ATOM     10  H2  UNL     1      44.326  23.283  48.540  1.00  0.00     0.170 HD
HETATM   11  C3  UNL     1      43.151  26.131  47.310  1.00  0.00     0.089 C 
HETATM   12  O1  UNL     1      43.794  25.883  50.006  1.00  0.00    -0.273 OA
BRANCH   9  13
HETATM   13  N1  UNL     1      44.357  24.244  46.191  1.00  0.00    -0.384 N 
HETATM   14  C1  UNL     1      44.770  25.005  45.033  1.00  0.00     0.147 C 
ATOM     15  H1  UNL     1      44.468  23.230  46.157  1.00  0.00     0.160 HD
ENDBRANCH   9  13
ENDBRANCH   6   7
ENDBRANCH   5   6
BRANCH   5  16
HETATM   16  C7  UNL     1      44.193  23.145  51.774  1.00  0.00     0.054 C 
BRANCH  16  17
HETATM   17  C8  UNL     1      44.569  21.734  51.638  1.00  0.00    -0.042 A 
HETATM   18  C9  UNL     1      44.546  21.125  50.404  1.00  0.00     0.010 A 
HETATM   19  C10 UNL     1      44.889  19.804  50.219  1.00  0.00     0.018 A 
HETATM   20  C11 UNL     1      45.275  19.046  51.302  1.00  0.00     0.090 A 
HETATM   21  N3  UNL     1      45.300  19.636  52.511  1.00  0.00    -0.370 N 
HETATM   22  C12 UNL     1      45.714  18.805  53.643  1.00  0.00     0.154 C 
HETATM   23  C13 UNL     1      44.962  20.931  52.687  1.00  0.00     0.097 A 
ENDBRANCH  16  17
ENDBRANCH   5  16
ENDBRANCH   1   5
BRANCH   3  24
HETATM   24  C15 UNL     1      40.779  25.553  54.298  1.00  0.00     0.178 C 
BRANCH  24  25
HETATM   25  C16 UNL     1      39.261  25.601  54.404  1.00  0.00     0.074 C 
BRANCH  25  26
HETATM   26  C17 UNL     1      38.778  25.096  55.711  1.00  0.00    -0.038 A 
HETATM   27  C18 UNL     1      39.350  25.263  56.961  1.00  0.00     0.095 A 
HETATM   28  N5  UNL     1      38.569  24.630  57.885  1.00  0.00    -0.367 N 
HETATM   29  C19 UNL     1      37.518  24.062  57.279  1.00  0.00     0.029 A 
ATOM     30  H5  UNL     1      38.759  24.594  58.886  1.00  0.00     0.165 HD
HETATM   31  C21 UNL     1      37.643  24.347  55.941  1.00  0.00     0.035 A 
BRANCH  29  32
HETATM   32  C20 UNL     1      36.425  23.280  57.897  1.00  0.00     0.195 C 
BRANCH  32  33
HETATM   33  N6  UNL     1      35.266  24.084  58.131  1.00  0.00    -0.337 N 
HETATM   34  N7  UNL     1      34.212  23.538  58.480  1.00  0.00    -0.349 N 
ATOM     35  H72 UNL     1      34.186  22.524  58.594  1.00  0.00     0.176 HD
ATOM     36  H71 UNL     1      33.385  24.112  58.648  1.00  0.00     0.176 HD
ATOM     37  H6  UNL     1      35.308  25.096  58.013  1.00  0.00     0.179 HD
ENDBRANCH  32  33
ENDBRANCH  29  32
ENDBRANCH  25  26
ENDBRANCH  24  25
BRANCH  24  38
HETATM   38  C22 UNL     1      41.358  26.876  54.554  1.00  0.00     0.254 C 
HETATM   39  N8  UNL     1      42.513  26.997  55.375  1.00  0.00    -0.060 NA
HETATM   40  O3  UNL     1      40.885  27.941  54.083  1.00  0.00    -0.275 OA
ENDBRANCH  24  38
ENDBRANCH   3  24
TORSDOF 12
ENDMDL
