MODEL 1
REMARK VINA RESULT: -6.560663494      0.000      0.000
REMARK  11 active torsions:
REMARK  status: ('A' for Active; 'I' for Inactive)
REMARK    1  A    between atoms: C3_3  and  C4_4 
REMARK    2  A    between atoms: C3_3  and  C6_6 
REMARK    3  A    between atoms: C3_3  and  C9_11 
REMARK    4  A    between atoms: C6_6  and  C7_7 
REMARK    5  A    between atoms: C7_7  and  S1_8 
REMARK    6  A    between atoms: N1_13  and  C11_14 
REMARK    7  A    between atoms: C11_14  and  C12_15 
REMARK    8  A    between atoms: C12_15  and  C13_16 
REMARK    9  A    between atoms: C13_16  and  N2_17 
REMARK   10  A    between atoms: N2_17  and  C14_18 
REMARK   11  A    between atoms: C14_18  and  C15_19 
ROOT
HETATM    1  C1  UNL     1      38.684  27.492  57.107  1.00  0.00     0.013 C 
HETATM    2  C2  UNL     1      38.979  26.497  56.489  1.00  0.00    -0.097 C 
HETATM    3  C3  UNL     1      39.337  25.267  55.773  1.00  0.00     0.086 C 
ENDROOT
BRANCH   3   4
HETATM    4  C4  UNL     1      38.121  24.446  55.519  1.00  0.00     0.029 C 
HETATM    5  C5  UNL     1      37.346  23.944  56.676  1.00  0.00     0.007 C 
ENDBRANCH   3   4
BRANCH   3   6
HETATM    6  C6  UNL     1      40.580  24.607  56.201  1.00  0.00     0.011 C 
BRANCH   6   7
HETATM    7  C7  UNL     1      41.388  25.019  57.336  1.00  0.00     0.076 C 
BRANCH   7   8
HETATM    8  S1  UNL     1      40.965  24.617  58.945  1.00  0.00     0.034 S 
HETATM    9  C8  UNL     1      41.823  23.370  59.777  1.00  0.00     0.132 C 
HETATM   10  O1  UNL     1      40.407  25.808  59.933  1.00  0.00    -0.254 OA
ENDBRANCH   7   8
ENDBRANCH   6   7
ENDBRANCH   3   6
BRANCH   3  11
HETATM   11  C9  UNL     1      39.697  25.781  54.359  1.00  0.00     0.069 A 
HETATM   12  C10 UNL     1      40.734  25.490  53.530  1.00  0.00     0.145 A 
HETATM   13  N1  UNL     1      40.589  26.150  52.365  1.00  0.00    -0.264 N 
HETATM   14  N6  UNL     1      39.441  26.857  52.506  1.00  0.00    -0.233 N 
HETATM   15  C19 UNL     1      38.842  27.725  51.502  1.00  0.00     0.200 C 
HETATM   16  N7  UNL     1      38.913  26.635  53.684  1.00  0.00    -0.285 N 
ATOM     17  H7  UNL     1      38.046  27.045  54.033  1.00  0.00     0.188 HD
BRANCH  13  18
HETATM   18  C11 UNL     1      41.334  26.137  51.182  1.00  0.00     0.092 C 
BRANCH  18  19
HETATM   19  C12 UNL     1      41.120  24.955  50.212  1.00  0.00     0.077 C 
BRANCH  19  20
HETATM   20  C13 UNL     1      42.202  23.957  50.508  1.00  0.00     0.272 C 
BRANCH  20  21
HETATM   21  N2  UNL     1      43.466  24.043  49.925  1.00  0.00     0.044 N 
HETATM   22  C16 UNL     1      44.474  24.419  51.000  1.00  0.00     0.369 C 
HETATM   23  C17 UNL     1      44.180  23.585  52.206  1.00  0.00     0.264 C 
HETATM   24  O4  UNL     1      44.039  24.073  53.339  1.00  0.00    -0.271 OA
HETATM   25  N3  UNL     1      44.065  22.184  51.997  1.00  0.00    -0.157 N 
HETATM   26  C18 UNL     1      43.937  21.778  50.633  1.00  0.00     0.699 C 
ATOM     27  H3  UNL     1      44.074  21.515  52.767  1.00  0.00     0.187 HD
HETATM   28  N4  UNL     1      43.830  20.527  50.295  1.00  0.00    -0.233 N 
HETATM   29  N5  UNL     1      43.930  22.761  49.568  1.00  0.00    -0.047 N 
ATOM     30  H42 UNL     1      43.835  19.836  51.044  1.00  0.00     0.174 HD
ATOM     31  H41 UNL     1      43.738  20.237  49.321  1.00  0.00     0.174 HD
ATOM     32  H5  UNL     1      44.242  22.540  48.622  1.00  0.00     0.213 HD
BRANCH  21  33
HETATM   33  C14 UNL     1      43.740  24.949  48.884  1.00  0.00     0.378 C 
BRANCH  33  34
HETATM   34  C15 UNL     1      44.437  24.511  47.695  1.00  0.00     0.202 C 
HETATM   35  O2  UNL     1      43.713  24.239  46.672  1.00  0.00    -0.647 OA
HETATM   36  O3  UNL     1      45.778  24.346  47.516  1.00  0.00    -0.647 OA
ENDBRANCH  33  34
ENDBRANCH  21  33
ENDBRANCH  20  21
ENDBRANCH  19  20
ENDBRANCH  18  19
ENDBRANCH  13  18
ENDBRANCH   3  11
TORSDOF 11
ENDMDL
MODEL 2
REMARK VINA RESULT: -6.323876546      1.263      2.166
REMARK  11 active torsions:
REMARK  status: ('A' for Active; 'I' for Inactive)
REMARK    1  A    between atoms: C3_3  and  C4_4 
REMARK    2  A    between atoms: C3_3  and  C6_6 
REMARK    3  A    between atoms: C3_3  and  C9_11 
REMARK    4  A    between atoms: C6_6  and  C7_7 
REMARK    5  A    between atoms: C7_7  and  S1_8 
REMARK    6  A    between atoms: N1_13  and  C11_14 
REMARK    7  A    between atoms: C11_14  and  C12_15 
REMARK    8  A    between atoms: C12_15  and  C13_16 
REMARK    9  A    between atoms: C13_16  and  N2_17 
REMARK   10  A    between atoms: N2_17  and  C14_18 
REMARK   11  A    between atoms: C14_18  and  C15_19 
ROOT
HETATM    1  C1  UNL     1      37.428  23.913  55.546  1.00  0.00     0.013 C 
HETATM    2  C2  UNL     1      38.410  24.610  55.635  1.00  0.00    -0.097 C 
HETATM    3  C3  UNL     1      39.600  25.456  55.785  1.00  0.00     0.086 C 
ENDROOT
BRANCH   3   4
HETATM    4  C4  UNL     1      40.787  24.621  56.118  1.00  0.00     0.029 C 
HETATM    5  C5  UNL     1      41.281  24.607  57.513  1.00  0.00     0.007 C 
ENDBRANCH   3   4
BRANCH   3   6
HETATM    6  C6  UNL     1      39.400  26.739  56.478  1.00  0.00     0.011 C 
BRANCH   6   7
HETATM    7  C7  UNL     1      38.114  27.247  56.922  1.00  0.00     0.076 C 
BRANCH   7   8
HETATM    8  S1  UNL     1      37.414  26.769  58.410  1.00  0.00     0.034 S 
HETATM    9  C8  UNL     1      37.451  27.842  59.764  1.00  0.00     0.132 C 
HETATM   10  O1  UNL     1      36.095  25.788  58.380  1.00  0.00    -0.254 OA
ENDBRANCH   7   8
ENDBRANCH   6   7
ENDBRANCH   3   6
BRANCH   3  11
HETATM   11  C9  UNL     1      39.896  25.898  54.333  1.00  0.00     0.069 A 
HETATM   12  C10 UNL     1      40.902  25.576  53.478  1.00  0.00     0.145 A 
HETATM   13  N1  UNL     1      40.702  26.172  52.288  1.00  0.00    -0.264 N 
HETATM   14  N6  UNL     1      39.551  26.873  52.438  1.00  0.00    -0.233 N 
HETATM   15  C19 UNL     1      38.902  27.681  51.416  1.00  0.00     0.200 C 
HETATM   16  N7  UNL     1      39.075  26.707  53.647  1.00  0.00    -0.285 N 
ATOM     17  H7  UNL     1      38.218  27.126  54.009  1.00  0.00     0.188 HD
BRANCH  13  18
HETATM   18  C11 UNL     1      41.398  26.104  51.077  1.00  0.00     0.092 C 
BRANCH  18  19
HETATM   19  C12 UNL     1      41.165  24.869  50.182  1.00  0.00     0.077 C 
BRANCH  19  20
HETATM   20  C13 UNL     1      42.251  23.887  50.515  1.00  0.00     0.272 C 
BRANCH  20  21
HETATM   21  N2  UNL     1      43.522  23.971  49.948  1.00  0.00     0.044 N 
HETATM   22  C16 UNL     1      44.521  24.325  51.039  1.00  0.00     0.369 C 
HETATM   23  C17 UNL     1      44.207  23.478  52.230  1.00  0.00     0.264 C 
HETATM   24  O4  UNL     1      44.058  23.952  53.368  1.00  0.00    -0.271 OA
HETATM   25  N3  UNL     1      44.085  22.081  52.002  1.00  0.00    -0.157 N 
HETATM   26  C18 UNL     1      43.969  21.694  50.631  1.00  0.00     0.699 C 
ATOM     27  H3  UNL     1      44.080  21.402  52.763  1.00  0.00     0.187 HD
HETATM   28  N4  UNL     1      43.857  20.448  50.275  1.00  0.00    -0.233 N 
HETATM   29  N5  UNL     1      43.981  22.690  49.579  1.00  0.00    -0.047 N 
ATOM     30  H42 UNL     1      43.848  19.747  51.016  1.00  0.00     0.174 HD
ATOM     31  H41 UNL     1      43.774  20.171  49.297  1.00  0.00     0.174 HD
ATOM     32  H5  UNL     1      44.302  22.479  48.634  1.00  0.00     0.213 HD
BRANCH  21  33
HETATM   33  C14 UNL     1      43.814  24.888  48.922  1.00  0.00     0.378 C 
BRANCH  33  34
HETATM   34  C15 UNL     1      44.490  24.453  47.719  1.00  0.00     0.202 C 
HETATM   35  O2  UNL     1      43.751  24.225  46.697  1.00  0.00    -0.647 OA
HETATM   36  O3  UNL     1      45.824  24.251  47.527  1.00  0.00    -0.647 OA
ENDBRANCH  33  34
ENDBRANCH  21  33
ENDBRANCH  20  21
ENDBRANCH  19  20
ENDBRANCH  18  19
ENDBRANCH  13  18
ENDBRANCH   3  11
TORSDOF 11
ENDMDL
MODEL 3
REMARK VINA RESULT: -6.315721223      1.611      3.657
REMARK  11 active torsions:
REMARK  status: ('A' for Active; 'I' for Inactive)
REMARK    1  A    between atoms: C3_3  and  C4_4 
REMARK    2  A    between atoms: C3_3  and  C6_6 
REMARK    3  A    between atoms: C3_3  and  C9_11 
REMARK    4  A    between atoms: C6_6  and  C7_7 
REMARK    5  A    between atoms: C7_7  and  S1_8 
REMARK    6  A    between atoms: N1_13  and  C11_14 
REMARK    7  A    between atoms: C11_14  and  C12_15 
REMARK    8  A    between atoms: C12_15  and  C13_16 
REMARK    9  A    between atoms: C13_16  and  N2_17 
REMARK   10  A    between atoms: N2_17  and  C14_18 
REMARK   11  A    between atoms: C14_18  and  C15_19 
ROOT
HETATM    1  C1  UNL     1      37.554  24.044  55.550  1.00  0.00     0.013 C 
HETATM    2  C2  UNL     1      38.560  24.713  55.566  1.00  0.00    -0.097 C 
HETATM    3  C3  UNL     1      39.777  25.530  55.625  1.00  0.00     0.086 C 
ENDROOT
BRANCH   3   4
HETATM    4  C4  UNL     1      40.930  24.705  56.081  1.00  0.00     0.029 C 
HETATM    5  C5  UNL     1      41.175  24.564  57.534  1.00  0.00     0.007 C 
ENDBRANCH   3   4
BRANCH   3   6
HETATM    6  C6  UNL     1      39.615  26.897  56.143  1.00  0.00     0.011 C 
BRANCH   6   7
HETATM    7  C7  UNL     1      38.376  27.442  56.668  1.00  0.00     0.076 C 
BRANCH   7   8
HETATM    8  S1  UNL     1      37.856  27.136  58.271  1.00  0.00     0.034 S 
HETATM    9  C8  UNL     1      36.353  26.332  58.552  1.00  0.00     0.132 C 
HETATM   10  O1  UNL     1      38.992  26.837  59.422  1.00  0.00    -0.254 OA
ENDBRANCH   7   8
ENDBRANCH   6   7
ENDBRANCH   3   6
BRANCH   3  11
HETATM   11  C9  UNL     1      40.106  25.771  54.133  1.00  0.00     0.069 A 
HETATM   12  C10 UNL     1      41.042  25.222  53.314  1.00  0.00     0.145 A 
HETATM   13  N1  UNL     1      40.906  25.711  52.068  1.00  0.00    -0.264 N 
HETATM   14  N6  UNL     1      39.866  26.579  52.145  1.00  0.00    -0.233 N 
HETATM   15  C19 UNL     1      39.317  27.357  51.045  1.00  0.00     0.200 C 
HETATM   16  N7  UNL     1      39.393  26.610  53.367  1.00  0.00    -0.285 N 
ATOM     17  H7  UNL     1      38.609  27.180  53.684  1.00  0.00     0.188 HD
BRANCH  13  18
HETATM   18  C11 UNL     1      41.564  25.420  50.870  1.00  0.00     0.092 C 
BRANCH  18  19
HETATM   19  C12 UNL     1      41.766  23.934  50.503  1.00  0.00     0.077 C 
BRANCH  19  20
HETATM   20  C13 UNL     1      43.120  23.830  49.864  1.00  0.00     0.272 C 
BRANCH  20  21
HETATM   21  N2  UNL     1      44.204  23.248  50.520  1.00  0.00     0.044 N 
HETATM   22  C16 UNL     1      45.243  22.845  49.484  1.00  0.00     0.369 C 
HETATM   23  C17 UNL     1      45.379  23.978  48.518  1.00  0.00     0.264 C 
HETATM   24  O4  UNL     1      45.305  23.823  47.289  1.00  0.00    -0.271 OA
HETATM   25  N3  UNL     1      45.601  25.265  49.077  1.00  0.00    -0.157 N 
HETATM   26  C18 UNL     1      45.360  25.372  50.482  1.00  0.00     0.699 C 
ATOM     27  H3  UNL     1      45.911  26.058  48.515  1.00  0.00     0.187 HD
HETATM   28  N4  UNL     1      45.529  26.489  51.126  1.00  0.00    -0.233 N 
HETATM   29  N5  UNL     1      44.921  24.221  51.244  1.00  0.00    -0.047 N 
ATOM     30  H42 UNL     1      45.838  27.299  50.589  1.00  0.00     0.174 HD
ATOM     31  H41 UNL     1      45.357  26.565  52.129  1.00  0.00     0.174 HD
ATOM     32  H5  UNL     1      45.119  24.121  52.240  1.00  0.00     0.213 HD
BRANCH  21  33
HETATM   33  C14 UNL     1      44.056  22.090  51.306  1.00  0.00     0.378 C 
BRANCH  33  34
HETATM   34  C15 UNL     1      44.231  22.151  52.741  1.00  0.00     0.202 C 
HETATM   35  O2  UNL     1      44.998  21.266  53.263  1.00  0.00    -0.647 OA
HETATM   36  O3  UNL     1      43.680  23.033  53.622  1.00  0.00    -0.647 OA
ENDBRANCH  33  34
ENDBRANCH  21  33
ENDBRANCH  20  21
ENDBRANCH  19  20
ENDBRANCH  18  19
ENDBRANCH  13  18
ENDBRANCH   3  11
TORSDOF 11
ENDMDL
MODEL 4
REMARK VINA RESULT: -6.294652323      1.472      3.115
REMARK  11 active torsions:
REMARK  status: ('A' for Active; 'I' for Inactive)
REMARK    1  A    between atoms: C3_3  and  C4_4 
REMARK    2  A    between atoms: C3_3  and  C6_6 
REMARK    3  A    between atoms: C3_3  and  C9_11 
REMARK    4  A    between atoms: C6_6  and  C7_7 
REMARK    5  A    between atoms: C7_7  and  S1_8 
REMARK    6  A    between atoms: N1_13  and  C11_14 
REMARK    7  A    between atoms: C11_14  and  C12_15 
REMARK    8  A    between atoms: C12_15  and  C13_16 
REMARK    9  A    between atoms: C13_16  and  N2_17 
REMARK   10  A    between atoms: N2_17  and  C14_18 
REMARK   11  A    between atoms: C14_18  and  C15_19 
ROOT
HETATM    1  C1  UNL     1      39.088  27.627  56.918  1.00  0.00     0.013 C 
HETATM    2  C2  UNL     1      39.277  26.556  56.391  1.00  0.00    -0.097 C 
HETATM    3  C3  UNL     1      39.502  25.238  55.787  1.00  0.00     0.086 C 
ENDROOT
BRANCH   3   4
HETATM    4  C4  UNL     1      38.202  24.552  55.549  1.00  0.00     0.029 C 
HETATM    5  C5  UNL     1      37.467  23.998  56.709  1.00  0.00     0.007 C 
ENDBRANCH   3   4
BRANCH   3   6
HETATM    6  C6  UNL     1      40.641  24.470  56.313  1.00  0.00     0.011 C 
BRANCH   6   7
HETATM    7  C7  UNL     1      41.683  25.014  57.166  1.00  0.00     0.076 C 
BRANCH   7   8
HETATM    8  S1  UNL     1      41.714  24.730  58.855  1.00  0.00     0.034 S 
HETATM    9  C8  UNL     1      40.769  25.716  59.913  1.00  0.00     0.132 C 
HETATM   10  O1  UNL     1      41.913  23.188  59.390  1.00  0.00    -0.254 OA
ENDBRANCH   7   8
ENDBRANCH   6   7
ENDBRANCH   3   6
BRANCH   3  11
HETATM   11  C9  UNL     1      39.964  25.588  54.353  1.00  0.00     0.069 A 
HETATM   12  C10 UNL     1      40.912  25.036  53.550  1.00  0.00     0.145 A 
HETATM   13  N1  UNL     1      40.914  25.651  52.352  1.00  0.00    -0.264 N 
HETATM   14  N6  UNL     1      39.948  26.598  52.445  1.00  0.00    -0.233 N 
HETATM   15  C19 UNL     1      39.553  27.523  51.393  1.00  0.00     0.200 C 
HETATM   16  N7  UNL     1      39.386  26.556  53.628  1.00  0.00    -0.285 N 
ATOM     17  H7  UNL     1      38.630  27.163  53.946  1.00  0.00     0.188 HD
BRANCH  13  18
HETATM   18  C11 UNL     1      41.637  25.415  51.179  1.00  0.00     0.092 C 
BRANCH  18  19
HETATM   19  C12 UNL     1      41.771  23.954  50.699  1.00  0.00     0.077 C 
BRANCH  19  20
HETATM   20  C13 UNL     1      43.098  23.851  50.005  1.00  0.00     0.272 C 
BRANCH  20  21
HETATM   21  N2  UNL     1      44.200  23.244  50.605  1.00  0.00     0.044 N 
HETATM   22  C16 UNL     1      45.207  22.881  49.523  1.00  0.00     0.369 C 
HETATM   23  C17 UNL     1      45.315  24.051  48.598  1.00  0.00     0.264 C 
HETATM   24  O4  UNL     1      45.204  23.943  47.366  1.00  0.00    -0.271 OA
HETATM   25  N3  UNL     1      45.556  25.316  49.199  1.00  0.00    -0.157 N 
HETATM   26  C18 UNL     1      45.357  25.368  50.613  1.00  0.00     0.699 C 
ATOM     27  H3  UNL     1      45.849  26.130  48.658  1.00  0.00     0.187 HD
HETATM   28  N4  UNL     1      45.547  26.459  51.295  1.00  0.00    -0.233 N 
HETATM   29  N5  UNL     1      44.940  24.189  51.344  1.00  0.00    -0.047 N 
ATOM     30  H42 UNL     1      45.840  27.290  50.780  1.00  0.00     0.174 HD
ATOM     31  H41 UNL     1      45.405  26.497  52.304  1.00  0.00     0.174 HD
ATOM     32  H5  UNL     1      45.168  24.051  52.329  1.00  0.00     0.213 HD
BRANCH  21  33
HETATM   33  C14 UNL     1      44.075  22.057  51.350  1.00  0.00     0.378 C 
BRANCH  33  34
HETATM   34  C15 UNL     1      44.302  22.061  52.779  1.00  0.00     0.202 C 
HETATM   35  O2  UNL     1      43.628  22.909  53.465  1.00  0.00    -0.647 OA
HETATM   36  O3  UNL     1      45.149  21.274  53.500  1.00  0.00    -0.647 OA
ENDBRANCH  33  34
ENDBRANCH  21  33
ENDBRANCH  20  21
ENDBRANCH  19  20
ENDBRANCH  18  19
ENDBRANCH  13  18
ENDBRANCH   3  11
TORSDOF 11
ENDMDL
MODEL 5
REMARK VINA RESULT: -6.190646789      1.815      2.554
REMARK  11 active torsions:
REMARK  status: ('A' for Active; 'I' for Inactive)
REMARK    1  A    between atoms: C3_3  and  C4_4 
REMARK    2  A    between atoms: C3_3  and  C6_6 
REMARK    3  A    between atoms: C3_3  and  C9_11 
REMARK    4  A    between atoms: C6_6  and  C7_7 
REMARK    5  A    between atoms: C7_7  and  S1_8 
REMARK    6  A    between atoms: N1_13  and  C11_14 
REMARK    7  A    between atoms: C11_14  and  C12_15 
REMARK    8  A    between atoms: C12_15  and  C13_16 
REMARK    9  A    between atoms: C13_16  and  N2_17 
REMARK   10  A    between atoms: N2_17  and  C14_18 
REMARK   11  A    between atoms: C14_18  and  C15_19 
ROOT
HETATM    1  C1  UNL     1      37.506  23.958  55.636  1.00  0.00     0.013 C 
HETATM    2  C2  UNL     1      38.472  24.682  55.671  1.00  0.00    -0.097 C 
HETATM    3  C3  UNL     1      39.643  25.562  55.754  1.00  0.00     0.086 C 
ENDROOT
BRANCH   3   4
HETATM    4  C4  UNL     1      40.865  24.766  56.051  1.00  0.00     0.029 C 
HETATM    5  C5  UNL     1      41.133  24.366  57.451  1.00  0.00     0.007 C 
ENDBRANCH   3   4
BRANCH   3   6
HETATM    6  C6  UNL     1      39.437  26.853  56.431  1.00  0.00     0.011 C 
BRANCH   6   7
HETATM    7  C7  UNL     1      40.463  27.864  56.613  1.00  0.00     0.076 C 
BRANCH   7   8
HETATM    8  S1  UNL     1      40.331  29.425  55.922  1.00  0.00     0.034 S 
HETATM    9  C8  UNL     1      41.615  30.566  56.116  1.00  0.00     0.132 C 
HETATM   10  O1  UNL     1      39.505  29.595  54.511  1.00  0.00    -0.254 OA
ENDBRANCH   7   8
ENDBRANCH   6   7
ENDBRANCH   3   6
BRANCH   3  11
HETATM   11  C9  UNL     1      39.865  25.984  54.283  1.00  0.00     0.069 A 
HETATM   12  C10 UNL     1      40.843  25.671  53.391  1.00  0.00     0.145 A 
HETATM   13  N1  UNL     1      40.577  26.239  52.200  1.00  0.00    -0.264 N 
HETATM   14  N6  UNL     1      39.414  26.912  52.387  1.00  0.00    -0.233 N 
HETATM   15  C19 UNL     1      38.701  27.683  51.379  1.00  0.00     0.200 C 
HETATM   16  N7  UNL     1      38.994  26.758  53.618  1.00  0.00    -0.285 N 
ATOM     17  H7  UNL     1      38.142  27.160  54.009  1.00  0.00     0.188 HD
BRANCH  13  18
HETATM   18  C11 UNL     1      41.222  26.166  50.963  1.00  0.00     0.092 C 
BRANCH  18  19
HETATM   19  C12 UNL     1      41.048  24.874  50.136  1.00  0.00     0.077 C 
BRANCH  19  20
HETATM   20  C13 UNL     1      42.182  23.966  50.516  1.00  0.00     0.272 C 
BRANCH  20  21
HETATM   21  N2  UNL     1      43.429  24.043  49.899  1.00  0.00     0.044 N 
HETATM   22  C16 UNL     1      44.464  24.449  50.937  1.00  0.00     0.369 C 
HETATM   23  C17 UNL     1      44.206  23.643  52.170  1.00  0.00     0.264 C 
HETATM   24  O4  UNL     1      44.092  24.158  53.294  1.00  0.00    -0.271 OA
HETATM   25  N3  UNL     1      44.093  22.238  51.998  1.00  0.00    -0.157 N 
HETATM   26  C18 UNL     1      43.930  21.798  50.648  1.00  0.00     0.699 C 
ATOM     27  H3  UNL     1      44.125  21.587  52.784  1.00  0.00     0.187 HD
HETATM   28  N4  UNL     1      43.821  20.539  50.342  1.00  0.00    -0.233 N 
HETATM   29  N5  UNL     1      43.891  22.755  49.560  1.00  0.00    -0.047 N 
ATOM     30  H42 UNL     1      43.849  19.866  51.108  1.00  0.00     0.174 HD
ATOM     31  H41 UNL     1      43.705  20.225  49.379  1.00  0.00     0.174 HD
ATOM     32  H5  UNL     1      44.178  22.512  48.612  1.00  0.00     0.213 HD
BRANCH  21  33
HETATM   33  C14 UNL     1      43.671  24.925  48.830  1.00  0.00     0.378 C 
BRANCH  33  34
HETATM   34  C15 UNL     1      44.435  24.492  47.680  1.00  0.00     0.202 C 
HETATM   35  O2  UNL     1      43.767  24.192  46.627  1.00  0.00    -0.647 OA
HETATM   36  O3  UNL     1      45.786  24.358  47.566  1.00  0.00    -0.647 OA
ENDBRANCH  33  34
ENDBRANCH  21  33
ENDBRANCH  20  21
ENDBRANCH  19  20
ENDBRANCH  18  19
ENDBRANCH  13  18
ENDBRANCH   3  11
TORSDOF 11
ENDMDL
