MODEL 1
REMARK VINA RESULT: -8.582390732      0.000      0.000
REMARK  12 active torsions:
REMARK  status: ('A' for Active; 'I' for Inactive)
REMARK       I    between atoms: C2_2  and  N1_4 
REMARK    1  A    between atoms: N1_4  and  C3_6 
REMARK    2  A    between atoms: C3_6  and  C4_7 
REMARK    3  A    between atoms: C3_6  and  C8_21 
REMARK    4  A    between atoms: C4_7  and  C5_8 
REMARK    5  A    between atoms: C5_8  and  C6_9 
REMARK    6  A    between atoms: C6_9  and  N2_10 
REMARK       I    between atoms: C7_12  and  N4_14 
REMARK    7  A    between atoms: N4_14  and  N5_16 
REMARK       I    between atoms: C8_21  and  N7_23 
REMARK    8  A    between atoms: N7_23  and  C9_25 
REMARK    9  A    between atoms: C9_25  and  C10_26 
REMARK   10  A    between atoms: N8_30  and  C14_31 
REMARK   11  A    between atoms: C14_31  and  C15_32 
REMARK   12  A    between atoms: C15_32  and  C16_33 
ROOT
HETATM    1  C3  UNL     1      43.223  23.824  49.709  1.00  0.00     0.176 C 
ENDROOT
BRANCH   1   2
HETATM    2  N1  UNL     1      44.060  24.811  49.068  1.00  0.00    -0.348 N 
HETATM    3  C2  UNL     1      44.276  24.963  47.694  1.00  0.00     0.214 C 
HETATM    4  C1  UNL     1      45.178  26.034  47.160  1.00  0.00     0.117 C 
HETATM    5  O1  UNL     1      43.726  24.212  46.864  1.00  0.00    -0.274 OA
ATOM      6  H1  UNL     1      44.545  25.466  49.681  1.00  0.00     0.163 HD
ENDBRANCH   1   2
BRANCH   1   7
HETATM    7  C4  UNL     1      43.954  23.150  50.814  1.00  0.00     0.036 C 
BRANCH   7   8
HETATM    8  C5  UNL     1      44.628  21.863  50.366  1.00  0.00     0.022 C 
BRANCH   8   9
HETATM    9  C6  UNL     1      44.230  20.703  51.252  1.00  0.00     0.122 C 
BRANCH   9  10
HETATM   10  N2  UNL     1      45.215  20.496  52.289  1.00  0.00    -0.363 N 
HETATM   11  C7  UNL     1      45.884  19.383  52.379  1.00  0.00     0.204 C 
HETATM   12  N3  UNL     1      45.648  18.341  51.440  1.00  0.00    -0.062 NA
HETATM   13  N4  UNL     1      46.843  19.193  53.394  1.00  0.00    -0.260 N 
ATOM     14  H4  UNL     1      47.680  19.774  53.421  1.00  0.00     0.191 HD
ATOM     15  H2  UNL     1      45.389  21.239  52.966  1.00  0.00     0.162 HD
BRANCH  13  16
HETATM   16  N5  UNL     1      46.648  18.217  54.355  1.00  0.00    -0.247 N 
HETATM   17  N6  UNL     1      45.967  17.183  54.077  1.00  0.00    -0.331 N 
ATOM     18  H62 UNL     1      45.572  17.087  53.142  1.00  0.00     0.178 HD
ATOM     19  H61 UNL     1      45.823  16.463  54.785  1.00  0.00     0.178 HD
ATOM     20  H5  UNL     1      47.051  18.328  55.285  1.00  0.00     0.207 HD
ENDBRANCH  13  16
ENDBRANCH   9  10
ENDBRANCH   8   9
ENDBRANCH   7   8
ENDBRANCH   1   7
BRANCH   1  21
HETATM   21  C8  UNL     1      41.992  24.468  50.285  1.00  0.00     0.240 C 
HETATM   22  O2  UNL     1      40.845  24.147  49.911  1.00  0.00    -0.271 OA
HETATM   23  N7  UNL     1      42.131  25.466  51.280  1.00  0.00    -0.355 N 
ATOM     24  H7  UNL     1      43.061  25.739  51.600  1.00  0.00     0.162 HD
BRANCH  23  25
HETATM   25  C9  UNL     1      40.973  26.093  51.838  1.00  0.00     0.162 C 
BRANCH  25  26
HETATM   26  C10 UNL     1      40.707  25.709  53.256  1.00  0.00    -0.025 A 
HETATM   27  C11 UNL     1      41.559  24.873  53.942  1.00  0.00     0.011 A 
HETATM   28  C12 UNL     1      41.243  24.551  55.269  1.00  0.00     0.018 A 
HETATM   29  C13 UNL     1      40.115  25.061  55.862  1.00  0.00     0.090 A 
HETATM   30  N8  UNL     1      39.282  25.878  55.194  1.00  0.00    -0.365 N 
HETATM   31  C22 UNL     1      39.588  26.181  53.926  1.00  0.00     0.099 A 
BRANCH  30  32
HETATM   32  C14 UNL     1      38.089  26.407  55.852  1.00  0.00     0.133 C 
BRANCH  32  33
HETATM   33  C15 UNL     1      38.182  26.271  57.347  1.00  0.00     0.077 C 
BRANCH  33  34
HETATM   34  C16 UNL     1      37.015  25.483  57.816  1.00  0.00     0.012 A 
HETATM   35  C17 UNL     1      36.944  24.108  57.550  1.00  0.00     0.025 A 
HETATM   36  C18 UNL     1      35.889  23.345  57.960  1.00  0.00     0.003 A 
HETATM   37  C19 UNL     1      34.882  23.994  58.657  1.00  0.00     0.017 A 
HETATM   38  C20 UNL     1      34.932  25.331  58.926  1.00  0.00     0.090 A 
HETATM   39  N9  UNL     1      36.012  26.034  58.488  1.00  0.00    -0.364 N 
HETATM   40  C21 UNL     1      36.045  27.450  58.781  1.00  0.00     0.155 C 
ENDBRANCH  33  34
ENDBRANCH  32  33
ENDBRANCH  30  32
ENDBRANCH  25  26
ENDBRANCH  23  25
ENDBRANCH   1  21
TORSDOF 12
ENDMDL
MODEL 2
REMARK VINA RESULT: -8.473201262      1.859      2.839
REMARK  12 active torsions:
REMARK  status: ('A' for Active; 'I' for Inactive)
REMARK       I    between atoms: C2_2  and  N1_4 
REMARK    1  A    between atoms: N1_4  and  C3_6 
REMARK    2  A    between atoms: C3_6  and  C4_7 
REMARK    3  A    between atoms: C3_6  and  C8_21 
REMARK    4  A    between atoms: C4_7  and  C5_8 
REMARK    5  A    between atoms: C5_8  and  C6_9 
REMARK    6  A    between atoms: C6_9  and  N2_10 
REMARK       I    between atoms: C7_12  and  N4_14 
REMARK    7  A    between atoms: N4_14  and  N5_16 
REMARK       I    between atoms: C8_21  and  N7_23 
REMARK    8  A    between atoms: N7_23  and  C9_25 
REMARK    9  A    between atoms: C9_25  and  C10_26 
REMARK   10  A    between atoms: N8_30  and  C14_31 
REMARK   11  A    between atoms: C14_31  and  C15_32 
REMARK   12  A    between atoms: C15_32  and  C16_33 
ROOT
HETATM    1  C3  UNL     1      44.562  23.586  50.033  1.00  0.00     0.176 C 
ENDROOT
BRANCH   1   2
HETATM    2  N1  UNL     1      45.403  24.467  49.257  1.00  0.00    -0.348 N 
HETATM    3  C2  UNL     1      45.937  24.217  47.988  1.00  0.00     0.214 C 
HETATM    4  C1  UNL     1      46.803  25.224  47.294  1.00  0.00     0.117 C 
HETATM    5  O1  UNL     1      45.712  23.146  47.389  1.00  0.00    -0.274 OA
ATOM      6  H1  UNL     1      45.633  25.367  49.679  1.00  0.00     0.163 HD
ENDBRANCH   1   2
BRANCH   1   7
HETATM    7  C4  UNL     1      44.805  23.770  51.487  1.00  0.00     0.036 C 
BRANCH   7   8
HETATM    8  C5  UNL     1      44.135  22.696  52.329  1.00  0.00     0.022 C 
BRANCH   8   9
HETATM    9  C6  UNL     1      44.582  21.314  51.905  1.00  0.00     0.122 C 
BRANCH   9  10
HETATM   10  N2  UNL     1      45.554  20.788  52.837  1.00  0.00    -0.363 N 
HETATM   11  C7  UNL     1      46.060  19.597  52.691  1.00  0.00     0.204 C 
HETATM   12  N3  UNL     1      45.654  18.789  51.594  1.00  0.00    -0.062 NA
HETATM   13  N4  UNL     1      47.008  19.095  53.606  1.00  0.00    -0.260 N 
ATOM     14  H4  UNL     1      47.920  19.543  53.693  1.00  0.00     0.191 HD
ATOM     15  H2  UNL     1      45.849  21.363  53.627  1.00  0.00     0.162 HD
BRANCH  13  16
HETATM   16  N5  UNL     1      46.700  17.994  54.384  1.00  0.00    -0.247 N 
HETATM   17  N6  UNL     1      45.807  17.178  54.002  1.00  0.00    -0.331 N 
ATOM     18  H62 UNL     1      45.326  17.348  53.119  1.00  0.00     0.178 HD
ATOM     19  H61 UNL     1      45.581  16.366  54.576  1.00  0.00     0.178 HD
ATOM     20  H5  UNL     1      47.191  17.838  55.264  1.00  0.00     0.207 HD
ENDBRANCH  13  16
ENDBRANCH   9  10
ENDBRANCH   8   9
ENDBRANCH   7   8
ENDBRANCH   1   7
BRANCH   1  21
HETATM   21  C8  UNL     1      43.110  23.866  49.760  1.00  0.00     0.240 C 
HETATM   22  O2  UNL     1      42.298  22.950  49.518  1.00  0.00    -0.271 OA
HETATM   23  N7  UNL     1      42.645  25.203  49.778  1.00  0.00    -0.355 N 
ATOM     24  H7  UNL     1      43.295  25.965  49.976  1.00  0.00     0.162 HD
BRANCH  23  25
HETATM   25  C9  UNL     1      41.268  25.491  49.519  1.00  0.00     0.162 C 
BRANCH  25  26
HETATM   26  C10 UNL     1      40.575  26.179  50.648  1.00  0.00    -0.025 A 
HETATM   27  C11 UNL     1      39.459  26.955  50.435  1.00  0.00     0.011 A 
HETATM   28  C12 UNL     1      38.863  27.574  51.542  1.00  0.00     0.018 A 
HETATM   29  C13 UNL     1      39.384  27.405  52.801  1.00  0.00     0.090 A 
HETATM   30  N8  UNL     1      40.474  26.647  53.011  1.00  0.00    -0.365 N 
HETATM   31  C22 UNL     1      41.040  26.059  51.950  1.00  0.00     0.099 A 
BRANCH  30  32
HETATM   32  C14 UNL     1      41.004  26.484  54.364  1.00  0.00     0.133 C 
BRANCH  32  33
HETATM   33  C15 UNL     1      41.057  25.035  54.761  1.00  0.00     0.077 C 
BRANCH  33  34
HETATM   34  C16 UNL     1      39.941  24.770  55.703  1.00  0.00     0.012 A 
HETATM   35  C17 UNL     1      38.659  24.489  55.211  1.00  0.00     0.025 A 
HETATM   36  C18 UNL     1      37.604  24.241  56.040  1.00  0.00     0.003 A 
HETATM   37  C19 UNL     1      37.857  24.281  57.403  1.00  0.00     0.017 A 
HETATM   38  C20 UNL     1      39.098  24.553  57.902  1.00  0.00     0.090 A 
HETATM   39  N9  UNL     1      40.106  24.790  57.020  1.00  0.00    -0.364 N 
HETATM   40  C21 UNL     1      41.413  25.079  57.569  1.00  0.00     0.155 C 
ENDBRANCH  33  34
ENDBRANCH  32  33
ENDBRANCH  30  32
ENDBRANCH  25  26
ENDBRANCH  23  25
ENDBRANCH   1  21
TORSDOF 12
ENDMDL
MODEL 3
REMARK VINA RESULT: -8.412301056      1.097      1.487
REMARK  12 active torsions:
REMARK  status: ('A' for Active; 'I' for Inactive)
REMARK       I    between atoms: C2_2  and  N1_4 
REMARK    1  A    between atoms: N1_4  and  C3_6 
REMARK    2  A    between atoms: C3_6  and  C4_7 
REMARK    3  A    between atoms: C3_6  and  C8_21 
REMARK    4  A    between atoms: C4_7  and  C5_8 
REMARK    5  A    between atoms: C5_8  and  C6_9 
REMARK    6  A    between atoms: C6_9  and  N2_10 
REMARK       I    between atoms: C7_12  and  N4_14 
REMARK    7  A    between atoms: N4_14  and  N5_16 
REMARK       I    between atoms: C8_21  and  N7_23 
REMARK    8  A    between atoms: N7_23  and  C9_25 
REMARK    9  A    between atoms: C9_25  and  C10_26 
REMARK   10  A    between atoms: N8_30  and  C14_31 
REMARK   11  A    between atoms: C14_31  and  C15_32 
REMARK   12  A    between atoms: C15_32  and  C16_33 
ROOT
HETATM    1  C3  UNL     1      43.156  24.090  49.791  1.00  0.00     0.176 C 
ENDROOT
BRANCH   1   2
HETATM    2  N1  UNL     1      44.445  24.188  49.146  1.00  0.00    -0.348 N 
HETATM    3  C2  UNL     1      44.692  24.273  47.772  1.00  0.00     0.214 C 
HETATM    4  C1  UNL     1      46.088  24.365  47.235  1.00  0.00     0.117 C 
HETATM    5  O1  UNL     1      43.759  24.273  46.944  1.00  0.00    -0.274 OA
ATOM      6  H1  UNL     1      45.262  24.195  49.758  1.00  0.00     0.163 HD
ENDBRANCH   1   2
BRANCH   1   7
HETATM    7  C4  UNL     1      43.127  22.947  50.740  1.00  0.00     0.036 C 
BRANCH   7   8
HETATM    8  C5  UNL     1      44.393  22.108  50.679  1.00  0.00     0.022 C 
BRANCH   8   9
HETATM    9  C6  UNL     1      44.186  20.762  51.339  1.00  0.00     0.122 C 
BRANCH   9  10
HETATM   10  N2  UNL     1      45.184  20.541  52.362  1.00  0.00    -0.363 N 
HETATM   11  C7  UNL     1      45.879  19.441  52.407  1.00  0.00     0.204 C 
HETATM   12  N3  UNL     1      45.659  18.428  51.433  1.00  0.00    -0.062 NA
HETATM   13  N4  UNL     1      46.851  19.238  53.408  1.00  0.00    -0.260 N 
ATOM     14  H4  UNL     1      47.675  19.837  53.449  1.00  0.00     0.191 HD
ATOM     15  H2  UNL     1      45.347  21.264  53.064  1.00  0.00     0.162 HD
BRANCH  13  16
HETATM   16  N5  UNL     1      46.685  18.224  54.335  1.00  0.00    -0.247 N 
HETATM   17  N6  UNL     1      46.016  17.191  54.030  1.00  0.00    -0.331 N 
ATOM     18  H62 UNL     1      45.606  17.123  53.098  1.00  0.00     0.178 HD
ATOM     19  H61 UNL     1      45.894  16.443  54.713  1.00  0.00     0.178 HD
ATOM     20  H5  UNL     1      47.102  18.307  55.262  1.00  0.00     0.207 HD
ENDBRANCH  13  16
ENDBRANCH   9  10
ENDBRANCH   8   9
ENDBRANCH   7   8
ENDBRANCH   1   7
BRANCH   1  21
HETATM   21  C8  UNL     1      42.854  25.347  50.560  1.00  0.00     0.240 C 
HETATM   22  O2  UNL     1      42.950  26.476  50.039  1.00  0.00    -0.271 OA
HETATM   23  N7  UNL     1      42.449  25.252  51.914  1.00  0.00    -0.355 N 
ATOM     24  H7  UNL     1      42.364  24.336  52.356  1.00  0.00     0.162 HD
BRANCH  23  25
HETATM   25  C9  UNL     1      42.159  26.434  52.664  1.00  0.00     0.162 C 
BRANCH  25  26
HETATM   26  C10 UNL     1      40.777  26.466  53.227  1.00  0.00    -0.025 A 
HETATM   27  C11 UNL     1      39.889  27.460  52.886  1.00  0.00     0.011 A 
HETATM   28  C12 UNL     1      38.610  27.429  53.456  1.00  0.00     0.018 A 
HETATM   29  C13 UNL     1      38.258  26.429  54.329  1.00  0.00     0.090 A 
HETATM   30  N8  UNL     1      39.124  25.456  54.663  1.00  0.00    -0.365 N 
HETATM   31  C22 UNL     1      40.345  25.492  54.116  1.00  0.00     0.099 A 
BRANCH  30  32
HETATM   32  C14 UNL     1      38.721  24.403  55.594  1.00  0.00     0.133 C 
BRANCH  32  33
HETATM   33  C15 UNL     1      38.825  24.864  57.021  1.00  0.00     0.077 C 
BRANCH  33  34
HETATM   34  C16 UNL     1      37.462  24.863  57.611  1.00  0.00     0.012 A 
HETATM   35  C17 UNL     1      36.746  23.663  57.719  1.00  0.00     0.025 A 
HETATM   36  C18 UNL     1      35.491  23.614  58.252  1.00  0.00     0.003 A 
HETATM   37  C19 UNL     1      34.950  24.815  58.686  1.00  0.00     0.017 A 
HETATM   38  C20 UNL     1      35.631  25.994  58.589  1.00  0.00     0.090 A 
HETATM   39  N9  UNL     1      36.879  25.971  58.048  1.00  0.00    -0.364 N 
HETATM   40  C21 UNL     1      37.582  27.232  57.952  1.00  0.00     0.155 C 
ENDBRANCH  33  34
ENDBRANCH  32  33
ENDBRANCH  30  32
ENDBRANCH  25  26
ENDBRANCH  23  25
ENDBRANCH   1  21
TORSDOF 12
ENDMDL
MODEL 4
REMARK VINA RESULT: -8.410627792      1.953      3.281
REMARK  12 active torsions:
REMARK  status: ('A' for Active; 'I' for Inactive)
REMARK       I    between atoms: C2_2  and  N1_4 
REMARK    1  A    between atoms: N1_4  and  C3_6 
REMARK    2  A    between atoms: C3_6  and  C4_7 
REMARK    3  A    between atoms: C3_6  and  C8_21 
REMARK    4  A    between atoms: C4_7  and  C5_8 
REMARK    5  A    between atoms: C5_8  and  C6_9 
REMARK    6  A    between atoms: C6_9  and  N2_10 
REMARK       I    between atoms: C7_12  and  N4_14 
REMARK    7  A    between atoms: N4_14  and  N5_16 
REMARK       I    between atoms: C8_21  and  N7_23 
REMARK    8  A    between atoms: N7_23  and  C9_25 
REMARK    9  A    between atoms: C9_25  and  C10_26 
REMARK   10  A    between atoms: N8_30  and  C14_31 
REMARK   11  A    between atoms: C14_31  and  C15_32 
REMARK   12  A    between atoms: C15_32  and  C16_33 
ROOT
HETATM    1  C3  UNL     1      44.937  24.068  49.815  1.00  0.00     0.176 C 
ENDROOT
BRANCH   1   2
HETATM    2  N1  UNL     1      45.113  24.704  51.100  1.00  0.00    -0.348 N 
HETATM    3  C2  UNL     1      45.801  25.894  51.361  1.00  0.00     0.214 C 
HETATM    4  C1  UNL     1      45.911  26.443  52.750  1.00  0.00     0.117 C 
HETATM    5  O1  UNL     1      46.349  26.540  50.445  1.00  0.00    -0.274 OA
ATOM      6  H1  UNL     1      44.692  24.235  51.903  1.00  0.00     0.163 HD
ENDBRANCH   1   2
BRANCH   1   7
HETATM    7  C4  UNL     1      44.865  22.591  49.964  1.00  0.00     0.036 C 
BRANCH   7   8
HETATM    8  C5  UNL     1      44.013  22.166  51.149  1.00  0.00     0.022 C 
BRANCH   8   9
HETATM    9  C6  UNL     1      44.172  20.688  51.433  1.00  0.00     0.122 C 
BRANCH   9  10
HETATM   10  N2  UNL     1      45.185  20.473  52.442  1.00  0.00    -0.363 N 
HETATM   11  C7  UNL     1      45.909  19.391  52.458  1.00  0.00     0.204 C 
HETATM   12  N3  UNL     1      45.706  18.393  51.465  1.00  0.00    -0.062 NA
HETATM   13  N4  UNL     1      46.894  19.192  53.446  1.00  0.00    -0.260 N 
ATOM     14  H4  UNL     1      47.702  19.811  53.493  1.00  0.00     0.191 HD
ATOM     15  H2  UNL     1      45.335  21.184  53.158  1.00  0.00     0.162 HD
BRANCH  13  16
HETATM   16  N5  UNL     1      46.764  18.155  54.352  1.00  0.00    -0.247 N 
HETATM   17  N6  UNL     1      45.903  17.244  54.153  1.00  0.00    -0.331 N 
ATOM     18  H62 UNL     1      45.316  17.292  53.321  1.00  0.00     0.178 HD
ATOM     19  H61 UNL     1      45.807  16.480  54.821  1.00  0.00     0.178 HD
ATOM     20  H5  UNL     1      47.359  18.122  55.179  1.00  0.00     0.207 HD
ENDBRANCH  13  16
ENDBRANCH   9  10
ENDBRANCH   8   9
ENDBRANCH   7   8
ENDBRANCH   1   7
BRANCH   1  21
HETATM   21  C8  UNL     1      43.665  24.536  49.164  1.00  0.00     0.240 C 
HETATM   22  O2  UNL     1      43.430  24.328  47.956  1.00  0.00    -0.271 OA
HETATM   23  N7  UNL     1      42.704  25.232  49.936  1.00  0.00    -0.355 N 
ATOM     24  H7  UNL     1      42.879  25.409  50.926  1.00  0.00     0.162 HD
BRANCH  23  25
HETATM   25  C9  UNL     1      41.489  25.689  49.335  1.00  0.00     0.162 C 
BRANCH  25  26
HETATM   26  C10 UNL     1      40.579  26.397  50.283  1.00  0.00    -0.025 A 
HETATM   27  C11 UNL     1      39.535  27.170  49.829  1.00  0.00     0.011 A 
HETATM   28  C12 UNL     1      38.724  27.809  50.776  1.00  0.00     0.018 A 
HETATM   29  C13 UNL     1      38.970  27.663  52.118  1.00  0.00     0.090 A 
HETATM   30  N8  UNL     1      39.989  26.907  52.565  1.00  0.00    -0.365 N 
HETATM   31  C22 UNL     1      40.761  26.300  51.655  1.00  0.00     0.099 A 
BRANCH  30  32
HETATM   32  C14 UNL     1      40.225  26.768  54.001  1.00  0.00     0.133 C 
BRANCH  32  33
HETATM   33  C15 UNL     1      40.531  25.343  54.370  1.00  0.00     0.077 C 
BRANCH  33  34
HETATM   34  C16 UNL     1      39.624  24.944  55.476  1.00  0.00     0.012 A 
HETATM   35  C17 UNL     1      38.301  24.570  55.198  1.00  0.00     0.025 A 
HETATM   36  C18 UNL     1      37.433  24.198  56.182  1.00  0.00     0.003 A 
HETATM   37  C19 UNL     1      37.918  24.206  57.480  1.00  0.00     0.017 A 
HETATM   38  C20 UNL     1      39.202  24.567  57.772  1.00  0.00     0.090 A 
HETATM   39  N9  UNL     1      40.016  24.928  56.743  1.00  0.00    -0.364 N 
HETATM   40  C21 UNL     1      41.372  25.309  57.073  1.00  0.00     0.155 C 
ENDBRANCH  33  34
ENDBRANCH  32  33
ENDBRANCH  30  32
ENDBRANCH  25  26
ENDBRANCH  23  25
ENDBRANCH   1  21
TORSDOF 12
ENDMDL
MODEL 5
REMARK VINA RESULT: -8.206298214      1.554      1.928
REMARK  12 active torsions:
REMARK  status: ('A' for Active; 'I' for Inactive)
REMARK       I    between atoms: C2_2  and  N1_4 
REMARK    1  A    between atoms: N1_4  and  C3_6 
REMARK    2  A    between atoms: C3_6  and  C4_7 
REMARK    3  A    between atoms: C3_6  and  C8_21 
REMARK    4  A    between atoms: C4_7  and  C5_8 
REMARK    5  A    between atoms: C5_8  and  C6_9 
REMARK    6  A    between atoms: C6_9  and  N2_10 
REMARK       I    between atoms: C7_12  and  N4_14 
REMARK    7  A    between atoms: N4_14  and  N5_16 
REMARK       I    between atoms: C8_21  and  N7_23 
REMARK    8  A    between atoms: N7_23  and  C9_25 
REMARK    9  A    between atoms: C9_25  and  C10_26 
REMARK   10  A    between atoms: N8_30  and  C14_31 
REMARK   11  A    between atoms: C14_31  and  C15_32 
REMARK   12  A    between atoms: C15_32  and  C16_33 
ROOT
HETATM    1  C3  UNL     1      44.460  23.618  48.906  1.00  0.00     0.176 C 
ENDROOT
BRANCH   1   2
HETATM    2  N1  UNL     1      45.339  24.483  48.154  1.00  0.00    -0.348 N 
HETATM    3  C2  UNL     1      46.021  24.166  46.973  1.00  0.00     0.214 C 
HETATM    4  C1  UNL     1      46.909  25.164  46.294  1.00  0.00     0.117 C 
HETATM    5  O1  UNL     1      45.914  23.042  46.444  1.00  0.00    -0.274 OA
ATOM      6  H1  UNL     1      45.478  25.424  48.522  1.00  0.00     0.163 HD
ENDBRANCH   1   2
BRANCH   1   7
HETATM    7  C4  UNL     1      45.181  22.999  50.049  1.00  0.00     0.036 C 
BRANCH   7   8
HETATM    8  C5  UNL     1      45.179  21.480  49.983  1.00  0.00     0.022 C 
BRANCH   8   9
HETATM    9  C6  UNL     1      44.467  20.884  51.178  1.00  0.00     0.122 C 
BRANCH   9  10
HETATM   10  N2  UNL     1      45.408  20.601  52.238  1.00  0.00    -0.363 N 
HETATM   11  C7  UNL     1      45.952  19.425  52.368  1.00  0.00     0.204 C 
HETATM   12  N3  UNL     1      45.619  18.390  51.451  1.00  0.00    -0.062 NA
HETATM   13  N4  UNL     1      46.869  19.160  53.406  1.00  0.00    -0.260 N 
ATOM     14  H4  UNL     1      47.763  19.649  53.433  1.00  0.00     0.191 HD
ATOM     15  H2  UNL     1      45.651  21.339  52.900  1.00  0.00     0.162 HD
BRANCH  13  16
HETATM   16  N5  UNL     1      46.555  18.237  54.386  1.00  0.00    -0.247 N 
HETATM   17  N6  UNL     1      45.861  17.215  54.095  1.00  0.00    -0.331 N 
ATOM     18  H62 UNL     1      45.544  17.090  53.134  1.00  0.00     0.178 HD
ATOM     19  H61 UNL     1      45.630  16.535  54.818  1.00  0.00     0.178 HD
ATOM     20  H5  UNL     1      46.880  18.377  55.343  1.00  0.00     0.207 HD
ENDBRANCH  13  16
ENDBRANCH   9  10
ENDBRANCH   8   9
ENDBRANCH   7   8
ENDBRANCH   1   7
BRANCH   1  21
HETATM   21  C8  UNL     1      43.294  24.394  49.452  1.00  0.00     0.240 C 
HETATM   22  O2  UNL     1      43.146  25.611  49.217  1.00  0.00    -0.271 OA
HETATM   23  N7  UNL     1      42.333  23.733  50.254  1.00  0.00    -0.355 N 
ATOM     24  H7  UNL     1      42.437  22.737  50.455  1.00  0.00     0.162 HD
BRANCH  23  25
HETATM   25  C9  UNL     1      41.218  24.454  50.786  1.00  0.00     0.162 C 
BRANCH  25  26
HETATM   26  C10 UNL     1      41.391  24.862  52.212  1.00  0.00    -0.025 A 
HETATM   27  C11 UNL     1      42.292  24.223  53.034  1.00  0.00     0.011 A 
HETATM   28  C12 UNL     1      42.398  24.656  54.362  1.00  0.00     0.018 A 
HETATM   29  C13 UNL     1      41.622  25.691  54.823  1.00  0.00     0.090 A 
HETATM   30  N8  UNL     1      40.742  26.316  54.022  1.00  0.00    -0.365 N 
HETATM   31  C22 UNL     1      40.644  25.897  52.754  1.00  0.00     0.099 A 
BRANCH  30  32
HETATM   32  C14 UNL     1      39.931  27.416  54.540  1.00  0.00     0.133 C 
BRANCH  32  33
HETATM   33  C15 UNL     1      38.462  27.125  54.404  1.00  0.00     0.077 C 
BRANCH  33  34
HETATM   34  C16 UNL     1      38.071  26.189  55.488  1.00  0.00     0.012 A 
HETATM   35  C17 UNL     1      37.938  24.819  55.218  1.00  0.00     0.025 A 
HETATM   36  C18 UNL     1      37.578  23.923  56.183  1.00  0.00     0.003 A 
HETATM   37  C19 UNL     1      37.348  24.430  57.452  1.00  0.00     0.017 A 
HETATM   38  C20 UNL     1      37.472  25.760  57.735  1.00  0.00     0.090 A 
HETATM   39  N9  UNL     1      37.834  26.599  56.728  1.00  0.00    -0.364 N 
HETATM   40  C21 UNL     1      37.957  28.005  57.048  1.00  0.00     0.155 C 
ENDBRANCH  33  34
ENDBRANCH  32  33
ENDBRANCH  30  32
ENDBRANCH  25  26
ENDBRANCH  23  25
ENDBRANCH   1  21
TORSDOF 12
ENDMDL
