MODEL 1
REMARK VINA RESULT: -6.400389271      0.000      0.000
REMARK  13 active torsions:
REMARK  status: ('A' for Active; 'I' for Inactive)
REMARK    1  A    between atoms: C3_3  and  C4_4 
REMARK    2  A    between atoms: C3_3  and  N5_29 
REMARK    3  A    between atoms: C4_4  and  C5_5 
REMARK    4  A    between atoms: C9_16  and  N4_17 
REMARK       I    between atoms: N4_17  and  C10_19 
REMARK    5  A    between atoms: C10_19  and  O2_21 
REMARK    6  A    between atoms: O2_21  and  C11_22 
REMARK    7  A    between atoms: C11_22  and  C12_23 
REMARK    8  A    between atoms: N5_29  and  C19_31 
REMARK    9  A    between atoms: N5_29  and  C20_33 
REMARK   10  A    between atoms: C20_33  and  C21_34 
REMARK   11  A    between atoms: C21_34  and  N6_35 
REMARK   12  A    between atoms: N6_35  and  C22_37 
REMARK   13  A    between atoms: N7_38  and  N8_40 
ROOT
HETATM    1  C1  UNL     1      41.059  25.196  53.688  1.00  0.00     0.014 C 
HETATM    2  C2  UNL     1      41.436  25.170  52.537  1.00  0.00    -0.083 C 
HETATM    3  C3  UNL     1      41.902  25.102  51.177  1.00  0.00     0.280 C 
ENDROOT
BRANCH   3   4
HETATM    4  C4  UNL     1      41.968  26.373  50.435  1.00  0.00     0.090 C 
BRANCH   4   5
HETATM    5  C5  UNL     1      40.687  27.017  50.090  1.00  0.00     0.004 A 
HETATM    6  C6  UNL     1      40.137  27.381  48.909  1.00  0.00     0.087 A 
HETATM    7  N1  UNL     1      40.030  27.545  47.580  1.00  0.00    -0.189 N 
HETATM    8  C8  UNL     1      38.973  27.865  49.452  1.00  0.00     0.104 A 
HETATM    9  C7  UNL     1      38.845  28.116  47.261  1.00  0.00     0.677 A 
ATOM     10  H1  UNL     1      40.745  27.277  46.904  1.00  0.00     0.184 HD
HETATM   11  N2  UNL     1      38.432  28.411  46.054  1.00  0.00    -0.234 N 
HETATM   12  N3  UNL     1      38.217  28.301  48.432  1.00  0.00    -0.188 N 
ATOM     13  H22 UNL     1      38.909  28.269  45.164  1.00  0.00     0.174 HD
ATOM     14  H21 UNL     1      37.539  28.840  45.814  1.00  0.00     0.174 HD
ATOM     15  H3  UNL     1      37.291  28.717  48.534  1.00  0.00     0.184 HD
HETATM   16  C9  UNL     1      39.454  27.533  50.660  1.00  0.00     0.075 A 
BRANCH  16  17
HETATM   17  N4  UNL     1      38.943  27.665  51.956  1.00  0.00    -0.300 N 
HETATM   18  C10 UNL     1      39.535  28.522  52.920  1.00  0.00     0.365 C 
HETATM   19  O1  UNL     1      40.552  29.233  52.717  1.00  0.00    -0.238 OA
ATOM     20  H4  UNL     1      38.117  27.127  52.217  1.00  0.00     0.171 HD
BRANCH  18  21
HETATM   21  O2  UNL     1      39.002  28.636  54.217  1.00  0.00    -0.299 OA
BRANCH  21  22
HETATM   22  C11 UNL     1      37.806  27.978  54.576  1.00  0.00     0.219 C 
BRANCH  22  23
HETATM   23  C12 UNL     1      38.064  26.717  55.299  1.00  0.00    -0.034 A 
HETATM   24  C13 UNL     1      37.489  25.515  54.936  1.00  0.00     0.009 A 
HETATM   25  C14 UNL     1      37.739  24.335  55.620  1.00  0.00     0.001 A 
HETATM   26  C15 UNL     1      38.591  24.372  56.701  1.00  0.00     0.000 A 
HETATM   27  C16 UNL     1      39.183  25.574  57.088  1.00  0.00     0.001 A 
HETATM   28  C17 UNL     1      38.915  26.747  56.381  1.00  0.00     0.009 A 
ENDBRANCH  22  23
ENDBRANCH  21  22
ENDBRANCH  18  21
ENDBRANCH  16  17
ENDBRANCH   4   5
ENDBRANCH   3   4
BRANCH   3  29
HETATM   29  N5  UNL     1      43.125  24.324  51.107  1.00  0.00    -0.001 N 
HETATM   30  C18 UNL     1      44.212  24.974  51.817  1.00  0.00     0.284 C 
BRANCH  29  31
HETATM   31  C19 UNL     1      43.499  24.221  49.745  1.00  0.00     0.460 C 
HETATM   32  O3  UNL     1      43.368  23.177  49.147  1.00  0.00    -0.276 OA
ENDBRANCH  29  31
BRANCH  29  33
HETATM   33  C20 UNL     1      42.982  23.004  51.631  1.00  0.00     0.267 C 
BRANCH  33  34
HETATM   34  C21 UNL     1      44.160  22.576  52.504  1.00  0.00     0.149 C 
BRANCH  34  35
HETATM   35  N6  UNL     1      44.904  21.607  51.701  1.00  0.00    -0.383 N 
ATOM     36  H6  UNL     1      45.912  21.691  51.572  1.00  0.00     0.160 HD
BRANCH  35  37
HETATM   37  C22 UNL     1      44.172  20.546  51.106  1.00  0.00     0.192 C 
HETATM   38  N7  UNL     1      44.439  20.223  49.889  1.00  0.00    -0.303 N 
ATOM     39  H7  UNL     1      43.920  19.462  49.451  1.00  0.00     0.187 HD
BRANCH  38  40
HETATM   40  N8  UNL     1      45.424  20.888  49.151  1.00  0.00    -0.344 N 
ATOM     41  H82 UNL     1      46.239  21.245  49.650  1.00  0.00     0.176 HD
ATOM     42  H81 UNL     1      45.342  21.018  48.143  1.00  0.00     0.176 HD
ENDBRANCH  38  40
ENDBRANCH  35  37
ENDBRANCH  34  35
ENDBRANCH  33  34
ENDBRANCH  29  33
ENDBRANCH   3  29
TORSDOF 13
ENDMDL
MODEL 2
REMARK VINA RESULT: -6.359243992      3.220      5.825
REMARK  13 active torsions:
REMARK  status: ('A' for Active; 'I' for Inactive)
REMARK    1  A    between atoms: C3_3  and  C4_4 
REMARK    2  A    between atoms: C3_3  and  N5_29 
REMARK    3  A    between atoms: C4_4  and  C5_5 
REMARK    4  A    between atoms: C9_16  and  N4_17 
REMARK       I    between atoms: N4_17  and  C10_19 
REMARK    5  A    between atoms: C10_19  and  O2_21 
REMARK    6  A    between atoms: O2_21  and  C11_22 
REMARK    7  A    between atoms: C11_22  and  C12_23 
REMARK    8  A    between atoms: N5_29  and  C19_31 
REMARK    9  A    between atoms: N5_29  and  C20_33 
REMARK   10  A    between atoms: C20_33  and  C21_34 
REMARK   11  A    between atoms: C21_34  and  N6_35 
REMARK   12  A    between atoms: N6_35  and  C22_37 
REMARK   13  A    between atoms: N7_38  and  N8_40 
ROOT
HETATM    1  C1  UNL     1      41.626  25.654  49.188  1.00  0.00     0.014 C 
HETATM    2  C2  UNL     1      42.814  25.863  49.305  1.00  0.00    -0.083 C 
HETATM    3  C3  UNL     1      44.225  26.128  49.403  1.00  0.00     0.280 C 
ENDROOT
BRANCH   3   4
HETATM    4  C4  UNL     1      44.966  25.391  50.442  1.00  0.00     0.090 C 
BRANCH   4   5
HETATM    5  C5  UNL     1      44.429  24.079  50.848  1.00  0.00     0.004 A 
HETATM    6  C6  UNL     1      44.743  22.813  50.489  1.00  0.00     0.087 A 
HETATM    7  N1  UNL     1      45.385  21.819  49.852  1.00  0.00    -0.189 N 
HETATM    8  C8  UNL     1      43.825  22.213  51.315  1.00  0.00     0.104 A 
HETATM    9  C7  UNL     1      44.907  20.613  50.241  1.00  0.00     0.677 A 
ATOM     10  H1  UNL     1      46.129  21.955  49.168  1.00  0.00     0.184 HD
HETATM   11  N2  UNL     1      45.317  19.447  49.809  1.00  0.00    -0.234 N 
HETATM   12  N3  UNL     1      43.949  20.887  51.140  1.00  0.00    -0.188 N 
ATOM     13  H22 UNL     1      46.045  19.239  49.126  1.00  0.00     0.174 HD
ATOM     14  H21 UNL     1      44.957  18.539  50.102  1.00  0.00     0.174 HD
ATOM     15  H3  UNL     1      43.391  20.184  51.624  1.00  0.00     0.184 HD
HETATM   16  C9  UNL     1      43.457  23.438  51.718  1.00  0.00     0.075 A 
BRANCH  16  17
HETATM   17  N4  UNL     1      42.488  23.891  52.620  1.00  0.00    -0.300 N 
HETATM   18  C10 UNL     1      42.829  24.500  53.856  1.00  0.00     0.365 C 
HETATM   19  O1  UNL     1      44.004  24.693  54.259  1.00  0.00    -0.238 OA
ATOM     20  H4  UNL     1      41.503  23.779  52.382  1.00  0.00     0.171 HD
BRANCH  18  21
HETATM   21  O2  UNL     1      41.834  24.945  54.746  1.00  0.00    -0.299 OA
BRANCH  21  22
HETATM   22  C11 UNL     1      40.483  25.037  54.346  1.00  0.00     0.219 C 
BRANCH  22  23
HETATM   23  C12 UNL     1      39.557  24.763  55.463  1.00  0.00    -0.034 A 
HETATM   24  C13 UNL     1      38.246  24.375  55.269  1.00  0.00     0.009 A 
HETATM   25  C14 UNL     1      37.383  24.118  56.324  1.00  0.00     0.001 A 
HETATM   26  C15 UNL     1      37.858  24.258  57.608  1.00  0.00     0.000 A 
HETATM   27  C16 UNL     1      39.179  24.649  57.829  1.00  0.00     0.001 A 
HETATM   28  C17 UNL     1      40.026  24.901  56.749  1.00  0.00     0.009 A 
ENDBRANCH  22  23
ENDBRANCH  21  22
ENDBRANCH  18  21
ENDBRANCH  16  17
ENDBRANCH   4   5
ENDBRANCH   3   4
BRANCH   3  29
HETATM   29  N5  UNL     1      44.839  26.057  48.090  1.00  0.00    -0.001 N 
HETATM   30  C18 UNL     1      46.284  26.169  48.171  1.00  0.00     0.284 C 
BRANCH  29  31
HETATM   31  C19 UNL     1      44.363  27.152  47.328  1.00  0.00     0.460 C 
HETATM   32  O3  UNL     1      44.188  27.044  46.135  1.00  0.00    -0.276 OA
ENDBRANCH  29  31
BRANCH  29  33
HETATM   33  C20 UNL     1      44.526  24.855  47.388  1.00  0.00     0.267 C 
BRANCH  33  34
HETATM   34  C21 UNL     1      45.762  24.028  47.038  1.00  0.00     0.149 C 
BRANCH  34  35
HETATM   35  N6  UNL     1      45.739  23.898  45.581  1.00  0.00    -0.383 N 
ATOM     36  H6  UNL     1      45.161  23.193  45.123  1.00  0.00     0.160 HD
BRANCH  35  37
HETATM   37  C22 UNL     1      46.551  24.786  44.829  1.00  0.00     0.192 C 
HETATM   38  N7  UNL     1      45.987  25.533  43.945  1.00  0.00    -0.303 N 
ATOM     39  H7  UNL     1      46.561  26.175  43.398  1.00  0.00     0.187 HD
BRANCH  38  40
HETATM   40  N8  UNL     1      44.608  25.487  43.715  1.00  0.00    -0.344 N 
ATOM     41  H82 UNL     1      44.233  24.690  43.200  1.00  0.00     0.176 HD
ATOM     42  H81 UNL     1      43.985  26.223  44.048  1.00  0.00     0.176 HD
ENDBRANCH  38  40
ENDBRANCH  35  37
ENDBRANCH  34  35
ENDBRANCH  33  34
ENDBRANCH  29  33
ENDBRANCH   3  29
TORSDOF 13
ENDMDL
MODEL 3
REMARK VINA RESULT: -6.252247035      3.300      8.026
REMARK  13 active torsions:
REMARK  status: ('A' for Active; 'I' for Inactive)
REMARK    1  A    between atoms: C3_3  and  C4_4 
REMARK    2  A    between atoms: C3_3  and  N5_29 
REMARK    3  A    between atoms: C4_4  and  C5_5 
REMARK    4  A    between atoms: C9_16  and  N4_17 
REMARK       I    between atoms: N4_17  and  C10_19 
REMARK    5  A    between atoms: C10_19  and  O2_21 
REMARK    6  A    between atoms: O2_21  and  C11_22 
REMARK    7  A    between atoms: C11_22  and  C12_23 
REMARK    8  A    between atoms: N5_29  and  C19_31 
REMARK    9  A    between atoms: N5_29  and  C20_33 
REMARK   10  A    between atoms: C20_33  and  C21_34 
REMARK   11  A    between atoms: C21_34  and  N6_35 
REMARK   12  A    between atoms: N6_35  and  C22_37 
REMARK   13  A    between atoms: N7_38  and  N8_40 
ROOT
HETATM    1  C1  UNL     1      44.663  26.690  51.778  1.00  0.00     0.014 C 
HETATM    2  C2  UNL     1      44.117  25.804  52.399  1.00  0.00    -0.083 C 
HETATM    3  C3  UNL     1      43.437  24.778  53.144  1.00  0.00     0.280 C 
ENDROOT
BRANCH   3   4
HETATM    4  C4  UNL     1      44.256  23.647  53.614  1.00  0.00     0.090 C 
BRANCH   4   5
HETATM    5  C5  UNL     1      44.352  22.473  52.727  1.00  0.00     0.004 A 
HETATM    6  C6  UNL     1      44.865  21.234  52.904  1.00  0.00     0.087 A 
HETATM    7  N1  UNL     1      45.469  20.212  53.533  1.00  0.00    -0.189 N 
HETATM    8  C8  UNL     1      44.536  20.777  51.652  1.00  0.00     0.104 A 
HETATM    9  C7  UNL     1      45.537  19.126  52.727  1.00  0.00     0.677 A 
ATOM     10  H1  UNL     1      45.828  20.249  54.487  1.00  0.00     0.184 HD
HETATM   11  N2  UNL     1      46.065  17.969  53.036  1.00  0.00    -0.234 N 
HETATM   12  N3  UNL     1      44.956  19.504  51.577  1.00  0.00    -0.188 N 
ATOM     13  H22 UNL     1      46.506  17.682  53.910  1.00  0.00     0.174 HD
ATOM     14  H21 UNL     1      46.116  17.151  52.429  1.00  0.00     0.174 HD
ATOM     15  H3  UNL     1      44.849  18.906  50.759  1.00  0.00     0.184 HD
HETATM   16  C9  UNL     1      44.008  21.985  51.403  1.00  0.00     0.075 A 
BRANCH  16  17
HETATM   17  N4  UNL     1      43.387  22.536  50.276  1.00  0.00    -0.300 N 
HETATM   18  C10 UNL     1      44.017  23.519  49.468  1.00  0.00     0.365 C 
HETATM   19  O1  UNL     1      45.166  23.984  49.673  1.00  0.00    -0.238 OA
ATOM     20  H4  UNL     1      42.450  22.221  50.026  1.00  0.00     0.171 HD
BRANCH  18  21
HETATM   21  O2  UNL     1      43.370  24.058  48.341  1.00  0.00    -0.299 OA
BRANCH  21  22
HETATM   22  C11 UNL     1      43.251  25.453  48.165  1.00  0.00     0.219 C 
BRANCH  22  23
HETATM   23  C12 UNL     1      41.973  25.970  48.694  1.00  0.00    -0.034 A 
HETATM   24  C13 UNL     1      41.357  25.441  49.811  1.00  0.00     0.009 A 
HETATM   25  C14 UNL     1      40.157  25.935  50.302  1.00  0.00     0.001 A 
HETATM   26  C15 UNL     1      39.565  26.990  49.646  1.00  0.00     0.000 A 
HETATM   27  C16 UNL     1      40.168  27.541  48.515  1.00  0.00     0.001 A 
HETATM   28  C17 UNL     1      41.376  27.026  48.042  1.00  0.00     0.009 A 
ENDBRANCH  22  23
ENDBRANCH  21  22
ENDBRANCH  18  21
ENDBRANCH  16  17
ENDBRANCH   4   5
ENDBRANCH   3   4
BRANCH   3  29
HETATM   29  N5  UNL     1      42.620  25.376  54.184  1.00  0.00    -0.001 N 
HETATM   30  C18 UNL     1      41.978  26.594  53.723  1.00  0.00     0.284 C 
BRANCH  29  31
HETATM   31  C19 UNL     1      43.471  25.718  55.264  1.00  0.00     0.460 C 
HETATM   32  O3  UNL     1      43.096  25.597  56.408  1.00  0.00    -0.276 OA
ENDBRANCH  29  31
BRANCH  29  33
HETATM   33  C20 UNL     1      41.607  24.499  54.676  1.00  0.00     0.267 C 
BRANCH  33  34
HETATM   34  C21 UNL     1      40.194  25.041  54.465  1.00  0.00     0.149 C 
BRANCH  34  35
HETATM   35  N6  UNL     1      39.434  24.604  55.636  1.00  0.00    -0.383 N 
ATOM     36  H6  UNL     1      39.876  24.523  56.552  1.00  0.00     0.160 HD
BRANCH  35  37
HETATM   37  C22 UNL     1      38.061  24.296  55.452  1.00  0.00     0.192 C 
HETATM   38  N7  UNL     1      37.342  24.052  56.491  1.00  0.00    -0.303 N 
ATOM     39  H7  UNL     1      36.354  23.830  56.371  1.00  0.00     0.187 HD
BRANCH  38  40
HETATM   40  N8  UNL     1      37.881  24.085  57.782  1.00  0.00    -0.344 N 
ATOM     41  H82 UNL     1      38.862  24.342  57.886  1.00  0.00     0.176 HD
ATOM     42  H81 UNL     1      37.318  23.861  58.602  1.00  0.00     0.176 HD
ENDBRANCH  38  40
ENDBRANCH  35  37
ENDBRANCH  34  35
ENDBRANCH  33  34
ENDBRANCH  29  33
ENDBRANCH   3  29
TORSDOF 13
ENDMDL
MODEL 4
REMARK VINA RESULT: -6.246451775      3.841      6.403
REMARK  13 active torsions:
REMARK  status: ('A' for Active; 'I' for Inactive)
REMARK    1  A    between atoms: C3_3  and  C4_4 
REMARK    2  A    between atoms: C3_3  and  N5_29 
REMARK    3  A    between atoms: C4_4  and  C5_5 
REMARK    4  A    between atoms: C9_16  and  N4_17 
REMARK       I    between atoms: N4_17  and  C10_19 
REMARK    5  A    between atoms: C10_19  and  O2_21 
REMARK    6  A    between atoms: O2_21  and  C11_22 
REMARK    7  A    between atoms: C11_22  and  C12_23 
REMARK    8  A    between atoms: N5_29  and  C19_31 
REMARK    9  A    between atoms: N5_29  and  C20_33 
REMARK   10  A    between atoms: C20_33  and  C21_34 
REMARK   11  A    between atoms: C21_34  and  N6_35 
REMARK   12  A    between atoms: N6_35  and  C22_37 
REMARK   13  A    between atoms: N7_38  and  N8_40 
ROOT
HETATM    1  C1  UNL     1      45.071  27.234  50.681  1.00  0.00     0.014 C 
HETATM    2  C2  UNL     1      45.026  26.110  50.231  1.00  0.00    -0.083 C 
HETATM    3  C3  UNL     1      45.000  24.786  49.667  1.00  0.00     0.280 C 
ENDROOT
BRANCH   3   4
HETATM    4  C4  UNL     1      43.863  23.927  50.044  1.00  0.00     0.090 C 
BRANCH   4   5
HETATM    5  C5  UNL     1      44.115  22.883  51.054  1.00  0.00     0.004 A 
HETATM    6  C6  UNL     1      44.539  21.602  50.957  1.00  0.00     0.087 A 
HETATM    7  N1  UNL     1      44.956  20.466  50.372  1.00  0.00    -0.189 N 
HETATM    8  C8  UNL     1      44.529  21.359  52.307  1.00  0.00     0.104 A 
HETATM    9  C7  UNL     1      45.209  19.514  51.300  1.00  0.00     0.677 A 
ATOM     10  H1  UNL     1      45.066  20.339  49.366  1.00  0.00     0.184 HD
HETATM   11  N2  UNL     1      45.628  18.297  51.061  1.00  0.00    -0.234 N 
HETATM   12  N3  UNL     1      44.937  20.092  52.481  1.00  0.00    -0.188 N 
ATOM     13  H22 UNL     1      45.835  17.858  50.163  1.00  0.00     0.174 HD
ATOM     14  H21 UNL     1      45.819  17.580  51.760  1.00  0.00     0.174 HD
ATOM     15  H3  UNL     1      45.027  19.631  53.385  1.00  0.00     0.184 HD
HETATM   16  C9  UNL     1      44.105  22.620  52.482  1.00  0.00     0.075 A 
BRANCH  16  17
HETATM   17  N4  UNL     1      43.770  23.360  53.622  1.00  0.00    -0.300 N 
HETATM   18  C10 UNL     1      42.591  24.146  53.696  1.00  0.00     0.365 C 
HETATM   19  O1  UNL     1      41.746  24.257  52.772  1.00  0.00    -0.238 OA
ATOM     20  H4  UNL     1      44.395  23.335  54.427  1.00  0.00     0.171 HD
BRANCH  18  21
HETATM   21  O2  UNL     1      42.279  24.883  54.853  1.00  0.00    -0.299 OA
BRANCH  21  22
HETATM   22  C11 UNL     1      41.183  25.774  54.879  1.00  0.00     0.219 C 
BRANCH  22  23
HETATM   23  C12 UNL     1      40.046  25.228  55.646  1.00  0.00    -0.034 A 
HETATM   24  C13 UNL     1      40.038  25.156  57.025  1.00  0.00     0.009 A 
HETATM   25  C14 UNL     1      38.964  24.644  57.737  1.00  0.00     0.001 A 
HETATM   26  C15 UNL     1      37.870  24.190  57.036  1.00  0.00     0.000 A 
HETATM   27  C16 UNL     1      37.854  24.251  55.643  1.00  0.00     0.001 A 
HETATM   28  C17 UNL     1      38.948  24.772  54.951  1.00  0.00     0.009 A 
ENDBRANCH  22  23
ENDBRANCH  21  22
ENDBRANCH  18  21
ENDBRANCH  16  17
ENDBRANCH   4   5
ENDBRANCH   3   4
BRANCH   3  29
HETATM   29  N5  UNL     1      45.233  24.848  48.236  1.00  0.00    -0.001 N 
HETATM   30  C18 UNL     1      43.998  25.070  47.505  1.00  0.00     0.284 C 
BRANCH  29  31
HETATM   31  C19 UNL     1      45.760  23.600  47.825  1.00  0.00     0.460 C 
HETATM   32  O3  UNL     1      45.798  23.301  46.653  1.00  0.00    -0.276 OA
ENDBRANCH  29  31
BRANCH  29  33
HETATM   33  C20 UNL     1      46.158  25.868  47.862  1.00  0.00     0.267 C 
BRANCH  33  34
HETATM   34  C21 UNL     1      45.651  26.746  46.719  1.00  0.00     0.149 C 
BRANCH  34  35
HETATM   35  N6  UNL     1      46.499  26.417  45.574  1.00  0.00    -0.383 N 
ATOM     36  H6  UNL     1      46.162  26.527  44.618  1.00  0.00     0.160 HD
BRANCH  35  37
HETATM   37  C22 UNL     1      47.808  25.939  45.842  1.00  0.00     0.192 C 
HETATM   38  N7  UNL     1      48.212  24.879  45.231  1.00  0.00    -0.303 N 
ATOM     39  H7  UNL     1      49.151  24.526  45.416  1.00  0.00     0.187 HD
BRANCH  38  40
HETATM   40  N8  UNL     1      47.396  24.200  44.321  1.00  0.00    -0.344 N 
ATOM     41  H82 UNL     1      46.558  24.673  43.980  1.00  0.00     0.176 HD
ATOM     42  H81 UNL     1      47.620  23.259  43.999  1.00  0.00     0.176 HD
ENDBRANCH  38  40
ENDBRANCH  35  37
ENDBRANCH  34  35
ENDBRANCH  33  34
ENDBRANCH  29  33
ENDBRANCH   3  29
TORSDOF 13
ENDMDL
MODEL 5
REMARK VINA RESULT: -6.240552707      3.247      6.383
REMARK  13 active torsions:
REMARK  status: ('A' for Active; 'I' for Inactive)
REMARK    1  A    between atoms: C3_3  and  C4_4 
REMARK    2  A    between atoms: C3_3  and  N5_29 
REMARK    3  A    between atoms: C4_4  and  C5_5 
REMARK    4  A    between atoms: C9_16  and  N4_17 
REMARK       I    between atoms: N4_17  and  C10_19 
REMARK    5  A    between atoms: C10_19  and  O2_21 
REMARK    6  A    between atoms: O2_21  and  C11_22 
REMARK    7  A    between atoms: C11_22  and  C12_23 
REMARK    8  A    between atoms: N5_29  and  C19_31 
REMARK    9  A    between atoms: N5_29  and  C20_33 
REMARK   10  A    between atoms: C20_33  and  C21_34 
REMARK   11  A    between atoms: C21_34  and  N6_35 
REMARK   12  A    between atoms: N6_35  and  C22_37 
REMARK   13  A    between atoms: N7_38  and  N8_40 
ROOT
HETATM    1  C1  UNL     1      45.829  26.493  51.061  1.00  0.00     0.014 C 
HETATM    2  C2  UNL     1      45.455  25.694  50.231  1.00  0.00    -0.083 C 
HETATM    3  C3  UNL     1      45.032  24.767  49.214  1.00  0.00     0.280 C 
ENDROOT
BRANCH   3   4
HETATM    4  C4  UNL     1      43.868  23.921  49.533  1.00  0.00     0.090 C 
BRANCH   4   5
HETATM    5  C5  UNL     1      44.036  22.922  50.604  1.00  0.00     0.004 A 
HETATM    6  C6  UNL     1      44.479  21.644  50.600  1.00  0.00     0.087 A 
HETATM    7  N1  UNL     1      44.958  20.491  50.104  1.00  0.00    -0.189 N 
HETATM    8  C8  UNL     1      44.348  21.457  51.954  1.00  0.00     0.104 A 
HETATM    9  C7  UNL     1      45.134  19.581  51.091  1.00  0.00     0.677 A 
ATOM     10  H1  UNL     1      45.162  20.324  49.119  1.00  0.00     0.184 HD
HETATM   11  N2  UNL     1      45.585  18.361  50.942  1.00  0.00    -0.234 N 
HETATM   12  N3  UNL     1      44.750  20.203  52.216  1.00  0.00    -0.188 N 
ATOM     13  H22 UNL     1      45.878  17.889  50.087  1.00  0.00     0.174 HD
ATOM     14  H21 UNL     1      45.718  17.676  51.686  1.00  0.00     0.174 HD
ATOM     15  H3  UNL     1      44.761  19.781  53.144  1.00  0.00     0.184 HD
HETATM   16  C9  UNL     1      43.897  22.718  52.036  1.00  0.00     0.075 A 
BRANCH  16  17
HETATM   17  N4  UNL     1      43.453  23.500  53.108  1.00  0.00    -0.300 N 
HETATM   18  C10 UNL     1      42.215  24.194  53.078  1.00  0.00     0.365 C 
HETATM   19  O1  UNL     1      41.409  24.179  52.114  1.00  0.00    -0.238 OA
ATOM     20  H4  UNL     1      44.039  23.575  53.940  1.00  0.00     0.171 HD
BRANCH  18  21
HETATM   21  O2  UNL     1      41.792  24.975  54.170  1.00  0.00    -0.299 OA
BRANCH  21  22
HETATM   22  C11 UNL     1      40.524  25.596  54.176  1.00  0.00     0.219 C 
BRANCH  22  23
HETATM   23  C12 UNL     1      39.680  25.116  55.288  1.00  0.00    -0.034 A 
HETATM   24  C13 UNL     1      38.393  24.650  55.103  1.00  0.00     0.009 A 
HETATM   25  C14 UNL     1      37.608  24.200  56.154  1.00  0.00     0.001 A 
HETATM   26  C15 UNL     1      38.137  24.223  57.424  1.00  0.00     0.000 A 
HETATM   27  C16 UNL     1      39.434  24.691  57.637  1.00  0.00     0.001 A 
HETATM   28  C17 UNL     1      40.203  25.138  56.561  1.00  0.00     0.009 A 
ENDBRANCH  22  23
ENDBRANCH  21  22
ENDBRANCH  18  21
ENDBRANCH  16  17
ENDBRANCH   4   5
ENDBRANCH   3   4
BRANCH   3  29
HETATM   29  N5  UNL     1      44.927  25.443  47.934  1.00  0.00    -0.001 N 
HETATM   30  C18 UNL     1      46.194  26.030  47.537  1.00  0.00     0.284 C 
BRANCH  29  31
HETATM   31  C19 UNL     1      43.988  26.493  48.073  1.00  0.00     0.460 C 
HETATM   32  O3  UNL     1      43.055  26.592  47.307  1.00  0.00    -0.276 OA
ENDBRANCH  29  31
BRANCH  29  33
HETATM   33  C20 UNL     1      44.487  24.586  46.882  1.00  0.00     0.267 C 
BRANCH  33  34
HETATM   34  C21 UNL     1      45.448  24.555  45.695  1.00  0.00     0.149 C 
BRANCH  34  35
HETATM   35  N6  UNL     1      44.625  24.857  44.524  1.00  0.00    -0.383 N 
ATOM     36  H6  UNL     1      44.180  24.114  43.985  1.00  0.00     0.160 HD
BRANCH  35  37
HETATM   37  C22 UNL     1      44.469  26.221  44.164  1.00  0.00     0.192 C 
HETATM   38  N7  UNL     1      43.282  26.718  44.139  1.00  0.00    -0.303 N 
ATOM     39  H7  UNL     1      43.158  27.697  43.881  1.00  0.00     0.187 HD
BRANCH  38  40
HETATM   40  N8  UNL     1      42.157  25.949  44.457  1.00  0.00    -0.344 N 
ATOM     41  H82 UNL     1      41.778  25.332  43.739  1.00  0.00     0.176 HD
ATOM     42  H81 UNL     1      41.720  25.996  45.377  1.00  0.00     0.176 HD
ENDBRANCH  38  40
ENDBRANCH  35  37
ENDBRANCH  34  35
ENDBRANCH  33  34
ENDBRANCH  29  33
ENDBRANCH   3  29
TORSDOF 13
ENDMDL
