MODEL 1
REMARK VINA RESULT: -8.719988390      0.000      0.000
REMARK  12 active torsions:
REMARK  status: ('A' for Active; 'I' for Inactive)
REMARK    1  A    between atoms: C3_3  and  N1_4 
REMARK       I    between atoms: N1_4  and  C4_6 
REMARK    2  A    between atoms: C4_6  and  C5_8 
REMARK    3  A    between atoms: C5_8  and  N2_9 
REMARK    4  A    between atoms: C5_8  and  C6_13 
REMARK    5  A    between atoms: C6_13  and  N3_14 
REMARK    6  A    between atoms: N3_14  and  N4_16 
REMARK    7  A    between atoms: N6_23  and  C8_24 
REMARK    8  A    between atoms: C8_24  and  C10_26 
REMARK    9  A    between atoms: C10_26  and  C11_27 
REMARK   10  A    between atoms: N8_36  and  C18_37 
REMARK   11  A    between atoms: C18_37  and  C19_38 
REMARK   12  A    between atoms: C22_41  and  C23_42 
ROOT
HETATM    1  C1  UNL     1      13.531 -16.435  21.765  1.00  0.00     0.015 C 
HETATM    2  C2  UNL     1      13.442 -15.241  21.607  1.00  0.00    -0.075 C 
HETATM    3  C3  UNL     1      13.311 -13.782  21.397  1.00  0.00     0.189 C 
HETATM    4  C7  UNL     1      14.686 -13.237  21.419  1.00  0.00     0.262 C 
HETATM    5  O2  UNL     1      15.363 -12.959  22.439  1.00  0.00    -0.269 OA
HETATM    6  N6  UNL     1      15.204 -13.045  20.105  1.00  0.00    -0.344 N 
HETATM    7  C21 UNL     1      14.032 -12.942  19.251  1.00  0.00     0.141 C 
HETATM    8  C22 UNL     1      12.871 -13.524  19.983  1.00  0.00     0.115 C 
ENDROOT
BRANCH   3   9
HETATM    9  N1  UNL     1      12.458 -13.195  22.385  1.00  0.00    -0.331 N 
HETATM   10  C4  UNL     1      12.342 -11.793  22.513  1.00  0.00     0.251 C 
HETATM   11  O1  UNL     1      13.002 -11.055  21.744  1.00  0.00    -0.271 OA
ATOM     12  H1  UNL     1      11.924 -13.801  23.009  1.00  0.00     0.164 HD
BRANCH  10  13
HETATM   13  C5  UNL     1      11.468 -11.153  23.525  1.00  0.00     0.293 C 
BRANCH  13  14
HETATM   14  N2  UNL     1      10.218 -11.838  23.628  1.00  0.00    -0.065 N 
ATOM     15  H23 UNL     1      10.304 -12.818  23.361  1.00  0.00     0.275 HD
ATOM     16  H22 UNL     1       9.938 -11.966  24.600  1.00  0.00     0.275 HD
ATOM     17  H21 UNL     1       9.496 -11.362  23.088  1.00  0.00     0.275 HD
ENDBRANCH  13  14
BRANCH  13  18
HETATM   18  C6  UNL     1      11.311  -9.700  23.127  1.00  0.00     0.183 C 
BRANCH  18  19
HETATM   19  N3  UNL     1      12.466  -8.929  23.506  1.00  0.00    -0.320 N 
ATOM     20  H3  UNL     1      13.338  -9.007  22.982  1.00  0.00     0.181 HD
BRANCH  19  21
HETATM   21  N4  UNL     1      12.372  -8.074  24.603  1.00  0.00    -0.254 N 
HETATM   22  N5  UNL     1      12.615  -6.836  24.541  1.00  0.00    -0.331 N 
ATOM     23  H52 UNL     1      12.893  -6.458  23.635  1.00  0.00     0.178 HD
ATOM     24  H51 UNL     1      12.546  -6.210  25.344  1.00  0.00     0.178 HD
ATOM     25  H4  UNL     1      12.092  -8.468  25.501  1.00  0.00     0.207 HD
ENDBRANCH  19  21
ENDBRANCH  18  19
ENDBRANCH  13  18
ENDBRANCH  10  13
ENDBRANCH   3   9
BRANCH   8  26
HETATM   26  C23 UNL     1      12.427 -14.815  19.352  1.00  0.00     0.241 C 
HETATM   27  O3  UNL     1      11.229 -14.908  19.132  1.00  0.00    -0.306 OA
ENDBRANCH   8  26
BRANCH   6  28
HETATM   28  C8  UNL     1      16.533 -12.958  19.632  1.00  0.00     0.090 C 
HETATM   29  C9  UNL     1      16.534 -12.621  18.142  1.00  0.00     0.033 C 
BRANCH  28  30
HETATM   30  C10 UNL     1      17.410 -14.140  19.852  1.00  0.00     0.101 C 
BRANCH  30  31
HETATM   31  C11 UNL     1      18.271 -13.991  21.053  1.00  0.00     0.086 A 
HETATM   32  N7  UNL     1      17.851 -14.183  22.337  1.00  0.00    -0.344 N 
HETATM   33  C12 UNL     1      18.865 -13.965  23.185  1.00  0.00     0.060 A 
ATOM     34  H7  UNL     1      16.905 -14.452  22.610  1.00  0.00     0.167 HD
HETATM   35  C13 UNL     1      19.036 -14.004  24.552  1.00  0.00     0.032 A 
HETATM   36  C17 UNL     1      19.961 -13.625  22.433  1.00  0.00     0.063 A 
HETATM   37  C14 UNL     1      20.226 -13.725  25.185  1.00  0.00     0.002 A 
HETATM   38  C15 UNL     1      21.316 -13.384  24.383  1.00  0.00     0.002 A 
HETATM   39  C16 UNL     1      21.176 -13.336  23.013  1.00  0.00     0.032 A 
HETATM   40  N8  UNL     1      19.568 -13.648  21.125  1.00  0.00    -0.331 N 
BRANCH  40  41
HETATM   41  C18 UNL     1      20.459 -13.348  20.039  1.00  0.00     0.157 C 
BRANCH  41  42
HETATM   42  C19 UNL     1      20.265 -11.999  19.449  1.00  0.00    -0.017 C 
HETATM   43  C20 UNL     1      20.171 -11.856  18.135  1.00  0.00     0.008 C 
ENDBRANCH  41  42
ENDBRANCH  40  41
ENDBRANCH  30  31
ENDBRANCH  28  30
ENDBRANCH   6  28
TORSDOF 12
ENDMDL
MODEL 2
REMARK VINA RESULT: -8.468405716      2.491      4.183
REMARK  12 active torsions:
REMARK  status: ('A' for Active; 'I' for Inactive)
REMARK    1  A    between atoms: C3_3  and  N1_4 
REMARK       I    between atoms: N1_4  and  C4_6 
REMARK    2  A    between atoms: C4_6  and  C5_8 
REMARK    3  A    between atoms: C5_8  and  N2_9 
REMARK    4  A    between atoms: C5_8  and  C6_13 
REMARK    5  A    between atoms: C6_13  and  N3_14 
REMARK    6  A    between atoms: N3_14  and  N4_16 
REMARK    7  A    between atoms: N6_23  and  C8_24 
REMARK    8  A    between atoms: C8_24  and  C10_26 
REMARK    9  A    between atoms: C10_26  and  C11_27 
REMARK   10  A    between atoms: N8_36  and  C18_37 
REMARK   11  A    between atoms: C18_37  and  C19_38 
REMARK   12  A    between atoms: C22_41  and  C23_42 
ROOT
HETATM    1  C1  UNL     1      15.082 -14.349  19.211  1.00  0.00     0.015 C 
HETATM    2  C2  UNL     1      15.418 -13.402  19.881  1.00  0.00    -0.075 C 
HETATM    3  C3  UNL     1      15.829 -12.227  20.681  1.00  0.00     0.189 C 
HETATM    4  C7  UNL     1      16.738 -12.739  21.730  1.00  0.00     0.262 C 
HETATM    5  O2  UNL     1      16.402 -13.272  22.815  1.00  0.00    -0.269 OA
HETATM    6  N6  UNL     1      18.109 -12.563  21.378  1.00  0.00    -0.344 N 
HETATM    7  C21 UNL     1      18.110 -11.487  20.400  1.00  0.00     0.141 C 
HETATM    8  C22 UNL     1      16.730 -11.356  19.852  1.00  0.00     0.115 C 
ENDROOT
BRANCH   3   9
HETATM    9  N1  UNL     1      14.689 -11.543  21.212  1.00  0.00    -0.331 N 
HETATM   10  C4  UNL     1      13.713 -10.977  20.361  1.00  0.00     0.251 C 
HETATM   11  O1  UNL     1      13.855 -11.079  19.119  1.00  0.00    -0.271 OA
ATOM     12  H1  UNL     1      14.579 -11.463  22.223  1.00  0.00     0.164 HD
BRANCH  10  13
HETATM   13  C5  UNL     1      12.520 -10.263  20.877  1.00  0.00     0.293 C 
BRANCH  13  14
HETATM   14  N2  UNL     1      12.379  -8.986  20.252  1.00  0.00    -0.065 N 
ATOM     15  H23 UNL     1      13.258  -8.470  20.249  1.00  0.00     0.275 HD
ATOM     16  H22 UNL     1      12.246  -9.073  19.245  1.00  0.00     0.275 HD
ATOM     17  H21 UNL     1      11.629  -8.449  20.686  1.00  0.00     0.275 HD
ENDBRANCH  13  14
BRANCH  13  18
HETATM   18  C6  UNL     1      12.670 -10.169  22.381  1.00  0.00     0.183 C 
BRANCH  18  19
HETATM   19  N3  UNL     1      11.430  -9.785  23.004  1.00  0.00    -0.320 N 
ATOM     20  H3  UNL     1      10.980  -8.902  22.765  1.00  0.00     0.181 HD
BRANCH  19  21
HETATM   21  N4  UNL     1      10.856 -10.643  23.940  1.00  0.00    -0.254 N 
HETATM   22  N5  UNL     1      10.517 -11.832  23.677  1.00  0.00    -0.331 N 
ATOM     23  H52 UNL     1      10.678 -12.165  22.726  1.00  0.00     0.178 HD
ATOM     24  H51 UNL     1      10.096 -12.459  24.362  1.00  0.00     0.178 HD
ATOM     25  H4  UNL     1      10.702 -10.294  24.887  1.00  0.00     0.207 HD
ENDBRANCH  19  21
ENDBRANCH  18  19
ENDBRANCH  13  18
ENDBRANCH  10  13
ENDBRANCH   3   9
BRANCH   8  26
HETATM   26  C23 UNL     1      16.674 -11.800  18.416  1.00  0.00     0.241 C 
HETATM   27  O3  UNL     1      16.888 -10.928  17.587  1.00  0.00    -0.306 OA
ENDBRANCH   8  26
BRANCH   6  28
HETATM   28  C8  UNL     1      19.276 -13.226  21.819  1.00  0.00     0.090 C 
HETATM   29  C9  UNL     1      20.458 -12.848  20.929  1.00  0.00     0.033 C 
BRANCH  28  30
HETATM   30  C10 UNL     1      19.214 -14.710  21.922  1.00  0.00     0.101 C 
BRANCH  30  31
HETATM   31  C11 UNL     1      20.315 -15.266  22.748  1.00  0.00     0.086 A 
HETATM   32  N7  UNL     1      21.295 -16.092  22.279  1.00  0.00    -0.344 N 
HETATM   33  C12 UNL     1      22.130 -16.419  23.275  1.00  0.00     0.060 A 
ATOM     34  H7  UNL     1      21.379 -16.413  21.315  1.00  0.00     0.167 HD
HETATM   35  C13 UNL     1      23.263 -17.195  23.401  1.00  0.00     0.032 A 
HETATM   36  C17 UNL     1      21.679 -15.792  24.409  1.00  0.00     0.063 A 
HETATM   37  C14 UNL     1      23.948 -17.365  24.582  1.00  0.00     0.002 A 
HETATM   38  C15 UNL     1      23.457 -16.710  25.712  1.00  0.00     0.002 A 
HETATM   39  C16 UNL     1      22.326 -15.928  25.617  1.00  0.00     0.032 A 
HETATM   40  N8  UNL     1      20.562 -15.089  24.057  1.00  0.00    -0.331 N 
BRANCH  40  41
HETATM   41  C18 UNL     1      19.814 -14.297  24.992  1.00  0.00     0.157 C 
BRANCH  41  42
HETATM   42  C19 UNL     1      20.382 -12.947  25.236  1.00  0.00    -0.017 C 
HETATM   43  C20 UNL     1      20.818 -12.617  26.443  1.00  0.00     0.008 C 
ENDBRANCH  41  42
ENDBRANCH  40  41
ENDBRANCH  30  31
ENDBRANCH  28  30
ENDBRANCH   6  28
TORSDOF 12
ENDMDL
MODEL 3
REMARK VINA RESULT: -8.422066899      2.236      3.941
REMARK  12 active torsions:
REMARK  status: ('A' for Active; 'I' for Inactive)
REMARK    1  A    between atoms: C3_3  and  N1_4 
REMARK       I    between atoms: N1_4  and  C4_6 
REMARK    2  A    between atoms: C4_6  and  C5_8 
REMARK    3  A    between atoms: C5_8  and  N2_9 
REMARK    4  A    between atoms: C5_8  and  C6_13 
REMARK    5  A    between atoms: C6_13  and  N3_14 
REMARK    6  A    between atoms: N3_14  and  N4_16 
REMARK    7  A    between atoms: N6_23  and  C8_24 
REMARK    8  A    between atoms: C8_24  and  C10_26 
REMARK    9  A    between atoms: C10_26  and  C11_27 
REMARK   10  A    between atoms: N8_36  and  C18_37 
REMARK   11  A    between atoms: C18_37  and  C19_38 
REMARK   12  A    between atoms: C22_41  and  C23_42 
ROOT
HETATM    1  C1  UNL     1      15.457 -14.672  19.026  1.00  0.00     0.015 C 
HETATM    2  C2  UNL     1      15.686 -13.699  19.705  1.00  0.00    -0.075 C 
HETATM    3  C3  UNL     1      15.961 -12.492  20.515  1.00  0.00     0.189 C 
HETATM    4  C7  UNL     1      17.018 -12.873  21.477  1.00  0.00     0.262 C 
HETATM    5  O2  UNL     1      16.856 -13.480  22.563  1.00  0.00    -0.269 OA
HETATM    6  N6  UNL     1      18.311 -12.467  21.035  1.00  0.00    -0.344 N 
HETATM    7  C21 UNL     1      18.064 -11.382  20.099  1.00  0.00     0.141 C 
HETATM    8  C22 UNL     1      16.644 -11.466  19.656  1.00  0.00     0.115 C 
ENDROOT
BRANCH   3   9
HETATM    9  N1  UNL     1      14.769 -12.017  21.150  1.00  0.00    -0.331 N 
HETATM   10  C4  UNL     1      13.642 -11.628  20.393  1.00  0.00     0.251 C 
HETATM   11  O1  UNL     1      13.693 -11.702  19.142  1.00  0.00    -0.271 OA
ATOM     12  H1  UNL     1      14.733 -11.959  22.167  1.00  0.00     0.164 HD
BRANCH  10  13
HETATM   13  C5  UNL     1      12.392 -11.133  21.018  1.00  0.00     0.293 C 
BRANCH  13  14
HETATM   14  N2  UNL     1      12.312  -9.708  20.941  1.00  0.00    -0.065 N 
ATOM     15  H23 UNL     1      12.185  -9.389  19.981  1.00  0.00     0.275 HD
ATOM     16  H22 UNL     1      11.440  -9.358  21.337  1.00  0.00     0.275 HD
ATOM     17  H21 UNL     1      13.125  -9.274  21.378  1.00  0.00     0.275 HD
ENDBRANCH  13  14
BRANCH  13  18
HETATM   18  C6  UNL     1      12.368 -11.647  22.442  1.00  0.00     0.183 C 
BRANCH  18  19
HETATM   19  N3  UNL     1      11.019 -11.886  22.886  1.00  0.00    -0.320 N 
ATOM     20  H3  UNL     1      10.439 -12.589  22.430  1.00  0.00     0.181 HD
BRANCH  19  21
HETATM   21  N4  UNL     1      10.521 -11.137  23.951  1.00  0.00    -0.254 N 
HETATM   22  N5  UNL     1      10.844  -9.934  24.165  1.00  0.00    -0.331 N 
ATOM     23  H52 UNL     1      11.504  -9.504  23.517  1.00  0.00     0.178 HD
ATOM     24  H51 UNL     1      10.480  -9.386  24.945  1.00  0.00     0.178 HD
ATOM     25  H4  UNL     1       9.862 -11.582  24.590  1.00  0.00     0.207 HD
ENDBRANCH  19  21
ENDBRANCH  18  19
ENDBRANCH  13  18
ENDBRANCH  10  13
ENDBRANCH   3   9
BRANCH   8  26
HETATM   26  C23 UNL     1      16.551 -11.878  18.212  1.00  0.00     0.241 C 
HETATM   27  O3  UNL     1      16.903 -11.035  17.401  1.00  0.00    -0.306 OA
ENDBRANCH   8  26
BRANCH   6  28
HETATM   28  C8  UNL     1      19.600 -12.941  21.368  1.00  0.00     0.090 C 
HETATM   29  C9  UNL     1      20.655 -12.201  20.548  1.00  0.00     0.033 C 
BRANCH  28  30
HETATM   30  C10 UNL     1      19.839 -14.404  21.240  1.00  0.00     0.101 C 
BRANCH  30  31
HETATM   31  C11 UNL     1      19.473 -15.148  22.472  1.00  0.00     0.086 A 
HETATM   32  N7  UNL     1      18.496 -16.098  22.543  1.00  0.00    -0.344 N 
HETATM   33  C12 UNL     1      18.412 -16.572  23.793  1.00  0.00     0.060 A 
ATOM     34  H7  UNL     1      17.916 -16.401  21.761  1.00  0.00     0.167 HD
HETATM   35  C13 UNL     1      17.641 -17.510  24.445  1.00  0.00     0.032 A 
HETATM   36  C17 UNL     1      19.354 -15.915  24.544  1.00  0.00     0.063 A 
HETATM   37  C14 UNL     1      17.767 -17.812  25.782  1.00  0.00     0.002 A 
HETATM   38  C15 UNL     1      18.737 -17.121  26.509  1.00  0.00     0.002 A 
HETATM   39  C16 UNL     1      19.523 -16.177  25.885  1.00  0.00     0.032 A 
HETATM   40  N8  UNL     1      19.993 -15.044  23.707  1.00  0.00    -0.331 N 
BRANCH  40  41
HETATM   41  C18 UNL     1      21.054 -14.181  24.144  1.00  0.00     0.157 C 
BRANCH  41  42
HETATM   42  C19 UNL     1      20.591 -12.922  24.779  1.00  0.00    -0.017 C 
HETATM   43  C20 UNL     1      20.857 -12.685  26.056  1.00  0.00     0.008 C 
ENDBRANCH  41  42
ENDBRANCH  40  41
ENDBRANCH  30  31
ENDBRANCH  28  30
ENDBRANCH   6  28
TORSDOF 12
ENDMDL
MODEL 4
REMARK VINA RESULT: -8.393960172      1.825      3.159
REMARK  12 active torsions:
REMARK  status: ('A' for Active; 'I' for Inactive)
REMARK    1  A    between atoms: C3_3  and  N1_4 
REMARK       I    between atoms: N1_4  and  C4_6 
REMARK    2  A    between atoms: C4_6  and  C5_8 
REMARK    3  A    between atoms: C5_8  and  N2_9 
REMARK    4  A    between atoms: C5_8  and  C6_13 
REMARK    5  A    between atoms: C6_13  and  N3_14 
REMARK    6  A    between atoms: N3_14  and  N4_16 
REMARK    7  A    between atoms: N6_23  and  C8_24 
REMARK    8  A    between atoms: C8_24  and  C10_26 
REMARK    9  A    between atoms: C10_26  and  C11_27 
REMARK   10  A    between atoms: N8_36  and  C18_37 
REMARK   11  A    between atoms: C18_37  and  C19_38 
REMARK   12  A    between atoms: C22_41  and  C23_42 
ROOT
HETATM    1  C1  UNL     1      14.914 -15.974  21.473  1.00  0.00     0.015 C 
HETATM    2  C2  UNL     1      14.986 -14.843  21.055  1.00  0.00    -0.075 C 
HETATM    3  C3  UNL     1      15.062 -13.466  20.519  1.00  0.00     0.189 C 
HETATM    4  C7  UNL     1      16.322 -12.891  21.037  1.00  0.00     0.262 C 
HETATM    5  O2  UNL     1      16.502 -12.385  22.172  1.00  0.00    -0.269 OA
HETATM    6  N6  UNL     1      17.375 -12.967  20.079  1.00  0.00    -0.344 N 
HETATM    7  C21 UNL     1      16.705 -13.079  18.794  1.00  0.00     0.141 C 
HETATM    8  C22 UNL     1      15.304 -13.525  19.037  1.00  0.00     0.115 C 
ENDROOT
BRANCH   3   9
HETATM    9  N1  UNL     1      13.905 -12.707  20.888  1.00  0.00    -0.331 N 
HETATM   10  C4  UNL     1      13.785 -11.342  20.543  1.00  0.00     0.251 C 
HETATM   11  O1  UNL     1      14.712 -10.791  19.904  1.00  0.00    -0.271 OA
ATOM     12  H1  UNL     1      13.155 -13.160  21.409  1.00  0.00     0.164 HD
BRANCH  10  13
HETATM   13  C5  UNL     1      12.601 -10.528  20.908  1.00  0.00     0.293 C 
BRANCH  13  14
HETATM   14  N2  UNL     1      12.566  -9.312  20.158  1.00  0.00    -0.065 N 
ATOM     15  H23 UNL     1      12.808  -8.507  20.735  1.00  0.00     0.275 HD
ATOM     16  H22 UNL     1      13.334  -9.260  19.489  1.00  0.00     0.275 HD
ATOM     17  H21 UNL     1      11.662  -9.191  19.703  1.00  0.00     0.275 HD
ENDBRANCH  13  14
BRANCH  13  18
HETATM   18  C6  UNL     1      12.661 -10.294  22.403  1.00  0.00     0.183 C 
BRANCH  18  19
HETATM   19  N3  UNL     1      11.365  -9.950  22.928  1.00  0.00    -0.320 N 
ATOM     20  H3  UNL     1      10.857  -9.142  22.569  1.00  0.00     0.181 HD
BRANCH  19  21
HETATM   21  N4  UNL     1      10.817 -10.742  23.936  1.00  0.00    -0.254 N 
HETATM   22  N5  UNL     1      10.451 -11.938  23.757  1.00  0.00    -0.331 N 
ATOM     23  H52 UNL     1      10.569 -12.329  22.823  1.00  0.00     0.178 HD
ATOM     24  H51 UNL     1      10.050 -12.518  24.495  1.00  0.00     0.178 HD
ATOM     25  H4  UNL     1      10.706 -10.335  24.865  1.00  0.00     0.207 HD
ENDBRANCH  19  21
ENDBRANCH  18  19
ENDBRANCH  13  18
ENDBRANCH  10  13
ENDBRANCH   3   9
BRANCH   8  26
HETATM   26  C23 UNL     1      15.092 -14.932  18.550  1.00  0.00     0.241 C 
HETATM   27  O3  UNL     1      13.988 -15.166  18.084  1.00  0.00    -0.306 OA
ENDBRANCH   8  26
BRANCH   6  28
HETATM   28  C8  UNL     1      18.779 -12.945  20.236  1.00  0.00     0.090 C 
HETATM   29  C9  UNL     1      19.450 -12.700  18.886  1.00  0.00     0.033 C 
BRANCH  28  30
HETATM   30  C10 UNL     1      19.409 -14.136  20.870  1.00  0.00     0.101 C 
BRANCH  30  31
HETATM   31  C11 UNL     1      19.674 -13.933  22.317  1.00  0.00     0.086 A 
HETATM   32  N7  UNL     1      20.662 -13.139  22.820  1.00  0.00    -0.344 N 
HETATM   33  C12 UNL     1      20.638 -13.176  24.160  1.00  0.00     0.060 A 
ATOM     34  H7  UNL     1      21.322 -12.598  22.261  1.00  0.00     0.167 HD
HETATM   35  C13 UNL     1      21.367 -12.600  25.178  1.00  0.00     0.032 A 
HETATM   36  C17 UNL     1      19.613 -14.011  24.527  1.00  0.00     0.063 A 
HETATM   37  C14 UNL     1      21.121 -12.816  26.515  1.00  0.00     0.002 A 
HETATM   38  C15 UNL     1      20.070 -13.672  26.845  1.00  0.00     0.002 A 
HETATM   39  C16 UNL     1      19.324 -14.264  25.849  1.00  0.00     0.032 A 
HETATM   40  N8  UNL     1      19.036 -14.464  23.374  1.00  0.00    -0.331 N 
BRANCH  40  41
HETATM   41  C18 UNL     1      17.918 -15.364  23.365  1.00  0.00     0.157 C 
BRANCH  41  42
HETATM   42  C19 UNL     1      18.293 -16.800  23.323  1.00  0.00    -0.017 C 
HETATM   43  C20 UNL     1      18.246 -17.466  22.178  1.00  0.00     0.008 C 
ENDBRANCH  41  42
ENDBRANCH  40  41
ENDBRANCH  30  31
ENDBRANCH  28  30
ENDBRANCH   6  28
TORSDOF 12
ENDMDL
MODEL 5
REMARK VINA RESULT: -8.355993306      2.202      3.777
REMARK  12 active torsions:
REMARK  status: ('A' for Active; 'I' for Inactive)
REMARK    1  A    between atoms: C3_3  and  N1_4 
REMARK       I    between atoms: N1_4  and  C4_6 
REMARK    2  A    between atoms: C4_6  and  C5_8 
REMARK    3  A    between atoms: C5_8  and  N2_9 
REMARK    4  A    between atoms: C5_8  and  C6_13 
REMARK    5  A    between atoms: C6_13  and  N3_14 
REMARK    6  A    between atoms: N3_14  and  N4_16 
REMARK    7  A    between atoms: N6_23  and  C8_24 
REMARK    8  A    between atoms: C8_24  and  C10_26 
REMARK    9  A    between atoms: C10_26  and  C11_27 
REMARK   10  A    between atoms: N8_36  and  C18_37 
REMARK   11  A    between atoms: C18_37  and  C19_38 
REMARK   12  A    between atoms: C22_41  and  C23_42 
ROOT
HETATM    1  C1  UNL     1      12.494 -14.761  21.648  1.00  0.00     0.015 C 
HETATM    2  C2  UNL     1      13.382 -14.161  21.092  1.00  0.00    -0.075 C 
HETATM    3  C3  UNL     1      14.459 -13.430  20.388  1.00  0.00     0.189 C 
HETATM    4  C7  UNL     1      15.700 -13.687  21.151  1.00  0.00     0.262 C 
HETATM    5  O2  UNL     1      16.073 -13.093  22.191  1.00  0.00    -0.269 OA
HETATM    6  N6  UNL     1      16.478 -14.728  20.566  1.00  0.00    -0.344 N 
HETATM    7  C21 UNL     1      16.052 -14.780  19.177  1.00  0.00     0.141 C 
HETATM    8  C22 UNL     1      14.730 -14.100  19.070  1.00  0.00     0.115 C 
ENDROOT
BRANCH   3   9
HETATM    9  N1  UNL     1      14.146 -12.038  20.277  1.00  0.00    -0.331 N 
HETATM   10  C4  UNL     1      13.558 -11.331  21.349  1.00  0.00     0.251 C 
HETATM   11  O1  UNL     1      13.306 -11.942  22.415  1.00  0.00    -0.271 OA
ATOM     12  H1  UNL     1      14.353 -11.546  19.407  1.00  0.00     0.164 HD
BRANCH  10  13
HETATM   13  C5  UNL     1      13.222  -9.889  21.268  1.00  0.00     0.293 C 
BRANCH  13  14
HETATM   14  N2  UNL     1      14.363  -9.120  20.881  1.00  0.00    -0.065 N 
ATOM     15  H23 UNL     1      15.154  -9.716  20.638  1.00  0.00     0.275 HD
ATOM     16  H22 UNL     1      14.224  -8.670  19.976  1.00  0.00     0.275 HD
ATOM     17  H21 UNL     1      14.608  -8.444  21.604  1.00  0.00     0.275 HD
ENDBRANCH  13  14
BRANCH  13  18
HETATM   18  C6  UNL     1      12.668  -9.481  22.617  1.00  0.00     0.183 C 
BRANCH  18  19
HETATM   19  N3  UNL     1      11.284  -9.857  22.746  1.00  0.00    -0.320 N 
ATOM     20  H3  UNL     1      10.601  -9.571  22.045  1.00  0.00     0.181 HD
BRANCH  19  21
HETATM   21  N4  UNL     1      10.896 -10.621  23.845  1.00  0.00    -0.254 N 
HETATM   22  N5  UNL     1      10.546 -11.832  23.761  1.00  0.00    -0.331 N 
ATOM     23  H52 UNL     1      10.554 -12.258  22.834  1.00  0.00     0.178 HD
ATOM     24  H51 UNL     1      10.262 -12.391  24.566  1.00  0.00     0.178 HD
ATOM     25  H4  UNL     1      10.895 -10.179  24.765  1.00  0.00     0.207 HD
ENDBRANCH  19  21
ENDBRANCH  18  19
ENDBRANCH  13  18
ENDBRANCH  10  13
ENDBRANCH   3   9
BRANCH   8  26
HETATM   26  C23 UNL     1      13.636 -15.089  18.776  1.00  0.00     0.241 C 
HETATM   27  O3  UNL     1      13.925 -15.971  17.982  1.00  0.00    -0.306 OA
ENDBRANCH   8  26
BRANCH   6  28
HETATM   28  C8  UNL     1      17.464 -15.576  21.119  1.00  0.00     0.090 C 
HETATM   29  C9  UNL     1      17.588 -16.846  20.280  1.00  0.00     0.033 C 
BRANCH  28  30
HETATM   30  C10 UNL     1      17.302 -15.964  22.547  1.00  0.00     0.101 C 
BRANCH  30  31
HETATM   31  C11 UNL     1      18.167 -15.165  23.452  1.00  0.00     0.086 A 
HETATM   32  N7  UNL     1      18.991 -14.156  23.046  1.00  0.00    -0.344 N 
HETATM   33  C12 UNL     1      19.637 -13.643  24.102  1.00  0.00     0.060 A 
ATOM     34  H7  UNL     1      19.099 -13.839  22.082  1.00  0.00     0.167 HD
HETATM   35  C13 UNL     1      20.563 -12.642  24.304  1.00  0.00     0.032 A 
HETATM   36  C17 UNL     1      19.222 -14.336  25.211  1.00  0.00     0.063 A 
HETATM   37  C14 UNL     1      21.079 -12.311  25.535  1.00  0.00     0.002 A 
HETATM   38  C15 UNL     1      20.630 -13.040  26.638  1.00  0.00     0.002 A 
HETATM   39  C16 UNL     1      19.705 -14.047  26.468  1.00  0.00     0.032 A 
HETATM   40  N8  UNL     1      18.318 -15.266  24.783  1.00  0.00    -0.331 N 
BRANCH  40  41
HETATM   41  C18 UNL     1      17.661 -16.180  25.675  1.00  0.00     0.157 C 
BRANCH  41  42
HETATM   42  C19 UNL     1      18.373 -17.470  25.856  1.00  0.00    -0.017 C 
HETATM   43  C20 UNL     1      18.770 -17.847  27.063  1.00  0.00     0.008 C 
ENDBRANCH  41  42
ENDBRANCH  40  41
ENDBRANCH  30  31
ENDBRANCH  28  30
ENDBRANCH   6  28
TORSDOF 12
ENDMDL
