MODEL 1
REMARK VINA RESULT: -8.020530002      0.000      0.000
REMARK  12 active torsions:
REMARK  status: ('A' for Active; 'I' for Inactive)
REMARK    1  A    between atoms: C2_2  and  C3_3 
REMARK    2  A    between atoms: C3_3  and  C4_4 
REMARK    3  A    between atoms: C4_4  and  C5_5 
REMARK    4  A    between atoms: C5_5  and  C6_6 
REMARK    5  A    between atoms: C6_6  and  C7_7 
REMARK    6  A    between atoms: C7_7  and  N1_8 
REMARK       I    between atoms: N1_8  and  C9_10 
REMARK    7  A    between atoms: C9_10  and  C10_12 
REMARK    8  A    between atoms: C10_12  and  C11_13 
REMARK    9  A    between atoms: C11_13  and  C12_14 
REMARK   10  A    between atoms: C12_14  and  N2_15 
REMARK   11  A    between atoms: N4_19  and  N5_21 
REMARK   12  A    between atoms: C19_27  and  O3_28 
ROOT
HETATM    1  N2  UNL     1      16.654 -12.473  19.954  1.00  0.00     0.159 N 
HETATM    2  N3  UNL     1      16.879 -13.718  19.349  1.00  0.00    -0.022 NA
HETATM    3  C13 UNL     1      16.275 -14.849  20.048  1.00  0.00     0.198 C 
HETATM    4  C14 UNL     1      14.788 -14.704  20.238  1.00  0.00     0.031 C 
HETATM    5  N4  UNL     1      14.053 -15.707  20.325  1.00  0.00    -0.326 N 
ATOM      6  H4  UNL     1      14.555 -16.592  20.258  1.00  0.00     0.180 HD
HETATM    7  C17 UNL     1      14.431 -13.345  20.283  1.00  0.00     0.167 C 
HETATM    8  C18 UNL     1      15.703 -12.788  20.931  1.00  0.00     0.362 C 
HETATM    9  O2  UNL     1      15.720 -12.700  22.104  1.00  0.00    -0.262 OA
HETATM   10  C19 UNL     1      13.395 -12.560  20.825  1.00  0.00     0.159 C 
HETATM   11  C20 UNL     1      13.654 -11.130  20.326  1.00  0.00     0.112 C 
HETATM   12  C21 UNL     1      14.057 -10.197  21.430  1.00  0.00     0.035 C 
HETATM   13  N6  UNL     1      14.585 -11.037  19.210  1.00  0.00    -0.328 N 
ATOM     14  H6  UNL     1      14.267 -10.466  18.427  1.00  0.00     0.164 HD
HETATM   15  C22 UNL     1      15.875 -11.623  19.047  1.00  0.00     0.444 C 
HETATM   16  O4  UNL     1      16.466 -11.401  17.981  1.00  0.00    -0.237 OA
ENDROOT
BRANCH   1  17
HETATM   17  C12 UNL     1      17.768 -11.700  20.290  1.00  0.00     0.284 C 
BRANCH  17  18
HETATM   18  C11 UNL     1      19.135 -12.044  19.925  1.00  0.00     0.040 C 
BRANCH  18  19
HETATM   19  C10 UNL     1      20.049 -12.693  20.914  1.00  0.00     0.105 C 
BRANCH  19  20
HETATM   20  C9  UNL     1      19.864 -14.158  21.070  1.00  0.00     0.219 C 
HETATM   21  N1  UNL     1      19.253 -14.718  22.211  1.00  0.00    -0.356 N 
HETATM   22  C8  UNL     1      19.124 -16.183  22.259  1.00  0.00     0.152 C 
HETATM   23  O1  UNL     1      20.258 -14.924  20.167  1.00  0.00    -0.273 OA
BRANCH  21  24
HETATM   24  C7  UNL     1      18.765 -13.903  23.307  1.00  0.00     0.125 C 
BRANCH  24  25
HETATM   25  C6  UNL     1      17.899 -14.653  24.263  1.00  0.00     0.020 C 
BRANCH  25  26
HETATM   26  C5  UNL     1      18.375 -14.594  25.683  1.00  0.00     0.002 C 
BRANCH  26  27
HETATM   27  C4  UNL     1      19.862 -14.432  25.730  1.00  0.00     0.000 C 
BRANCH  27  28
HETATM   28  C3  UNL     1      20.306 -13.313  26.630  1.00  0.00    -0.000 C 
BRANCH  28  29
HETATM   29  C2  UNL     1      20.982 -12.246  25.784  1.00  0.00    -0.005 C 
HETATM   30  C1  UNL     1      21.988 -12.900  24.892  1.00  0.00     0.005 C 
ENDBRANCH  28  29
ENDBRANCH  27  28
ENDBRANCH  26  27
ENDBRANCH  25  26
ENDBRANCH  24  25
ENDBRANCH  21  24
ENDBRANCH  19  20
ENDBRANCH  18  19
ENDBRANCH  17  18
ENDBRANCH   1  17
BRANCH  10  31
HETATM   31  O3  UNL     1      13.429 -12.499  22.232  1.00  0.00    -0.392 OA
ATOM     32  H3  UNL     1      13.271 -11.625  22.569  1.00  0.00     0.210 HD
ENDBRANCH  10  31
BRANCH   5  33
HETATM   33  N5  UNL     1      12.717 -15.845  20.493  1.00  0.00    -0.240 NA
HETATM   34  C15 UNL     1      12.291 -17.076  21.119  1.00  0.00     0.135 C 
HETATM   35  C16 UNL     1      12.079 -15.703  19.175  1.00  0.00     0.135 C 
ENDBRANCH   5  33
TORSDOF 12
ENDMDL
MODEL 2
REMARK VINA RESULT: -7.659309949      0.876      1.299
REMARK  12 active torsions:
REMARK  status: ('A' for Active; 'I' for Inactive)
REMARK    1  A    between atoms: C2_2  and  C3_3 
REMARK    2  A    between atoms: C3_3  and  C4_4 
REMARK    3  A    between atoms: C4_4  and  C5_5 
REMARK    4  A    between atoms: C5_5  and  C6_6 
REMARK    5  A    between atoms: C6_6  and  C7_7 
REMARK    6  A    between atoms: C7_7  and  N1_8 
REMARK       I    between atoms: N1_8  and  C9_10 
REMARK    7  A    between atoms: C9_10  and  C10_12 
REMARK    8  A    between atoms: C10_12  and  C11_13 
REMARK    9  A    between atoms: C11_13  and  C12_14 
REMARK   10  A    between atoms: C12_14  and  N2_15 
REMARK   11  A    between atoms: N4_19  and  N5_21 
REMARK   12  A    between atoms: C19_27  and  O3_28 
ROOT
HETATM    1  N2  UNL     1      16.338 -12.565  19.985  1.00  0.00     0.159 N 
HETATM    2  N3  UNL     1      16.534 -13.799  19.350  1.00  0.00    -0.022 NA
HETATM    3  C13 UNL     1      15.907 -14.934  20.023  1.00  0.00     0.198 C 
HETATM    4  C14 UNL     1      14.424 -14.761  20.220  1.00  0.00     0.031 C 
HETATM    5  N4  UNL     1      13.668 -15.749  20.286  1.00  0.00    -0.326 N 
ATOM      6  H4  UNL     1      14.150 -16.643  20.196  1.00  0.00     0.180 HD
HETATM    7  C17 UNL     1      14.097 -13.396  20.300  1.00  0.00     0.167 C 
HETATM    8  C18 UNL     1      15.383 -12.882  20.957  1.00  0.00     0.362 C 
HETATM    9  O2  UNL     1      15.404 -12.823  22.132  1.00  0.00    -0.262 OA
HETATM   10  C19 UNL     1      13.079 -12.602  20.863  1.00  0.00     0.159 C 
HETATM   11  C20 UNL     1      13.369 -11.166  20.398  1.00  0.00     0.112 C 
HETATM   12  C21 UNL     1      13.794 -10.268  21.523  1.00  0.00     0.035 C 
HETATM   13  N6  UNL     1      14.299 -11.066  19.283  1.00  0.00    -0.328 N 
ATOM     14  H6  UNL     1      13.992 -10.469  18.514  1.00  0.00     0.164 HD
HETATM   15  C22 UNL     1      15.576 -11.676  19.102  1.00  0.00     0.444 C 
HETATM   16  O4  UNL     1      16.169 -11.442  18.039  1.00  0.00    -0.237 OA
ENDROOT
BRANCH   1  17
HETATM   17  C12 UNL     1      17.470 -11.825  20.337  1.00  0.00     0.284 C 
BRANCH  17  18
HETATM   18  C11 UNL     1      18.734 -12.420  20.745  1.00  0.00     0.040 C 
BRANCH  18  19
HETATM   19  C10 UNL     1      18.952 -12.854  22.159  1.00  0.00     0.105 C 
BRANCH  19  20
HETATM   20  C9  UNL     1      18.932 -14.322  22.374  1.00  0.00     0.219 C 
HETATM   21  N1  UNL     1      18.714 -14.889  23.647  1.00  0.00    -0.356 N 
HETATM   22  C8  UNL     1      18.716 -16.358  23.743  1.00  0.00     0.152 C 
HETATM   23  O1  UNL     1      19.111 -15.085  21.402  1.00  0.00    -0.273 OA
BRANCH  21  24
HETATM   24  C7  UNL     1      18.497 -14.078  24.829  1.00  0.00     0.125 C 
BRANCH  24  25
HETATM   25  C6  UNL     1      19.338 -14.488  25.991  1.00  0.00     0.020 C 
BRANCH  25  26
HETATM   26  C5  UNL     1      20.215 -13.393  26.518  1.00  0.00     0.002 C 
BRANCH  26  27
HETATM   27  C4  UNL     1      20.797 -12.600  25.390  1.00  0.00     0.000 C 
BRANCH  27  28
HETATM   28  C3  UNL     1      22.206 -12.998  25.053  1.00  0.00    -0.000 C 
BRANCH  28  29
HETATM   29  C2  UNL     1      22.202 -13.724  23.717  1.00  0.00    -0.005 C 
HETATM   30  C1  UNL     1      22.384 -15.188  23.961  1.00  0.00     0.005 C 
ENDBRANCH  28  29
ENDBRANCH  27  28
ENDBRANCH  26  27
ENDBRANCH  25  26
ENDBRANCH  24  25
ENDBRANCH  21  24
ENDBRANCH  19  20
ENDBRANCH  18  19
ENDBRANCH  17  18
ENDBRANCH   1  17
BRANCH  10  31
HETATM   31  O3  UNL     1      13.118 -12.576  22.271  1.00  0.00    -0.392 OA
ATOM     32  H3  UNL     1      12.736 -11.787  22.638  1.00  0.00     0.210 HD
ENDBRANCH  10  31
BRANCH   5  33
HETATM   33  N5  UNL     1      12.329 -15.862  20.454  1.00  0.00    -0.240 NA
HETATM   34  C15 UNL     1      11.877 -17.101  21.044  1.00  0.00     0.135 C 
HETATM   35  C16 UNL     1      11.691 -15.666  19.143  1.00  0.00     0.135 C 
ENDBRANCH   5  33
TORSDOF 12
ENDMDL
MODEL 3
REMARK VINA RESULT: -7.625889017      0.826      1.725
REMARK  12 active torsions:
REMARK  status: ('A' for Active; 'I' for Inactive)
REMARK    1  A    between atoms: C2_2  and  C3_3 
REMARK    2  A    between atoms: C3_3  and  C4_4 
REMARK    3  A    between atoms: C4_4  and  C5_5 
REMARK    4  A    between atoms: C5_5  and  C6_6 
REMARK    5  A    between atoms: C6_6  and  C7_7 
REMARK    6  A    between atoms: C7_7  and  N1_8 
REMARK       I    between atoms: N1_8  and  C9_10 
REMARK    7  A    between atoms: C9_10  and  C10_12 
REMARK    8  A    between atoms: C10_12  and  C11_13 
REMARK    9  A    between atoms: C11_13  and  C12_14 
REMARK   10  A    between atoms: C12_14  and  N2_15 
REMARK   11  A    between atoms: N4_19  and  N5_21 
REMARK   12  A    between atoms: C19_27  and  O3_28 
ROOT
HETATM    1  N2  UNL     1      16.554 -12.535  20.228  1.00  0.00     0.159 N 
HETATM    2  N3  UNL     1      16.786 -13.778  19.623  1.00  0.00    -0.022 NA
HETATM    3  C13 UNL     1      16.088 -14.897  20.250  1.00  0.00     0.198 C 
HETATM    4  C14 UNL     1      14.596 -14.702  20.320  1.00  0.00     0.031 C 
HETATM    5  N4  UNL     1      13.823 -15.680  20.330  1.00  0.00    -0.326 N 
ATOM      6  H4  UNL     1      14.297 -16.581  20.289  1.00  0.00     0.180 HD
HETATM    7  C17 UNL     1      14.282 -13.333  20.359  1.00  0.00     0.167 C 
HETATM    8  C18 UNL     1      15.515 -12.830  21.119  1.00  0.00     0.362 C 
HETATM    9  O2  UNL     1      15.438 -12.759  22.290  1.00  0.00    -0.262 OA
HETATM   10  C19 UNL     1      13.232 -12.519  20.828  1.00  0.00     0.159 C 
HETATM   11  C20 UNL     1      13.580 -11.092  20.376  1.00  0.00     0.112 C 
HETATM   12  C21 UNL     1      13.922 -10.189  21.525  1.00  0.00     0.035 C 
HETATM   13  N6  UNL     1      14.603 -11.016  19.343  1.00  0.00    -0.328 N 
ATOM     14  H6  UNL     1      14.370 -10.423  18.545  1.00  0.00     0.164 HD
HETATM   15  C22 UNL     1      15.882 -11.645  19.276  1.00  0.00     0.444 C 
HETATM   16  O4  UNL     1      16.566 -11.429  18.265  1.00  0.00    -0.237 OA
ENDROOT
BRANCH   1  17
HETATM   17  C12 UNL     1      17.662 -11.807  20.668  1.00  0.00     0.284 C 
BRANCH  17  18
HETATM   18  C11 UNL     1      18.632 -12.307  21.632  1.00  0.00     0.040 C 
BRANCH  18  19
HETATM   19  C10 UNL     1      19.858 -13.029  21.176  1.00  0.00     0.105 C 
BRANCH  19  20
HETATM   20  C9  UNL     1      20.085 -14.348  21.818  1.00  0.00     0.219 C 
HETATM   21  N1  UNL     1      21.063 -14.535  22.817  1.00  0.00    -0.356 N 
HETATM   22  C8  UNL     1      21.201 -15.887  23.384  1.00  0.00     0.152 C 
HETATM   23  O1  UNL     1      19.391 -15.325  21.471  1.00  0.00    -0.273 OA
BRANCH  21  24
HETATM   24  C7  UNL     1      21.912 -13.456  23.281  1.00  0.00     0.125 C 
BRANCH  24  25
HETATM   25  C6  UNL     1      21.951 -13.330  24.768  1.00  0.00     0.020 C 
BRANCH  25  26
HETATM   26  C5  UNL     1      20.787 -12.580  25.341  1.00  0.00     0.002 C 
BRANCH  26  27
HETATM   27  C4  UNL     1      20.239 -13.298  26.536  1.00  0.00     0.000 C 
BRANCH  27  28
HETATM   28  C3  UNL     1      19.422 -14.506  26.175  1.00  0.00    -0.000 C 
BRANCH  28  29
HETATM   29  C2  UNL     1      18.386 -14.103  25.139  1.00  0.00    -0.005 C 
HETATM   30  C1  UNL     1      17.710 -15.333  24.624  1.00  0.00     0.005 C 
ENDBRANCH  28  29
ENDBRANCH  27  28
ENDBRANCH  26  27
ENDBRANCH  25  26
ENDBRANCH  24  25
ENDBRANCH  21  24
ENDBRANCH  19  20
ENDBRANCH  18  19
ENDBRANCH  17  18
ENDBRANCH   1  17
BRANCH  10  31
HETATM   31  O3  UNL     1      13.152 -12.480  22.234  1.00  0.00    -0.392 OA
ATOM     32  H3  UNL     1      12.684 -11.719  22.557  1.00  0.00     0.210 HD
ENDBRANCH  10  31
BRANCH   5  33
HETATM   33  N5  UNL     1      12.473 -15.773  20.385  1.00  0.00    -0.240 NA
HETATM   34  C15 UNL     1      11.955 -16.960  21.027  1.00  0.00     0.135 C 
HETATM   35  C16 UNL     1      11.957 -15.678  19.011  1.00  0.00     0.135 C 
ENDBRANCH   5  33
TORSDOF 12
ENDMDL
MODEL 4
REMARK VINA RESULT: -7.390150953      1.214      1.263
REMARK  12 active torsions:
REMARK  status: ('A' for Active; 'I' for Inactive)
REMARK    1  A    between atoms: C2_2  and  C3_3 
REMARK    2  A    between atoms: C3_3  and  C4_4 
REMARK    3  A    between atoms: C4_4  and  C5_5 
REMARK    4  A    between atoms: C5_5  and  C6_6 
REMARK    5  A    between atoms: C6_6  and  C7_7 
REMARK    6  A    between atoms: C7_7  and  N1_8 
REMARK       I    between atoms: N1_8  and  C9_10 
REMARK    7  A    between atoms: C9_10  and  C10_12 
REMARK    8  A    between atoms: C10_12  and  C11_13 
REMARK    9  A    between atoms: C11_13  and  C12_14 
REMARK   10  A    between atoms: C12_14  and  N2_15 
REMARK   11  A    between atoms: N4_19  and  N5_21 
REMARK   12  A    between atoms: C19_27  and  O3_28 
ROOT
HETATM    1  N2  UNL     1      15.542 -12.881  19.667  1.00  0.00     0.159 N 
HETATM    2  N3  UNL     1      15.650 -13.912  18.723  1.00  0.00    -0.022 NA
HETATM    3  C13 UNL     1      15.083 -15.188  19.151  1.00  0.00     0.198 C 
HETATM    4  C14 UNL     1      13.633 -15.090  19.546  1.00  0.00     0.031 C 
HETATM    5  N4  UNL     1      12.873 -16.073  19.441  1.00  0.00    -0.326 N 
ATOM      6  H4  UNL     1      13.329 -16.909  19.077  1.00  0.00     0.180 HD
HETATM    7  C17 UNL     1      13.336 -13.795  20.003  1.00  0.00     0.167 C 
HETATM    8  C18 UNL     1      14.693 -13.447  20.625  1.00  0.00     0.362 C 
HETATM    9  O2  UNL     1      14.843 -13.687  21.767  1.00  0.00    -0.262 OA
HETATM   10  C19 UNL     1      12.398 -13.182  20.857  1.00  0.00     0.159 C 
HETATM   11  C20 UNL     1      12.656 -11.672  20.741  1.00  0.00     0.112 C 
HETATM   12  C21 UNL     1      13.215 -11.083  22.003  1.00  0.00     0.035 C 
HETATM   13  N6  UNL     1      13.462 -11.281  19.593  1.00  0.00    -0.328 N 
ATOM     14  H6  UNL     1      13.081 -10.513  19.038  1.00  0.00     0.164 HD
HETATM   15  C22 UNL     1      14.702 -11.808  19.125  1.00  0.00     0.444 C 
HETATM   16  O4  UNL     1      15.179 -11.305  18.099  1.00  0.00    -0.237 OA
ENDROOT
BRANCH   1  17
HETATM   17  C12 UNL     1      16.716 -12.240  20.069  1.00  0.00     0.284 C 
BRANCH  17  18
HETATM   18  C11 UNL     1      17.963 -12.934  20.355  1.00  0.00     0.040 C 
BRANCH  18  19
HETATM   19  C10 UNL     1      18.617 -12.809  21.694  1.00  0.00     0.105 C 
BRANCH  19  20
HETATM   20  C9  UNL     1      19.735 -13.755  21.936  1.00  0.00     0.219 C 
HETATM   21  N1  UNL     1      19.553 -14.964  22.639  1.00  0.00    -0.356 N 
HETATM   22  C8  UNL     1      20.733 -15.825  22.821  1.00  0.00     0.152 C 
HETATM   23  O1  UNL     1      20.873 -13.479  21.505  1.00  0.00    -0.273 OA
BRANCH  21  24
HETATM   24  C7  UNL     1      18.265 -15.363  23.172  1.00  0.00     0.125 C 
BRANCH  24  25
HETATM   25  C6  UNL     1      18.266 -15.538  24.654  1.00  0.00     0.020 C 
BRANCH  25  26
HETATM   26  C5  UNL     1      18.578 -14.283  25.411  1.00  0.00     0.002 C 
BRANCH  26  27
HETATM   27  C4  UNL     1      19.894 -14.408  26.113  1.00  0.00     0.000 C 
BRANCH  27  28
HETATM   28  C3  UNL     1      20.426 -13.093  26.607  1.00  0.00    -0.000 C 
BRANCH  28  29
HETATM   29  C2  UNL     1      20.999 -12.324  25.428  1.00  0.00    -0.005 C 
HETATM   30  C1  UNL     1      22.183 -13.065  24.896  1.00  0.00     0.005 C 
ENDBRANCH  28  29
ENDBRANCH  27  28
ENDBRANCH  26  27
ENDBRANCH  25  26
ENDBRANCH  24  25
ENDBRANCH  21  24
ENDBRANCH  19  20
ENDBRANCH  18  19
ENDBRANCH  17  18
ENDBRANCH   1  17
BRANCH  10  31
HETATM   31  O3  UNL     1      12.590 -13.513  22.213  1.00  0.00    -0.392 OA
ATOM     32  H3  UNL     1      13.504 -13.636  22.439  1.00  0.00     0.210 HD
ENDBRANCH  10  31
BRANCH   5  33
HETATM   33  N5  UNL     1      11.559 -16.243  19.720  1.00  0.00    -0.240 NA
HETATM   34  C15 UNL     1      11.248 -17.324  20.627  1.00  0.00     0.135 C 
HETATM   35  C16 UNL     1      10.848 -16.432  18.447  1.00  0.00     0.135 C 
ENDBRANCH   5  33
TORSDOF 12
ENDMDL
MODEL 5
REMARK VINA RESULT: -7.268579608      1.104      2.122
REMARK  12 active torsions:
REMARK  status: ('A' for Active; 'I' for Inactive)
REMARK    1  A    between atoms: C2_2  and  C3_3 
REMARK    2  A    between atoms: C3_3  and  C4_4 
REMARK    3  A    between atoms: C4_4  and  C5_5 
REMARK    4  A    between atoms: C5_5  and  C6_6 
REMARK    5  A    between atoms: C6_6  and  C7_7 
REMARK    6  A    between atoms: C7_7  and  N1_8 
REMARK       I    between atoms: N1_8  and  C9_10 
REMARK    7  A    between atoms: C9_10  and  C10_12 
REMARK    8  A    between atoms: C10_12  and  C11_13 
REMARK    9  A    between atoms: C11_13  and  C12_14 
REMARK   10  A    between atoms: C12_14  and  N2_15 
REMARK   11  A    between atoms: N4_19  and  N5_21 
REMARK   12  A    between atoms: C19_27  and  O3_28 
ROOT
HETATM    1  N2  UNL     1      16.519 -12.482  20.166  1.00  0.00     0.159 N 
HETATM    2  N3  UNL     1      16.766 -13.724  19.566  1.00  0.00    -0.022 NA
HETATM    3  C13 UNL     1      16.108 -14.854  20.217  1.00  0.00     0.198 C 
HETATM    4  C14 UNL     1      14.614 -14.693  20.317  1.00  0.00     0.031 C 
HETATM    5  N4  UNL     1      13.863 -15.687  20.351  1.00  0.00    -0.326 N 
ATOM      6  H4  UNL     1      14.358 -16.578  20.307  1.00  0.00     0.180 HD
HETATM    7  C17 UNL     1      14.269 -13.330  20.352  1.00  0.00     0.167 C 
HETATM    8  C18 UNL     1      15.506 -12.793  21.081  1.00  0.00     0.362 C 
HETATM    9  O2  UNL     1      15.453 -12.715  22.254  1.00  0.00    -0.262 OA
HETATM   10  C19 UNL     1      13.211 -12.537  20.837  1.00  0.00     0.159 C 
HETATM   11  C20 UNL     1      13.517 -11.106  20.368  1.00  0.00     0.112 C 
HETATM   12  C21 UNL     1      13.862 -10.186  21.502  1.00  0.00     0.035 C 
HETATM   13  N6  UNL     1      14.515 -11.015  19.312  1.00  0.00    -0.328 N 
ATOM     14  H6  UNL     1      14.252 -10.434  18.515  1.00  0.00     0.164 HD
HETATM   15  C22 UNL     1      15.806 -11.615  19.222  1.00  0.00     0.444 C 
HETATM   16  O4  UNL     1      16.463 -11.392  18.195  1.00  0.00    -0.237 OA
ENDROOT
BRANCH   1  17
HETATM   17  C12 UNL     1      17.619 -11.725  20.577  1.00  0.00     0.284 C 
BRANCH  17  18
HETATM   18  C11 UNL     1      18.880 -12.301  21.021  1.00  0.00     0.040 C 
BRANCH  18  19
HETATM   19  C10 UNL     1      18.987 -12.966  22.356  1.00  0.00     0.105 C 
BRANCH  19  20
HETATM   20  C9  UNL     1      20.253 -13.707  22.586  1.00  0.00     0.219 C 
HETATM   21  N1  UNL     1      20.942 -13.646  23.815  1.00  0.00    -0.356 N 
HETATM   22  C8  UNL     1      22.188 -14.422  23.931  1.00  0.00     0.152 C 
HETATM   23  O1  UNL     1      20.725 -14.410  21.670  1.00  0.00    -0.273 OA
BRANCH  21  24
HETATM   24  C7  UNL     1      20.464 -12.855  24.933  1.00  0.00     0.125 C 
BRANCH  24  25
HETATM   25  C6  UNL     1      20.115 -13.674  26.131  1.00  0.00     0.020 C 
BRANCH  25  26
HETATM   26  C5  UNL     1      18.850 -14.463  25.976  1.00  0.00     0.002 C 
BRANCH  26  27
HETATM   27  C4  UNL     1      19.142 -15.931  26.004  1.00  0.00     0.000 C 
BRANCH  27  28
HETATM   28  C3  UNL     1      18.993 -16.588  24.662  1.00  0.00    -0.000 C 
BRANCH  28  29
HETATM   29  C2  UNL     1      17.690 -16.121  24.032  1.00  0.00    -0.005 C 
HETATM   30  C1  UNL     1      16.613 -17.103  24.362  1.00  0.00     0.005 C 
ENDBRANCH  28  29
ENDBRANCH  27  28
ENDBRANCH  26  27
ENDBRANCH  25  26
ENDBRANCH  24  25
ENDBRANCH  21  24
ENDBRANCH  19  20
ENDBRANCH  18  19
ENDBRANCH  17  18
ENDBRANCH   1  17
BRANCH  10  31
HETATM   31  O3  UNL     1      13.160 -12.488  22.244  1.00  0.00    -0.392 OA
ATOM     32  H3  UNL     1      13.412 -13.308  22.654  1.00  0.00     0.210 HD
ENDBRANCH  10  31
BRANCH   5  33
HETATM   33  N5  UNL     1      12.518 -15.811  20.436  1.00  0.00    -0.240 NA
HETATM   34  C15 UNL     1      12.040 -17.029  21.049  1.00  0.00     0.135 C 
HETATM   35  C16 UNL     1      11.965 -15.680  19.079  1.00  0.00     0.135 C 
ENDBRANCH   5  33
TORSDOF 12
ENDMDL
