MODEL 1
REMARK VINA RESULT: -7.603706407      0.000      0.000
REMARK  12 active torsions:
REMARK  status: ('A' for Active; 'I' for Inactive)
REMARK    1  A    between atoms: C2_2  and  N1_3 
REMARK    2  A    between atoms: C4_5  and  N2_6 
REMARK    3  A    between atoms: C4_5  and  C18_25 
REMARK    4  A    between atoms: C5_8  and  C6_9 
REMARK    5  A    between atoms: C5_8  and  C15_20 
REMARK    6  A    between atoms: C6_9  and  C7_10 
REMARK       I    between atoms: C15_20  and  N4_22 
REMARK    7  A    between atoms: C18_25  and  N5_26 
REMARK    8  A    between atoms: C18_25  and  C21_38 
REMARK       I    between atoms: N5_26  and  C19_28 
REMARK    9  A    between atoms: C19_28  and  C20_30 
REMARK   10  A    between atoms: C20_30  and  N6_31 
REMARK   11  A    between atoms: N6_31  and  N7_33 
REMARK   12  A    between atoms: N7_33  and  N8_35 
ROOT
HETATM    1  N1  UNL     1      14.764 -14.311  20.170  1.00  0.00    -0.373 N 
HETATM    2  C3  UNL     1      14.962 -15.761  20.388  1.00  0.00     0.150 C 
HETATM    3  C4  UNL     1      15.771 -13.511  20.036  1.00  0.00     0.111 C 
ENDROOT
BRANCH   3   4
HETATM    4  N2  UNL     1      17.034 -14.122  20.106  1.00  0.00    -0.343 N 
HETATM    5  C5  UNL     1      17.807 -14.313  21.133  1.00  0.00     0.083 C 
ATOM      6  H2  UNL     1      17.399 -14.467  19.218  1.00  0.00     0.167 HD
BRANCH   5   7
HETATM    7  C6  UNL     1      17.308 -13.831  22.409  1.00  0.00     0.104 C 
BRANCH   7   8
HETATM    8  C7  UNL     1      17.857 -14.407  23.645  1.00  0.00    -0.025 A 
HETATM    9  C8  UNL     1      17.428 -15.496  24.364  1.00  0.00     0.096 A 
HETATM   10  N3  UNL     1      18.268 -15.704  25.376  1.00  0.00    -0.365 N 
HETATM   11  C9  UNL     1      19.255 -14.792  25.371  1.00  0.00     0.042 A 
ATOM     12  H3  UNL     1      18.174 -16.453  26.062  1.00  0.00     0.165 HD
HETATM   13  C10 UNL     1      20.333 -14.570  26.221  1.00  0.00     0.030 A 
HETATM   14  C14 UNL     1      19.012 -13.960  24.279  1.00  0.00    -0.002 A 
HETATM   15  C11 UNL     1      21.145 -13.501  25.949  1.00  0.00     0.002 A 
HETATM   16  C12 UNL     1      20.923 -12.655  24.869  1.00  0.00     0.001 A 
HETATM   17  C13 UNL     1      19.866 -12.891  24.051  1.00  0.00     0.014 A 
ENDBRANCH   7   8
ENDBRANCH   5   7
BRANCH   5  18
HETATM   18  C15 UNL     1      19.083 -14.911  20.823  1.00  0.00     0.265 C 
HETATM   19  O1  UNL     1      20.071 -14.162  20.467  1.00  0.00    -0.266 OA
HETATM   20  N4  UNL     1      19.387 -16.280  20.865  1.00  0.00    -0.356 N 
HETATM   21  C16 UNL     1      20.738 -16.769  20.539  1.00  0.00     0.152 C 
HETATM   22  C17 UNL     1      18.424 -17.285  21.209  1.00  0.00     0.152 C 
ENDBRANCH   5  18
ENDBRANCH   3   4
BRANCH   3  23
HETATM   23  C18 UNL     1      15.696 -12.052  19.846  1.00  0.00     0.241 C 
BRANCH  23  24
HETATM   24  N5  UNL     1      15.191 -11.273  20.923  1.00  0.00    -0.340 N 
HETATM   25  C19 UNL     1      14.068 -10.440  20.737  1.00  0.00     0.237 C 
HETATM   26  O2  UNL     1      13.520 -10.389  19.612  1.00  0.00    -0.272 OA
ATOM     27  H5  UNL     1      15.644 -11.317  21.836  1.00  0.00     0.163 HD
BRANCH  25  28
HETATM   28  C20 UNL     1      13.492  -9.606  21.837  1.00  0.00     0.243 C 
BRANCH  28  29
HETATM   29  N6  UNL     1      12.060  -9.769  21.819  1.00  0.00    -0.314 N 
ATOM     30  H6  UNL     1      11.530  -9.281  21.097  1.00  0.00     0.182 HD
BRANCH  29  31
HETATM   31  N7  UNL     1      11.359 -10.553  22.730  1.00  0.00    -0.253 N 
ATOM     32  H7  UNL     1      11.161 -11.527  22.499  1.00  0.00     0.207 HD
BRANCH  31  33
HETATM   33  N8  UNL     1      10.954 -10.079  23.859  1.00  0.00    -0.331 N 
ATOM     34  H82 UNL     1      11.555  -9.414  24.347  1.00  0.00     0.178 HD
ATOM     35  H81 UNL     1      10.058 -10.352  24.263  1.00  0.00     0.178 HD
ENDBRANCH  31  33
ENDBRANCH  29  31
ENDBRANCH  28  29
ENDBRANCH  25  28
ENDBRANCH  23  24
BRANCH  23  36
HETATM   36  C21 UNL     1      16.981 -11.464  19.321  1.00  0.00     0.261 C 
HETATM   37  N9  UNL     1      17.146 -11.401  17.920  1.00  0.00    -0.060 NA
HETATM   38  O3  UNL     1      17.872 -11.043  20.107  1.00  0.00    -0.274 OA
ENDBRANCH  23  36
ENDBRANCH   3  23
BRANCH   1  39
HETATM   39  C2  UNL     1      13.367 -13.948  20.137  1.00  0.00     0.119 C 
HETATM   40  C1  UNL     1      12.800 -13.870  21.553  1.00  0.00     0.026 C 
ENDBRANCH   1  39
TORSDOF 12
ENDMDL
MODEL 2
REMARK VINA RESULT: -7.379136393      2.125      3.148
REMARK  12 active torsions:
REMARK  status: ('A' for Active; 'I' for Inactive)
REMARK    1  A    between atoms: C2_2  and  N1_3 
REMARK    2  A    between atoms: C4_5  and  N2_6 
REMARK    3  A    between atoms: C4_5  and  C18_25 
REMARK    4  A    between atoms: C5_8  and  C6_9 
REMARK    5  A    between atoms: C5_8  and  C15_20 
REMARK    6  A    between atoms: C6_9  and  C7_10 
REMARK       I    between atoms: C15_20  and  N4_22 
REMARK    7  A    between atoms: C18_25  and  N5_26 
REMARK    8  A    between atoms: C18_25  and  C21_38 
REMARK       I    between atoms: N5_26  and  C19_28 
REMARK    9  A    between atoms: C19_28  and  C20_30 
REMARK   10  A    between atoms: C20_30  and  N6_31 
REMARK   11  A    between atoms: N6_31  and  N7_33 
REMARK   12  A    between atoms: N7_33  and  N8_35 
ROOT
HETATM    1  N1  UNL     1      16.056 -13.461  19.873  1.00  0.00    -0.373 N 
HETATM    2  C3  UNL     1      17.323 -14.115  19.478  1.00  0.00     0.150 C 
HETATM    3  C4  UNL     1      15.397 -13.853  20.914  1.00  0.00     0.111 C 
ENDROOT
BRANCH   3   4
HETATM    4  N2  UNL     1      15.976 -14.920  21.621  1.00  0.00    -0.343 N 
HETATM    5  C5  UNL     1      16.968 -14.916  22.461  1.00  0.00     0.083 C 
ATOM      6  H2  UNL     1      15.555 -15.834  21.451  1.00  0.00     0.167 HD
BRANCH   5   7
HETATM    7  C6  UNL     1      17.584 -13.627  22.721  1.00  0.00     0.104 C 
BRANCH   7   8
HETATM    8  C7  UNL     1      19.046 -13.553  22.838  1.00  0.00    -0.025 A 
HETATM    9  C8  UNL     1      19.995 -13.434  21.852  1.00  0.00     0.096 A 
HETATM   10  N3  UNL     1      21.196 -13.328  22.417  1.00  0.00    -0.365 N 
HETATM   11  C9  UNL     1      21.097 -13.371  23.757  1.00  0.00     0.042 A 
ATOM     12  H3  UNL     1      22.071 -13.227  21.904  1.00  0.00     0.165 HD
HETATM   13  C10 UNL     1      22.048 -13.334  24.770  1.00  0.00     0.030 A 
HETATM   14  C14 UNL     1      19.740 -13.513  24.044  1.00  0.00    -0.002 A 
HETATM   15  C11 UNL     1      21.604 -13.447  26.062  1.00  0.00     0.002 A 
HETATM   16  C12 UNL     1      20.258 -13.592  26.374  1.00  0.00     0.001 A 
HETATM   17  C13 UNL     1      19.346 -13.624  25.369  1.00  0.00     0.014 A 
ENDBRANCH   7   8
ENDBRANCH   5   7
BRANCH   5  18
HETATM   18  C15 UNL     1      17.351 -16.221  22.944  1.00  0.00     0.265 C 
HETATM   19  O1  UNL     1      16.888 -16.648  24.069  1.00  0.00    -0.266 OA
HETATM   20  N4  UNL     1      18.212 -17.123  22.299  1.00  0.00    -0.356 N 
HETATM   21  C16 UNL     1      18.515 -18.438  22.888  1.00  0.00     0.152 C 
HETATM   22  C17 UNL     1      18.856 -16.832  21.051  1.00  0.00     0.152 C 
ENDBRANCH   5  18
ENDBRANCH   3   4
BRANCH   3  23
HETATM   23  C18 UNL     1      14.115 -13.301  21.384  1.00  0.00     0.241 C 
BRANCH  23  24
HETATM   24  N5  UNL     1      13.925 -11.896  21.277  1.00  0.00    -0.340 N 
HETATM   25  C19 UNL     1      12.978 -11.239  22.091  1.00  0.00     0.237 C 
HETATM   26  O2  UNL     1      12.303 -11.906  22.908  1.00  0.00    -0.272 OA
ATOM     27  H5  UNL     1      14.476 -11.359  20.607  1.00  0.00     0.163 HD
BRANCH  25  28
HETATM   28  C20 UNL     1      12.744  -9.764  22.026  1.00  0.00     0.243 C 
BRANCH  28  29
HETATM   29  N6  UNL     1      12.310  -9.321  23.326  1.00  0.00    -0.314 N 
ATOM     30  H6  UNL     1      12.964  -8.782  23.894  1.00  0.00     0.182 HD
BRANCH  29  31
HETATM   31  N7  UNL     1      11.049  -9.586  23.852  1.00  0.00    -0.253 N 
ATOM     32  H7  UNL     1      10.237  -9.105  23.465  1.00  0.00     0.207 HD
BRANCH  31  33
HETATM   33  N8  UNL     1      10.883 -10.425  24.819  1.00  0.00    -0.331 N 
ATOM     34  H82 UNL     1      11.698 -10.687  25.375  1.00  0.00     0.178 HD
ATOM     35  H81 UNL     1       9.968 -10.822  25.030  1.00  0.00     0.178 HD
ENDBRANCH  31  33
ENDBRANCH  29  31
ENDBRANCH  28  29
ENDBRANCH  25  28
ENDBRANCH  23  24
BRANCH  23  36
HETATM   36  C21 UNL     1      12.922 -14.042  20.834  1.00  0.00     0.261 C 
HETATM   37  N9  UNL     1      12.556 -15.251  21.466  1.00  0.00    -0.060 NA
HETATM   38  O3  UNL     1      12.277 -13.595  19.848  1.00  0.00    -0.274 OA
ENDBRANCH  23  36
ENDBRANCH   3  23
BRANCH   1  39
HETATM   39  C2  UNL     1      15.688 -12.392  18.976  1.00  0.00     0.119 C 
HETATM   40  C1  UNL     1      16.870 -12.004  18.091  1.00  0.00     0.026 C 
ENDBRANCH   1  39
TORSDOF 12
ENDMDL
MODEL 3
REMARK VINA RESULT: -7.280746158      2.473      7.252
REMARK  12 active torsions:
REMARK  status: ('A' for Active; 'I' for Inactive)
REMARK    1  A    between atoms: C2_2  and  N1_3 
REMARK    2  A    between atoms: C4_5  and  N2_6 
REMARK    3  A    between atoms: C4_5  and  C18_25 
REMARK    4  A    between atoms: C5_8  and  C6_9 
REMARK    5  A    between atoms: C5_8  and  C15_20 
REMARK    6  A    between atoms: C6_9  and  C7_10 
REMARK       I    between atoms: C15_20  and  N4_22 
REMARK    7  A    between atoms: C18_25  and  N5_26 
REMARK    8  A    between atoms: C18_25  and  C21_38 
REMARK       I    between atoms: N5_26  and  C19_28 
REMARK    9  A    between atoms: C19_28  and  C20_30 
REMARK   10  A    between atoms: C20_30  and  N6_31 
REMARK   11  A    between atoms: N6_31  and  N7_33 
REMARK   12  A    between atoms: N7_33  and  N8_35 
ROOT
HETATM    1  N1  UNL     1      18.693 -13.186  19.719  1.00  0.00    -0.373 N 
HETATM    2  C3  UNL     1      17.901 -12.553  18.640  1.00  0.00     0.150 C 
HETATM    3  C4  UNL     1      18.234 -14.197  20.381  1.00  0.00     0.111 C 
ENDROOT
BRANCH   3   4
HETATM    4  N2  UNL     1      16.956 -14.635  19.994  1.00  0.00    -0.343 N 
HETATM    5  C5  UNL     1      15.789 -14.310  20.466  1.00  0.00     0.083 C 
ATOM      6  H2  UNL     1      16.942 -15.308  19.227  1.00  0.00     0.167 HD
BRANCH   5   7
HETATM    7  C6  UNL     1      15.783 -13.352  21.557  1.00  0.00     0.104 C 
BRANCH   7   8
HETATM    8  C7  UNL     1      15.290 -11.992  21.301  1.00  0.00    -0.025 A 
HETATM    9  C8  UNL     1      15.931 -10.930  20.709  1.00  0.00     0.096 A 
HETATM   10  N3  UNL     1      15.079  -9.910  20.614  1.00  0.00    -0.365 N 
HETATM   11  C9  UNL     1      13.880 -10.242  21.122  1.00  0.00     0.042 A 
ATOM     12  H3  UNL     1      15.307  -9.002  20.210  1.00  0.00     0.165 HD
HETATM   13  C10 UNL     1      12.698  -9.528  21.281  1.00  0.00     0.030 A 
HETATM   14  C14 UNL     1      13.994 -11.560  21.562  1.00  0.00    -0.002 A 
HETATM   15  C11 UNL     1      11.649 -10.166  21.891  1.00  0.00     0.002 A 
HETATM   16  C12 UNL     1      11.738 -11.477  22.341  1.00  0.00     0.001 A 
HETATM   17  C13 UNL     1      12.901 -12.156  22.174  1.00  0.00     0.014 A 
ENDBRANCH   7   8
ENDBRANCH   5   7
BRANCH   5  18
HETATM   18  C15 UNL     1      14.682 -15.021  19.875  1.00  0.00     0.265 C 
HETATM   19  O1  UNL     1      14.141 -14.576  18.792  1.00  0.00    -0.266 OA
HETATM   20  N4  UNL     1      14.098 -16.199  20.366  1.00  0.00    -0.356 N 
HETATM   21  C16 UNL     1      12.977 -16.843  19.660  1.00  0.00     0.152 C 
HETATM   22  C17 UNL     1      14.531 -16.844  21.571  1.00  0.00     0.152 C 
ENDBRANCH   5  18
ENDBRANCH   3   4
BRANCH   3  23
HETATM   23  C18 UNL     1      18.916 -14.885  21.490  1.00  0.00     0.241 C 
BRANCH  23  24
HETATM   24  N5  UNL     1      18.950 -14.229  22.751  1.00  0.00    -0.340 N 
HETATM   25  C19 UNL     1      20.183 -13.869  23.335  1.00  0.00     0.237 C 
HETATM   26  O2  UNL     1      21.248 -14.136  22.735  1.00  0.00    -0.272 OA
ATOM     27  H5  UNL     1      18.078 -14.017  23.236  1.00  0.00     0.163 HD
BRANCH  25  28
HETATM   28  C20 UNL     1      20.276 -13.170  24.654  1.00  0.00     0.243 C 
BRANCH  28  29
HETATM   29  N6  UNL     1      21.631 -12.711  24.823  1.00  0.00    -0.314 N 
ATOM     30  H6  UNL     1      21.811 -11.709  24.756  1.00  0.00     0.182 HD
BRANCH  29  31
HETATM   31  N7  UNL     1      22.708 -13.555  25.075  1.00  0.00    -0.253 N 
ATOM     32  H7  UNL     1      22.686 -14.160  25.896  1.00  0.00     0.207 HD
BRANCH  31  33
HETATM   33  N8  UNL     1      23.735 -13.591  24.294  1.00  0.00    -0.331 N 
ATOM     34  H82 UNL     1      24.206 -12.712  24.076  1.00  0.00     0.178 HD
ATOM     35  H81 UNL     1      24.075 -14.467  23.899  1.00  0.00     0.178 HD
ENDBRANCH  31  33
ENDBRANCH  29  31
ENDBRANCH  28  29
ENDBRANCH  25  28
ENDBRANCH  23  24
BRANCH  23  36
HETATM   36  C21 UNL     1      18.475 -16.318  21.648  1.00  0.00     0.261 C 
HETATM   37  N9  UNL     1      17.953 -16.707  22.902  1.00  0.00    -0.060 NA
HETATM   38  O3  UNL     1      18.567 -17.136  20.693  1.00  0.00    -0.274 OA
ENDBRANCH  23  36
ENDBRANCH   3  23
BRANCH   1  39
HETATM   39  C2  UNL     1      19.970 -12.542  19.910  1.00  0.00     0.119 C 
HETATM   40  C1  UNL     1      20.436 -11.879  18.616  1.00  0.00     0.026 C 
ENDBRANCH   1  39
TORSDOF 12
ENDMDL
MODEL 4
REMARK VINA RESULT: -7.234694792      1.907      2.749
REMARK  12 active torsions:
REMARK  status: ('A' for Active; 'I' for Inactive)
REMARK    1  A    between atoms: C2_2  and  N1_3 
REMARK    2  A    between atoms: C4_5  and  N2_6 
REMARK    3  A    between atoms: C4_5  and  C18_25 
REMARK    4  A    between atoms: C5_8  and  C6_9 
REMARK    5  A    between atoms: C5_8  and  C15_20 
REMARK    6  A    between atoms: C6_9  and  C7_10 
REMARK       I    between atoms: C15_20  and  N4_22 
REMARK    7  A    between atoms: C18_25  and  N5_26 
REMARK    8  A    between atoms: C18_25  and  C21_38 
REMARK       I    between atoms: N5_26  and  C19_28 
REMARK    9  A    between atoms: C19_28  and  C20_30 
REMARK   10  A    between atoms: C20_30  and  N6_31 
REMARK   11  A    between atoms: N6_31  and  N7_33 
REMARK   12  A    between atoms: N7_33  and  N8_35 
ROOT
HETATM    1  N1  UNL     1      17.289 -12.882  19.876  1.00  0.00    -0.373 N 
HETATM    2  C3  UNL     1      18.692 -13.350  19.801  1.00  0.00     0.150 C 
HETATM    3  C4  UNL     1      16.370 -13.607  20.424  1.00  0.00     0.111 C 
ENDROOT
BRANCH   3   4
HETATM    4  N2  UNL     1      16.807 -14.840  20.936  1.00  0.00    -0.343 N 
HETATM    5  C5  UNL     1      17.243 -15.138  22.123  1.00  0.00     0.083 C 
ATOM      6  H2  UNL     1      16.776 -15.619  20.277  1.00  0.00     0.167 HD
BRANCH   5   7
HETATM    7  C6  UNL     1      17.295 -14.047  23.080  1.00  0.00     0.104 C 
BRANCH   7   8
HETATM    8  C7  UNL     1      18.134 -14.195  24.276  1.00  0.00    -0.025 A 
HETATM    9  C8  UNL     1      17.795 -14.647  25.528  1.00  0.00     0.096 A 
HETATM   10  N3  UNL     1      18.889 -14.686  26.286  1.00  0.00    -0.365 N 
HETATM   11  C9  UNL     1      19.964 -14.275  25.591  1.00  0.00     0.042 A 
ATOM     12  H3  UNL     1      18.909 -14.987  27.260  1.00  0.00     0.165 HD
HETATM   13  C10 UNL     1      21.300 -14.109  25.939  1.00  0.00     0.030 A 
HETATM   14  C14 UNL     1      19.505 -13.960  24.313  1.00  0.00    -0.002 A 
HETATM   15  C11 UNL     1      22.148 -13.618  24.981  1.00  0.00     0.002 A 
HETATM   16  C12 UNL     1      21.716 -13.293  23.702  1.00  0.00     0.001 A 
HETATM   17  C13 UNL     1      20.408 -13.466  23.382  1.00  0.00     0.014 A 
ENDBRANCH   7   8
ENDBRANCH   5   7
BRANCH   5  18
HETATM   18  C15 UNL     1      17.684 -16.503  22.277  1.00  0.00     0.265 C 
HETATM   19  O1  UNL     1      18.844 -16.855  21.836  1.00  0.00    -0.266 OA
HETATM   20  N4  UNL     1      16.960 -17.543  22.881  1.00  0.00    -0.356 N 
HETATM   21  C16 UNL     1      17.527 -18.898  22.992  1.00  0.00     0.152 C 
HETATM   22  C17 UNL     1      15.640 -17.371  23.412  1.00  0.00     0.152 C 
ENDBRANCH   5  18
ENDBRANCH   3   4
BRANCH   3  23
HETATM   23  C18 UNL     1      14.943 -13.259  20.528  1.00  0.00     0.241 C 
BRANCH  23  24
HETATM   24  N5  UNL     1      14.607 -11.882  20.643  1.00  0.00    -0.340 N 
HETATM   25  C19 UNL     1      13.683 -11.451  21.618  1.00  0.00     0.237 C 
HETATM   26  O2  UNL     1      13.157 -12.293  22.381  1.00  0.00    -0.272 OA
ATOM     27  H5  UNL     1      15.037 -11.202  20.016  1.00  0.00     0.163 HD
BRANCH  25  28
HETATM   28  C20 UNL     1      13.301 -10.015  21.787  1.00  0.00     0.243 C 
BRANCH  28  29
HETATM   29  N6  UNL     1      11.891  -9.957  22.073  1.00  0.00    -0.314 N 
ATOM     30  H6  UNL     1      11.243  -9.883  21.288  1.00  0.00     0.182 HD
BRANCH  29  31
HETATM   31  N7  UNL     1      11.360  -9.996  23.359  1.00  0.00    -0.253 N 
ATOM     32  H7  UNL     1      11.524  -9.211  23.989  1.00  0.00     0.207 HD
BRANCH  31  33
HETATM   33  N8  UNL     1      10.665 -11.002  23.772  1.00  0.00    -0.331 N 
ATOM     34  H82 UNL     1      10.378 -11.704  23.089  1.00  0.00     0.178 HD
ATOM     35  H81 UNL     1      10.402 -11.103  24.753  1.00  0.00     0.178 HD
ENDBRANCH  31  33
ENDBRANCH  29  31
ENDBRANCH  28  29
ENDBRANCH  25  28
ENDBRANCH  23  24
BRANCH  23  36
HETATM   36  C21 UNL     1      14.100 -13.925  19.470  1.00  0.00     0.261 C 
HETATM   37  N9  UNL     1      14.736 -14.853  18.616  1.00  0.00    -0.060 NA
HETATM   38  O3  UNL     1      12.872 -13.662  19.355  1.00  0.00    -0.274 OA
ENDBRANCH  23  36
ENDBRANCH   3  23
BRANCH   1  39
HETATM   39  C2  UNL     1      17.114 -11.580  19.278  1.00  0.00     0.119 C 
HETATM   40  C1  UNL     1      17.082 -11.690  17.755  1.00  0.00     0.026 C 
ENDBRANCH   1  39
TORSDOF 12
ENDMDL
MODEL 5
REMARK VINA RESULT: -7.202031556      2.535      4.663
REMARK  12 active torsions:
REMARK  status: ('A' for Active; 'I' for Inactive)
REMARK    1  A    between atoms: C2_2  and  N1_3 
REMARK    2  A    between atoms: C4_5  and  N2_6 
REMARK    3  A    between atoms: C4_5  and  C18_25 
REMARK    4  A    between atoms: C5_8  and  C6_9 
REMARK    5  A    between atoms: C5_8  and  C15_20 
REMARK    6  A    between atoms: C6_9  and  C7_10 
REMARK       I    between atoms: C15_20  and  N4_22 
REMARK    7  A    between atoms: C18_25  and  N5_26 
REMARK    8  A    between atoms: C18_25  and  C21_38 
REMARK       I    between atoms: N5_26  and  C19_28 
REMARK    9  A    between atoms: C19_28  and  C20_30 
REMARK   10  A    between atoms: C20_30  and  N6_31 
REMARK   11  A    between atoms: N6_31  and  N7_33 
REMARK   12  A    between atoms: N7_33  and  N8_35 
ROOT
HETATM    1  N1  UNL     1      16.422 -16.090  20.444  1.00  0.00    -0.373 N 
HETATM    2  C3  UNL     1      17.762 -16.717  20.499  1.00  0.00     0.150 C 
HETATM    3  C4  UNL     1      15.835 -15.670  21.516  1.00  0.00     0.111 C 
ENDROOT
BRANCH   3   4
HETATM    4  N2  UNL     1      16.562 -15.849  22.705  1.00  0.00    -0.343 N 
HETATM    5  C5  UNL     1      17.313 -15.008  23.353  1.00  0.00     0.083 C 
ATOM      6  H2  UNL     1      16.491 -16.777  23.122  1.00  0.00     0.167 HD
BRANCH   5   7
HETATM    7  C6  UNL     1      17.430 -13.679  22.779  1.00  0.00     0.104 C 
BRANCH   7   8
HETATM    8  C7  UNL     1      18.664 -13.323  22.066  1.00  0.00    -0.025 A 
HETATM    9  C8  UNL     1      19.969 -13.419  22.483  1.00  0.00     0.096 A 
HETATM   10  N3  UNL     1      20.770 -13.055  21.483  1.00  0.00    -0.365 N 
HETATM   11  C9  UNL     1      20.054 -12.713  20.399  1.00  0.00     0.042 A 
ATOM     12  H3  UNL     1      21.789 -13.038  21.534  1.00  0.00     0.165 HD
HETATM   13  C10 UNL     1      20.418 -12.243  19.142  1.00  0.00     0.030 A 
HETATM   14  C14 UNL     1      18.714 -12.878  20.749  1.00  0.00    -0.002 A 
HETATM   15  C11 UNL     1      19.412 -11.941  18.262  1.00  0.00     0.002 A 
HETATM   16  C12 UNL     1      18.070 -12.094  18.587  1.00  0.00     0.001 A 
HETATM   17  C13 UNL     1      17.736 -12.556  19.819  1.00  0.00     0.014 A 
ENDBRANCH   7   8
ENDBRANCH   5   7
BRANCH   5  18
HETATM   18  C15 UNL     1      17.977 -15.562  24.508  1.00  0.00     0.265 C 
HETATM   19  O1  UNL     1      17.543 -15.284  25.690  1.00  0.00    -0.266 OA
HETATM   20  N4  UNL     1      19.096 -16.410  24.492  1.00  0.00    -0.356 N 
HETATM   21  C16 UNL     1      19.677 -16.924  25.743  1.00  0.00     0.152 C 
HETATM   22  C17 UNL     1      19.750 -16.818  23.283  1.00  0.00     0.152 C 
ENDBRANCH   5  18
ENDBRANCH   3   4
BRANCH   3  23
HETATM   23  C18 UNL     1      14.496 -15.061  21.586  1.00  0.00     0.241 C 
BRANCH  23  24
HETATM   24  N5  UNL     1      14.127 -14.161  20.549  1.00  0.00    -0.340 N 
HETATM   25  C19 UNL     1      13.982 -12.783  20.817  1.00  0.00     0.237 C 
HETATM   26  O2  UNL     1      14.179 -12.359  21.979  1.00  0.00    -0.272 OA
ATOM     27  H5  UNL     1      13.966 -14.514  19.606  1.00  0.00     0.163 HD
BRANCH  25  28
HETATM   28  C20 UNL     1      13.604 -11.793  19.762  1.00  0.00     0.243 C 
BRANCH  28  29
HETATM   29  N6  UNL     1      14.715 -10.895  19.572  1.00  0.00    -0.314 N 
ATOM     30  H6  UNL     1      15.220 -10.935  18.686  1.00  0.00     0.182 HD
BRANCH  29  31
HETATM   31  N7  UNL     1      15.139  -9.976  20.527  1.00  0.00    -0.253 N 
ATOM     32  H7  UNL     1      16.137  -9.876  20.713  1.00  0.00     0.207 HD
BRANCH  31  33
HETATM   33  N8  UNL     1      14.300  -9.247  21.183  1.00  0.00    -0.331 N 
ATOM     34  H82 UNL     1      13.322  -9.537  21.202  1.00  0.00     0.178 HD
ATOM     35  H81 UNL     1      14.595  -8.402  21.673  1.00  0.00     0.178 HD
ENDBRANCH  31  33
ENDBRANCH  29  31
ENDBRANCH  28  29
ENDBRANCH  25  28
ENDBRANCH  23  24
BRANCH  23  36
HETATM   36  C21 UNL     1      13.405 -16.073  21.825  1.00  0.00     0.261 C 
HETATM   37  N9  UNL     1      13.778 -17.319  22.376  1.00  0.00    -0.060 NA
HETATM   38  O3  UNL     1      12.204 -15.813  21.544  1.00  0.00    -0.274 OA
ENDBRANCH  23  36
ENDBRANCH   3  23
BRANCH   1  39
HETATM   39  C2  UNL     1      15.902 -16.027  19.099  1.00  0.00     0.119 C 
HETATM   40  C1  UNL     1      15.273 -17.361  18.704  1.00  0.00     0.026 C 
ENDBRANCH   1  39
TORSDOF 12
ENDMDL
