MODEL 1
REMARK VINA RESULT: -7.173779272      0.000      0.000
REMARK  15 active torsions:
REMARK  status: ('A' for Active; 'I' for Inactive)
REMARK    1  A    between atoms: N1_2  and  C2_3 
REMARK    2  A    between atoms: C2_3  and  C3_4 
REMARK    3  A    between atoms: C4_5  and  C5_6 
REMARK    4  A    between atoms: C5_6  and  C6_7 
REMARK    5  A    between atoms: N2_10  and  C9_11 
REMARK    6  A    between atoms: C9_11  and  C10_12 
REMARK    7  A    between atoms: C10_12  and  C11_13 
REMARK    8  A    between atoms: C11_13  and  C12_14 
REMARK    9  A    between atoms: C12_14  and  C13_15 
REMARK   10  A    between atoms: C13_15  and  C14_16 
REMARK   11  A    between atoms: C14_16  and  N3_17 
REMARK   12  A    between atoms: C21_26  and  O1_27 
REMARK   13  A    between atoms: C22_29  and  O2_30 
REMARK   14  A    between atoms: C23_32  and  O3_33 
REMARK   15  A    between atoms: C24_35  and  O4_36 
ROOT
HETATM    1  C5  UNL     1      17.579 -16.603  20.891  1.00  0.00     0.132 C 
ENDROOT
BRANCH   1   2
HETATM    2  C4  UNL     1      16.267 -16.014  21.152  1.00  0.00    -0.100 C 
HETATM    3  C3  UNL     1      15.193 -15.518  21.385  1.00  0.00    -0.078 C 
BRANCH   3   4
HETATM    4  C2  UNL     1      13.907 -14.909  21.642  1.00  0.00     0.333 C 
BRANCH   4   5
HETATM    5  N1  UNL     1      13.767 -13.584  21.105  1.00  0.00    -0.030 N 
HETATM    6  C1  UNL     1      13.123 -13.711  19.804  1.00  0.00     0.277 C 
HETATM    7  C20 UNL     1      12.901 -12.825  21.970  1.00  0.00     0.275 C 
HETATM    8  C21 UNL     1      12.596 -11.451  21.478  1.00  0.00     0.175 C 
HETATM    9  C22 UNL     1      13.751 -10.717  20.899  1.00  0.00     0.181 C 
HETATM   10  C23 UNL     1      14.819 -11.569  20.314  1.00  0.00     0.206 C 
HETATM   11  C24 UNL     1      15.021 -12.882  21.015  1.00  0.00     0.355 C 
BRANCH   8  12
HETATM   12  O1  UNL     1      12.141 -10.705  22.592  1.00  0.00    -0.391 OA
ATOM     13  H1  UNL     1      12.659  -9.910  22.623  1.00  0.00     0.210 HD
ENDBRANCH   8  12
BRANCH   9  14
HETATM   14  O2  UNL     1      13.251  -9.899  19.859  1.00  0.00    -0.390 OA
ATOM     15  H2  UNL     1      13.475 -10.318  19.037  1.00  0.00     0.210 HD
ENDBRANCH   9  14
BRANCH  10  16
HETATM   16  O3  UNL     1      14.674 -11.748  18.920  1.00  0.00    -0.388 OA
ATOM     17  H3  UNL     1      15.478 -11.581  18.442  1.00  0.00     0.210 HD
ENDBRANCH  10  16
BRANCH  11  18
HETATM   18  O4  UNL     1      15.433 -12.588  22.325  1.00  0.00    -0.367 OA
ATOM     19  H4  UNL     1      15.125 -11.713  22.529  1.00  0.00     0.212 HD
ENDBRANCH  11  18
ENDBRANCH   4   5
ENDBRANCH   3   4
ENDBRANCH   1   2
BRANCH   1  20
HETATM   20  C6  UNL     1      18.590 -15.887  21.686  1.00  0.00    -0.044 A 
HETATM   21  C7  UNL     1      19.701 -16.499  22.227  1.00  0.00     0.025 A 
HETATM   22  C8  UNL     1      20.586 -15.748  22.954  1.00  0.00     0.091 A 
HETATM   23  N2  UNL     1      20.438 -14.429  23.177  1.00  0.00    -0.366 N 
HETATM   24  C18 UNL     1      19.350 -13.797  22.655  1.00  0.00     0.091 A 
HETATM   25  C19 UNL     1      18.449 -14.524  21.924  1.00  0.00     0.025 A 
BRANCH  23  26
HETATM   26  C9  UNL     1      21.373 -13.636  23.944  1.00  0.00     0.128 C 
BRANCH  26  27
HETATM   27  C10 UNL     1      20.569 -12.672  24.784  1.00  0.00     0.020 C 
BRANCH  27  28
HETATM   28  C11 UNL     1      20.822 -12.849  26.251  1.00  0.00     0.002 C 
BRANCH  28  29
HETATM   29  C12 UNL     1      20.889 -14.304  26.659  1.00  0.00     0.002 C 
BRANCH  29  30
HETATM   30  C13 UNL     1      19.555 -14.967  26.654  1.00  0.00     0.020 C 
BRANCH  30  31
HETATM   31  C14 UNL     1      19.661 -16.457  26.481  1.00  0.00     0.129 C 
BRANCH  31  32
HETATM   32  N3  UNL     1      18.568 -16.971  25.695  1.00  0.00    -0.352 N 
HETATM   33  C15 UNL     1      18.363 -18.251  25.307  1.00  0.00     0.108 A 
HETATM   34  C16 UNL     1      17.206 -18.360  24.565  1.00  0.00     0.106 A 
HETATM   35  N4  UNL     1      16.712 -17.111  24.514  1.00  0.00    -0.361 N 
HETATM   36  C17 UNL     1      17.523 -16.278  25.188  1.00  0.00     0.182 A 
ATOM     37  H4  UNL     1      15.854 -16.837  24.036  1.00  0.00     0.166 HD
ENDBRANCH  31  32
ENDBRANCH  30  31
ENDBRANCH  29  30
ENDBRANCH  28  29
ENDBRANCH  27  28
ENDBRANCH  26  27
ENDBRANCH  23  26
ENDBRANCH   1  20
TORSDOF 15
ENDMDL
MODEL 2
REMARK VINA RESULT: -7.018502730      0.959      2.747
REMARK  15 active torsions:
REMARK  status: ('A' for Active; 'I' for Inactive)
REMARK    1  A    between atoms: N1_2  and  C2_3 
REMARK    2  A    between atoms: C2_3  and  C3_4 
REMARK    3  A    between atoms: C4_5  and  C5_6 
REMARK    4  A    between atoms: C5_6  and  C6_7 
REMARK    5  A    between atoms: N2_10  and  C9_11 
REMARK    6  A    between atoms: C9_11  and  C10_12 
REMARK    7  A    between atoms: C10_12  and  C11_13 
REMARK    8  A    between atoms: C11_13  and  C12_14 
REMARK    9  A    between atoms: C12_14  and  C13_15 
REMARK   10  A    between atoms: C13_15  and  C14_16 
REMARK   11  A    between atoms: C14_16  and  N3_17 
REMARK   12  A    between atoms: C21_26  and  O1_27 
REMARK   13  A    between atoms: C22_29  and  O2_30 
REMARK   14  A    between atoms: C23_32  and  O3_33 
REMARK   15  A    between atoms: C24_35  and  O4_36 
ROOT
HETATM    1  C5  UNL     1      16.750 -17.099  21.025  1.00  0.00     0.132 C 
ENDROOT
BRANCH   1   2
HETATM    2  C4  UNL     1      15.563 -16.292  21.302  1.00  0.00    -0.100 C 
HETATM    3  C3  UNL     1      14.582 -15.635  21.549  1.00  0.00    -0.078 C 
BRANCH   3   4
HETATM    4  C2  UNL     1      13.421 -14.825  21.845  1.00  0.00     0.333 C 
BRANCH   4   5
HETATM    5  N1  UNL     1      13.437 -13.529  21.226  1.00  0.00    -0.030 N 
HETATM    6  C1  UNL     1      12.756 -13.656  19.943  1.00  0.00     0.277 C 
HETATM    7  C20 UNL     1      12.689 -12.615  22.050  1.00  0.00     0.275 C 
HETATM    8  C21 UNL     1      12.547 -11.247  21.475  1.00  0.00     0.175 C 
HETATM    9  C22 UNL     1      13.773 -10.701  20.836  1.00  0.00     0.181 C 
HETATM   10  C23 UNL     1      14.716 -11.715  20.294  1.00  0.00     0.206 C 
HETATM   11  C24 UNL     1      14.767 -12.997  21.075  1.00  0.00     0.355 C 
BRANCH   8  12
HETATM   12  O1  UNL     1      12.212 -10.381  22.543  1.00  0.00    -0.391 OA
ATOM     13  H1  UNL     1      12.799  -9.637  22.492  1.00  0.00     0.210 HD
ENDBRANCH   8  12
BRANCH   9  14
HETATM   14  O2  UNL     1      13.358  -9.893  19.751  1.00  0.00    -0.390 OA
ATOM     15  H2  UNL     1      12.420 -10.004  19.659  1.00  0.00     0.210 HD
ENDBRANCH   9  14
BRANCH  10  16
HETATM   16  O3  UNL     1      14.521 -11.961  18.916  1.00  0.00    -0.388 OA
ATOM     17  H3  UNL     1      14.308 -11.174  18.429  1.00  0.00     0.210 HD
ENDBRANCH  10  16
BRANCH  11  18
HETATM   18  O4  UNL     1      15.237 -12.676  22.359  1.00  0.00    -0.367 OA
ATOM     19  H4  UNL     1      15.303 -13.488  22.848  1.00  0.00     0.212 HD
ENDBRANCH  11  18
ENDBRANCH   4   5
ENDBRANCH   3   4
ENDBRANCH   1   2
BRANCH   1  20
HETATM   20  C6  UNL     1      17.645 -17.044  22.192  1.00  0.00    -0.044 A 
HETATM   21  C7  UNL     1      17.192 -17.073  23.496  1.00  0.00     0.025 A 
HETATM   22  C8  UNL     1      18.103 -17.016  24.517  1.00  0.00     0.091 A 
HETATM   23  N2  UNL     1      19.433 -16.932  24.326  1.00  0.00    -0.366 N 
HETATM   24  C18 UNL     1      19.910 -16.902  23.051  1.00  0.00     0.091 A 
HETATM   25  C19 UNL     1      19.021 -16.957  22.010  1.00  0.00     0.025 A 
BRANCH  23  26
HETATM   26  C9  UNL     1      20.394 -16.873  25.405  1.00  0.00     0.128 C 
BRANCH  26  27
HETATM   27  C10 UNL     1      19.658 -16.426  26.645  1.00  0.00     0.020 C 
BRANCH  27  28
HETATM   28  C11 UNL     1      19.518 -14.935  26.715  1.00  0.00     0.002 C 
BRANCH  28  29
HETATM   29  C12 UNL     1      20.825 -14.215  26.470  1.00  0.00     0.002 C 
BRANCH  29  30
HETATM   30  C13 UNL     1      20.685 -13.066  25.530  1.00  0.00     0.020 C 
BRANCH  30  31
HETATM   31  C14 UNL     1      21.138 -13.412  24.139  1.00  0.00     0.129 C 
BRANCH  31  32
HETATM   32  N3  UNL     1      20.036 -13.395  23.211  1.00  0.00    -0.352 N 
HETATM   33  C15 UNL     1      20.095 -13.292  21.863  1.00  0.00     0.108 A 
HETATM   34  C16 UNL     1      18.831 -13.313  21.312  1.00  0.00     0.106 A 
HETATM   35  N4  UNL     1      18.001 -13.433  22.363  1.00  0.00    -0.361 N 
HETATM   36  C17 UNL     1      18.718 -13.482  23.499  1.00  0.00     0.182 A 
ATOM     37  H4  UNL     1      16.984 -13.478  22.307  1.00  0.00     0.166 HD
ENDBRANCH  31  32
ENDBRANCH  30  31
ENDBRANCH  29  30
ENDBRANCH  28  29
ENDBRANCH  27  28
ENDBRANCH  26  27
ENDBRANCH  23  26
ENDBRANCH   1  20
TORSDOF 15
ENDMDL
MODEL 3
REMARK VINA RESULT: -6.957528260      1.448      3.475
REMARK  15 active torsions:
REMARK  status: ('A' for Active; 'I' for Inactive)
REMARK    1  A    between atoms: N1_2  and  C2_3 
REMARK    2  A    between atoms: C2_3  and  C3_4 
REMARK    3  A    between atoms: C4_5  and  C5_6 
REMARK    4  A    between atoms: C5_6  and  C6_7 
REMARK    5  A    between atoms: N2_10  and  C9_11 
REMARK    6  A    between atoms: C9_11  and  C10_12 
REMARK    7  A    between atoms: C10_12  and  C11_13 
REMARK    8  A    between atoms: C11_13  and  C12_14 
REMARK    9  A    between atoms: C12_14  and  C13_15 
REMARK   10  A    between atoms: C13_15  and  C14_16 
REMARK   11  A    between atoms: C14_16  and  N3_17 
REMARK   12  A    between atoms: C21_26  and  O1_27 
REMARK   13  A    between atoms: C22_29  and  O2_30 
REMARK   14  A    between atoms: C23_32  and  O3_33 
REMARK   15  A    between atoms: C24_35  and  O4_36 
ROOT
HETATM    1  C5  UNL     1      14.693 -18.257  22.107  1.00  0.00     0.132 C 
ENDROOT
BRANCH   1   2
HETATM    2  C4  UNL     1      14.140 -17.000  21.607  1.00  0.00    -0.100 C 
HETATM    3  C3  UNL     1      13.671 -15.974  21.180  1.00  0.00    -0.078 C 
BRANCH   3   4
HETATM    4  C2  UNL     1      13.098 -14.740  20.692  1.00  0.00     0.333 C 
BRANCH   4   5
HETATM    5  N1  UNL     1      14.057 -13.692  20.479  1.00  0.00    -0.030 N 
HETATM    6  C1  UNL     1      14.990 -14.160  19.461  1.00  0.00     0.277 C 
HETATM    7  C20 UNL     1      13.370 -12.533  19.967  1.00  0.00     0.275 C 
HETATM    8  C21 UNL     1      14.266 -11.396  19.614  1.00  0.00     0.175 C 
HETATM    9  C22 UNL     1      15.364 -11.133  20.582  1.00  0.00     0.181 C 
HETATM   10  C23 UNL     1      15.820 -12.312  21.365  1.00  0.00     0.206 C 
HETATM   11  C24 UNL     1      14.737 -13.301  21.687  1.00  0.00     0.355 C 
BRANCH   8  12
HETATM   12  O1  UNL     1      13.461 -10.233  19.569  1.00  0.00    -0.391 OA
ATOM     13  H1  UNL     1      13.204 -10.108  18.664  1.00  0.00     0.210 HD
ENDBRANCH   8  12
BRANCH   9  14
HETATM   14  O2  UNL     1      16.475 -10.667  19.841  1.00  0.00    -0.390 OA
ATOM     15  H2  UNL     1      16.813  -9.902  20.290  1.00  0.00     0.210 HD
ENDBRANCH   9  14
BRANCH  10  16
HETATM   16  O3  UNL     1      16.943 -12.949  20.789  1.00  0.00    -0.388 OA
ATOM     17  H3  UNL     1      17.206 -12.556  19.966  1.00  0.00     0.210 HD
ENDBRANCH  10  16
BRANCH  11  18
HETATM   18  O4  UNL     1      13.802 -12.635  22.497  1.00  0.00    -0.367 OA
ATOM     19  H4  UNL     1      12.983 -13.114  22.436  1.00  0.00     0.212 HD
ENDBRANCH  11  18
ENDBRANCH   4   5
ENDBRANCH   3   4
ENDBRANCH   1   2
BRANCH   1  20
HETATM   20  C6  UNL     1      15.663 -17.959  23.173  1.00  0.00    -0.044 A 
HETATM   21  C7  UNL     1      15.735 -18.673  24.352  1.00  0.00     0.025 A 
HETATM   22  C8  UNL     1      16.672 -18.319  25.286  1.00  0.00     0.091 A 
HETATM   23  N2  UNL     1      17.541 -17.304  25.125  1.00  0.00    -0.366 N 
HETATM   24  C18 UNL     1      17.494 -16.582  23.971  1.00  0.00     0.091 A 
HETATM   25  C19 UNL     1      16.566 -16.913  23.019  1.00  0.00     0.025 A 
BRANCH  23  26
HETATM   26  C9  UNL     1      18.531 -16.932  26.111  1.00  0.00     0.128 C 
BRANCH  26  27
HETATM   27  C10 UNL     1      18.792 -15.453  25.956  1.00  0.00     0.020 C 
BRANCH  27  28
HETATM   28  C11 UNL     1      20.048 -15.022  26.652  1.00  0.00     0.002 C 
BRANCH  28  29
HETATM   29  C12 UNL     1      20.363 -13.560  26.434  1.00  0.00     0.002 C 
BRANCH  29  30
HETATM   30  C13 UNL     1      20.006 -13.090  25.065  1.00  0.00     0.020 C 
BRANCH  30  31
HETATM   31  C14 UNL     1      21.100 -13.360  24.068  1.00  0.00     0.129 C 
BRANCH  31  32
HETATM   32  N3  UNL     1      20.567 -13.889  22.839  1.00  0.00    -0.352 N 
HETATM   33  C15 UNL     1      20.303 -15.182  22.545  1.00  0.00     0.108 A 
HETATM   34  C16 UNL     1      19.799 -15.303  21.267  1.00  0.00     0.106 A 
HETATM   35  N4  UNL     1      19.762 -14.046  20.792  1.00  0.00    -0.361 N 
HETATM   36  C17 UNL     1      20.221 -13.198  21.729  1.00  0.00     0.182 A 
ATOM     37  H4  UNL     1      19.438 -13.776  19.864  1.00  0.00     0.166 HD
ENDBRANCH  31  32
ENDBRANCH  30  31
ENDBRANCH  29  30
ENDBRANCH  28  29
ENDBRANCH  27  28
ENDBRANCH  26  27
ENDBRANCH  23  26
ENDBRANCH   1  20
TORSDOF 15
ENDMDL
MODEL 4
REMARK VINA RESULT: -6.944714888      3.027      7.582
REMARK  15 active torsions:
REMARK  status: ('A' for Active; 'I' for Inactive)
REMARK    1  A    between atoms: N1_2  and  C2_3 
REMARK    2  A    between atoms: C2_3  and  C3_4 
REMARK    3  A    between atoms: C4_5  and  C5_6 
REMARK    4  A    between atoms: C5_6  and  C6_7 
REMARK    5  A    between atoms: N2_10  and  C9_11 
REMARK    6  A    between atoms: C9_11  and  C10_12 
REMARK    7  A    between atoms: C10_12  and  C11_13 
REMARK    8  A    between atoms: C11_13  and  C12_14 
REMARK    9  A    between atoms: C12_14  and  C13_15 
REMARK   10  A    between atoms: C13_15  and  C14_16 
REMARK   11  A    between atoms: C14_16  and  N3_17 
REMARK   12  A    between atoms: C21_26  and  O1_27 
REMARK   13  A    between atoms: C22_29  and  O2_30 
REMARK   14  A    between atoms: C23_32  and  O3_33 
REMARK   15  A    between atoms: C24_35  and  O4_36 
ROOT
HETATM    1  C5  UNL     1      19.358 -12.280  19.889  1.00  0.00     0.132 C 
ENDROOT
BRANCH   1   2
HETATM    2  C4  UNL     1      19.586 -13.436  20.753  1.00  0.00    -0.100 C 
HETATM    3  C3  UNL     1      19.754 -14.393  21.468  1.00  0.00    -0.078 C 
BRANCH   3   4
HETATM    4  C2  UNL     1      19.965 -15.553  22.306  1.00  0.00     0.333 C 
BRANCH   4   5
HETATM    5  N1  UNL     1      20.433 -15.244  23.628  1.00  0.00    -0.030 N 
HETATM    6  C1  UNL     1      21.748 -15.857  23.774  1.00  0.00     0.277 C 
HETATM    7  C20 UNL     1      20.582 -13.815  23.743  1.00  0.00     0.275 C 
HETATM    8  C21 UNL     1      21.153 -13.362  25.043  1.00  0.00     0.175 C 
HETATM    9  C22 UNL     1      20.627 -14.065  26.243  1.00  0.00     0.181 C 
HETATM   10  C23 UNL     1      20.145 -15.451  26.009  1.00  0.00     0.206 C 
HETATM   11  C24 UNL     1      19.525 -15.675  24.659  1.00  0.00     0.355 C 
BRANCH   8  12
HETATM   12  O1  UNL     1      20.824 -11.992  25.183  1.00  0.00    -0.391 OA
ATOM     13  H1  UNL     1      20.515 -11.870  26.073  1.00  0.00     0.210 HD
ENDBRANCH   8  12
BRANCH   9  14
HETATM   14  O2  UNL     1      21.683 -14.141  27.181  1.00  0.00    -0.390 OA
ATOM     15  H2  UNL     1      21.415 -14.751  27.858  1.00  0.00     0.210 HD
ENDBRANCH   9  14
BRANCH  10  16
HETATM   16  O3  UNL     1      21.127 -16.427  26.291  1.00  0.00    -0.388 OA
ATOM     17  H3  UNL     1      21.127 -17.140  25.664  1.00  0.00     0.210 HD
ENDBRANCH  10  16
BRANCH  11  18
HETATM   18  O4  UNL     1      18.389 -14.851  24.588  1.00  0.00    -0.367 OA
ATOM     19  H4  UNL     1      18.445 -14.229  25.305  1.00  0.00     0.212 HD
ENDBRANCH  11  18
ENDBRANCH   4   5
ENDBRANCH   3   4
ENDBRANCH   1   2
BRANCH   1  20
HETATM   20  C6  UNL     1      17.928 -11.933  19.927  1.00  0.00    -0.044 A 
HETATM   21  C7  UNL     1      17.217 -11.777  21.100  1.00  0.00     0.025 A 
HETATM   22  C8  UNL     1      15.888 -11.454  21.033  1.00  0.00     0.091 A 
HETATM   23  N2  UNL     1      15.221 -11.275  19.878  1.00  0.00    -0.366 N 
HETATM   24  C18 UNL     1      15.895 -11.422  18.705  1.00  0.00     0.091 A 
HETATM   25  C19 UNL     1      17.226 -11.745  18.742  1.00  0.00     0.025 A 
BRANCH  23  26
HETATM   26  C9  UNL     1      13.817 -10.933  19.809  1.00  0.00     0.128 C 
BRANCH  26  27
HETATM   27  C10 UNL     1      13.528  -9.974  20.939  1.00  0.00     0.020 C 
BRANCH  27  28
HETATM   28  C11 UNL     1      12.633 -10.577  21.980  1.00  0.00     0.002 C 
BRANCH  28  29
HETATM   29  C12 UNL     1      12.194 -11.980  21.628  1.00  0.00     0.002 C 
BRANCH  29  30
HETATM   30  C13 UNL     1      12.990 -13.027  22.329  1.00  0.00     0.020 C 
BRANCH  30  31
HETATM   31  C14 UNL     1      12.882 -14.369  21.658  1.00  0.00     0.129 C 
BRANCH  31  32
HETATM   32  N3  UNL     1      14.084 -14.688  20.931  1.00  0.00    -0.352 N 
HETATM   33  C15 UNL     1      15.287 -15.036  21.443  1.00  0.00     0.108 A 
HETATM   34  C16 UNL     1      16.201 -15.269  20.436  1.00  0.00     0.106 A 
HETATM   35  N4  UNL     1      15.518 -15.054  19.297  1.00  0.00    -0.361 N 
HETATM   36  C17 UNL     1      14.253 -14.707  19.590  1.00  0.00     0.182 A 
ATOM     37  H4  UNL     1      15.902 -15.141  18.356  1.00  0.00     0.166 HD
ENDBRANCH  31  32
ENDBRANCH  30  31
ENDBRANCH  29  30
ENDBRANCH  28  29
ENDBRANCH  27  28
ENDBRANCH  26  27
ENDBRANCH  23  26
ENDBRANCH   1  20
TORSDOF 15
ENDMDL
MODEL 5
REMARK VINA RESULT: -6.913983295      1.574      3.438
REMARK  15 active torsions:
REMARK  status: ('A' for Active; 'I' for Inactive)
REMARK    1  A    between atoms: N1_2  and  C2_3 
REMARK    2  A    between atoms: C2_3  and  C3_4 
REMARK    3  A    between atoms: C4_5  and  C5_6 
REMARK    4  A    between atoms: C5_6  and  C6_7 
REMARK    5  A    between atoms: N2_10  and  C9_11 
REMARK    6  A    between atoms: C9_11  and  C10_12 
REMARK    7  A    between atoms: C10_12  and  C11_13 
REMARK    8  A    between atoms: C11_13  and  C12_14 
REMARK    9  A    between atoms: C12_14  and  C13_15 
REMARK   10  A    between atoms: C13_15  and  C14_16 
REMARK   11  A    between atoms: C14_16  and  N3_17 
REMARK   12  A    between atoms: C21_26  and  O1_27 
REMARK   13  A    between atoms: C22_29  and  O2_30 
REMARK   14  A    between atoms: C23_32  and  O3_33 
REMARK   15  A    between atoms: C24_35  and  O4_36 
ROOT
HETATM    1  C5  UNL     1      20.103 -12.939  21.060  1.00  0.00     0.132 C 
ENDROOT
BRANCH   1   2
HETATM    2  C4  UNL     1      18.777 -12.585  20.556  1.00  0.00    -0.100 C 
HETATM    3  C3  UNL     1      17.692 -12.279  20.128  1.00  0.00    -0.078 C 
BRANCH   3   4
HETATM    4  C2  UNL     1      16.389 -11.935  19.604  1.00  0.00     0.333 C 
BRANCH   4   5
HETATM    5  N1  UNL     1      15.312 -12.143  20.530  1.00  0.00    -0.030 N 
HETATM    6  C1  UNL     1      15.907 -12.495  21.813  1.00  0.00     0.277 C 
HETATM    7  C20 UNL     1      14.592 -10.905  20.687  1.00  0.00     0.275 C 
HETATM    8  C21 UNL     1      13.497 -10.957  21.697  1.00  0.00     0.175 C 
HETATM    9  C22 UNL     1      12.675 -12.194  21.674  1.00  0.00     0.181 C 
HETATM   10  C23 UNL     1      13.363 -13.408  21.162  1.00  0.00     0.206 C 
HETATM   11  C24 UNL     1      14.375 -13.141  20.084  1.00  0.00     0.355 C 
BRANCH   8  12
HETATM   12  O1  UNL     1      12.629  -9.872  21.423  1.00  0.00    -0.391 OA
ATOM     13  H1  UNL     1      11.789 -10.085  21.810  1.00  0.00     0.210 HD
ENDBRANCH   8  12
BRANCH   9  14
HETATM   14  O2  UNL     1      12.284 -12.465  23.006  1.00  0.00    -0.390 OA
ATOM     15  H2  UNL     1      13.077 -12.579  23.516  1.00  0.00     0.210 HD
ENDBRANCH   9  14
BRANCH  10  16
HETATM   16  O3  UNL     1      13.911 -14.202  22.195  1.00  0.00    -0.388 OA
ATOM     17  H3  UNL     1      14.540 -14.838  21.875  1.00  0.00     0.210 HD
ENDBRANCH  10  16
BRANCH  11  18
HETATM   18  O4  UNL     1      13.676 -12.601  18.991  1.00  0.00    -0.367 OA
ATOM     19  H4  UNL     1      12.802 -12.974  19.002  1.00  0.00     0.212 HD
ENDBRANCH  11  18
ENDBRANCH   4   5
ENDBRANCH   3   4
ENDBRANCH   1   2
BRANCH   1  20
HETATM   20  C6  UNL     1      19.984 -13.342  22.470  1.00  0.00    -0.044 A 
HETATM   21  C7  UNL     1      18.773 -13.524  23.106  1.00  0.00     0.025 A 
HETATM   22  C8  UNL     1      18.764 -13.900  24.423  1.00  0.00     0.091 A 
HETATM   23  N2  UNL     1      19.880 -14.105  25.148  1.00  0.00    -0.366 N 
HETATM   24  C18 UNL     1      21.089 -13.933  24.548  1.00  0.00     0.091 A 
HETATM   25  C19 UNL     1      21.128 -13.558  23.231  1.00  0.00     0.025 A 
BRANCH  23  26
HETATM   26  C9  UNL     1      19.869 -14.502  26.539  1.00  0.00     0.128 C 
BRANCH  26  27
HETATM   27  C10 UNL     1      18.770 -15.522  26.711  1.00  0.00     0.020 C 
BRANCH  27  28
HETATM   28  C11 UNL     1      19.280 -16.929  26.609  1.00  0.00     0.002 C 
BRANCH  28  29
HETATM   29  C12 UNL     1      18.245 -17.886  26.062  1.00  0.00     0.002 C 
BRANCH  29  30
HETATM   30  C13 UNL     1      17.452 -17.301  24.943  1.00  0.00     0.020 C 
BRANCH  30  31
HETATM   31  C14 UNL     1      18.119 -17.502  23.609  1.00  0.00     0.129 C 
BRANCH  31  32
HETATM   32  N3  UNL     1      17.303 -16.995  22.536  1.00  0.00    -0.352 N 
HETATM   33  C15 UNL     1      17.721 -16.448  21.371  1.00  0.00     0.108 A 
HETATM   34  C16 UNL     1      16.647 -16.079  20.588  1.00  0.00     0.106 A 
HETATM   35  N4  UNL     1      15.564 -16.418  21.309  1.00  0.00    -0.361 N 
HETATM   36  C17 UNL     1      15.952 -16.966  22.473  1.00  0.00     0.182 A 
ATOM     37  H4  UNL     1      14.597 -16.280  21.018  1.00  0.00     0.166 HD
ENDBRANCH  31  32
ENDBRANCH  30  31
ENDBRANCH  29  30
ENDBRANCH  28  29
ENDBRANCH  27  28
ENDBRANCH  26  27
ENDBRANCH  23  26
ENDBRANCH   1  20
TORSDOF 15
ENDMDL
