MODEL 1
REMARK VINA RESULT: -7.876671381      0.000      0.000
REMARK  13 active torsions:
REMARK  status: ('A' for Active; 'I' for Inactive)
REMARK    1  A    between atoms: C2_4  and  C3_5 
REMARK    2  A    between atoms: C2_4  and  N10_33 
REMARK    3  A    between atoms: C3_5  and  C4_6 
REMARK    4  A    between atoms: C4_6  and  N2_7 
REMARK       I    between atoms: N2_7  and  C5_9 
REMARK    5  A    between atoms: C5_9  and  C6_11 
REMARK    6  A    between atoms: C6_11  and  N3_12 
REMARK    7  A    between atoms: C9_15  and  C10_16 
REMARK    8  A    between atoms: C12_18  and  N4_19 
REMARK    9  A    between atoms: N4_19  and  C13_21 
REMARK   10  A    between atoms: C13_21  and  N5_23 
REMARK   11  A    between atoms: N10_33  and  C16_35 
REMARK   12  A    between atoms: C16_35  and  C17_36 
REMARK   13  A    between atoms: C17_36  and  N11_37 
ROOT
HETATM    1  N5  UNL     1      12.001  -9.413  22.395  1.00  0.00    -0.283 N 
ATOM      2  H5  UNL     1      11.832  -8.992  21.481  1.00  0.00     0.179 HD
HETATM    3  C15 UNL     1      12.143  -8.571  23.501  1.00  0.00     0.183 C 
HETATM    4  N6  UNL     1      12.243  -7.868  24.411  1.00  0.00    -0.172 NA
ENDROOT
BRANCH   1   5
HETATM    5  C13 UNL     1      12.074 -10.709  22.478  1.00  0.00     0.087 C 
HETATM    6  C14 UNL     1      11.503 -11.384  23.654  1.00  0.00     0.089 C 
BRANCH   5   7
HETATM    7  N4  UNL     1      12.710 -11.379  21.411  1.00  0.00    -0.331 N 
ATOM      8  H4  UNL     1      12.137 -11.992  20.832  1.00  0.00     0.168 HD
BRANCH   7   9
HETATM    9  C12 UNL     1      13.952 -11.277  21.114  1.00  0.00     0.123 A 
HETATM   10  C11 UNL     1      14.992 -12.139  21.407  1.00  0.00     0.083 A 
HETATM   11  C10 UNL     1      16.123 -11.590  20.875  1.00  0.00     0.080 A 
HETATM   12  N8  UNL     1      15.775 -10.431  20.279  1.00  0.00    -0.297 N 
HETATM   13  N7  UNL     1      14.478 -10.257  20.429  1.00  0.00    -0.285 N 
ATOM     14  H8  UNL     1      16.409  -9.796  19.794  1.00  0.00     0.187 HD
ATOM     15  H7  UNL     1      13.951  -9.458  20.075  1.00  0.00     0.188 HD
BRANCH  11  16
HETATM   16  C9  UNL     1      17.479 -12.146  20.930  1.00  0.00     0.077 A 
HETATM   17  C8  UNL     1      18.559 -11.722  20.179  1.00  0.00     0.052 A 
HETATM   18  C7  UNL     1      19.645 -12.495  20.526  1.00  0.00     0.113 A 
HETATM   19  N3  UNL     1      19.200 -13.356  21.464  1.00  0.00    -0.294 N 
HETATM   20  N9  UNL     1      17.916 -13.138  21.693  1.00  0.00    -0.296 N 
ATOM     21  H9  UNL     1      17.345 -13.657  22.360  1.00  0.00     0.187 HD
BRANCH  19  22
HETATM   22  C6  UNL     1      19.982 -14.360  22.122  1.00  0.00     0.250 C 
BRANCH  22  23
HETATM   23  C5  UNL     1      20.770 -13.759  23.255  1.00  0.00     0.237 C 
HETATM   24  N2  UNL     1      20.100 -12.991  24.243  1.00  0.00    -0.359 N 
ATOM     25  H2  UNL     1      19.092 -12.839  24.196  1.00  0.00     0.162 HD
HETATM   26  O1  UNL     1      22.017 -13.964  23.285  1.00  0.00    -0.272 OA
BRANCH  24  27
HETATM   27  C4  UNL     1      20.884 -12.434  25.311  1.00  0.00     0.130 C 
BRANCH  27  28
HETATM   28  C3  UNL     1      20.689 -13.158  26.621  1.00  0.00     0.096 C 
BRANCH  28  29
HETATM   29  C2  UNL     1      20.853 -14.605  26.513  1.00  0.00     0.077 C 
HETATM   30  N1  UNL     1      22.020 -15.163  26.298  1.00  0.00    -0.384 N 
HETATM   31  C1  UNL     1      22.216 -16.575  26.188  1.00  0.00     0.147 C 
ATOM     32  H1  UNL     1      22.834 -14.556  26.204  1.00  0.00     0.160 HD
BRANCH  29  33
HETATM   33  N10 UNL     1      19.759 -15.469  26.668  1.00  0.00    -0.355 N 
ATOM     34  H10 UNL     1      19.746 -15.937  27.575  1.00  0.00     0.166 HD
BRANCH  33  35
HETATM   35  C16 UNL     1      18.678 -15.831  25.851  1.00  0.00     0.114 C 
BRANCH  35  36
HETATM   36  C17 UNL     1      18.809 -16.661  24.655  1.00  0.00     0.218 C 
BRANCH  36  37
HETATM   37  N11 UNL     1      17.724 -17.238  23.977  1.00  0.00    -0.057 N 
HETATM   38  C18 UNL     1      17.088 -16.536  22.928  1.00  0.00     0.277 C 
HETATM   39  C19 UNL     1      16.777 -17.810  24.928  1.00  0.00     0.277 C 
HETATM   40  C20 UNL     1      18.305 -18.457  23.298  1.00  0.00     0.277 C 
ENDBRANCH  36  37
ENDBRANCH  35  36
ENDBRANCH  33  35
ENDBRANCH  29  33
ENDBRANCH  28  29
ENDBRANCH  27  28
ENDBRANCH  24  27
ENDBRANCH  22  23
ENDBRANCH  19  22
ENDBRANCH  11  16
ENDBRANCH   7   9
ENDBRANCH   5   7
ENDBRANCH   1   5
TORSDOF 13
ENDMDL
MODEL 2
REMARK VINA RESULT: -7.591325375      2.366      8.304
REMARK  13 active torsions:
REMARK  status: ('A' for Active; 'I' for Inactive)
REMARK    1  A    between atoms: C2_4  and  C3_5 
REMARK    2  A    between atoms: C2_4  and  N10_33 
REMARK    3  A    between atoms: C3_5  and  C4_6 
REMARK    4  A    between atoms: C4_6  and  N2_7 
REMARK       I    between atoms: N2_7  and  C5_9 
REMARK    5  A    between atoms: C5_9  and  C6_11 
REMARK    6  A    between atoms: C6_11  and  N3_12 
REMARK    7  A    between atoms: C9_15  and  C10_16 
REMARK    8  A    between atoms: C12_18  and  N4_19 
REMARK    9  A    between atoms: N4_19  and  C13_21 
REMARK   10  A    between atoms: C13_21  and  N5_23 
REMARK   11  A    between atoms: N10_33  and  C16_35 
REMARK   12  A    between atoms: C16_35  and  C17_36 
REMARK   13  A    between atoms: C17_36  and  N11_37 
ROOT
HETATM    1  N5  UNL     1      22.353 -15.563  26.547  1.00  0.00    -0.283 N 
ATOM      2  H5  UNL     1      22.998 -15.012  27.114  1.00  0.00     0.179 HD
HETATM    3  C15 UNL     1      22.700 -16.879  26.232  1.00  0.00     0.183 C 
HETATM    4  N6  UNL     1      22.988 -17.970  25.990  1.00  0.00    -0.172 NA
ENDROOT
BRANCH   1   5
HETATM    5  C13 UNL     1      21.246 -15.008  26.151  1.00  0.00     0.087 C 
HETATM    6  C14 UNL     1      20.847 -13.715  26.726  1.00  0.00     0.089 C 
BRANCH   5   7
HETATM    7  N4  UNL     1      20.497 -15.708  25.180  1.00  0.00    -0.331 N 
ATOM      8  H4  UNL     1      20.055 -16.581  25.465  1.00  0.00     0.168 HD
BRANCH   7   9
HETATM    9  C12 UNL     1      20.329 -15.330  23.968  1.00  0.00     0.123 A 
HETATM   10  C11 UNL     1      19.548 -14.302  23.474  1.00  0.00     0.083 A 
HETATM   11  C10 UNL     1      19.705 -14.301  22.118  1.00  0.00     0.080 A 
HETATM   12  N8  UNL     1      20.555 -15.300  21.803  1.00  0.00    -0.297 N 
HETATM   13  N7  UNL     1      20.920 -15.905  22.915  1.00  0.00    -0.285 N 
ATOM     14  H8  UNL     1      20.865 -15.545  20.862  1.00  0.00     0.187 HD
ATOM     15  H7  UNL     1      21.559 -16.698  22.965  1.00  0.00     0.188 HD
BRANCH  11  16
HETATM   16  C9  UNL     1      19.072 -13.387  21.162  1.00  0.00     0.077 A 
HETATM   17  C8  UNL     1      19.733 -12.511  20.321  1.00  0.00     0.052 A 
HETATM   18  C7  UNL     1      18.785 -11.835  19.584  1.00  0.00     0.113 A 
HETATM   19  N3  UNL     1      17.592 -12.313  19.993  1.00  0.00    -0.294 N 
HETATM   20  N9  UNL     1      17.777 -13.230  20.927  1.00  0.00    -0.296 N 
ATOM     21  H9  UNL     1      17.032 -13.743  21.398  1.00  0.00     0.187 HD
BRANCH  19  22
HETATM   22  C6  UNL     1      16.310 -11.901  19.503  1.00  0.00     0.250 C 
BRANCH  22  23
HETATM   23  C5  UNL     1      15.489 -11.300  20.611  1.00  0.00     0.237 C 
HETATM   24  N2  UNL     1      14.712 -10.139  20.357  1.00  0.00    -0.359 N 
ATOM     25  H2  UNL     1      14.704  -9.705  19.434  1.00  0.00     0.162 HD
HETATM   26  O1  UNL     1      15.521 -11.861  21.744  1.00  0.00    -0.272 OA
BRANCH  24  27
HETATM   27  C4  UNL     1      13.939  -9.595  21.439  1.00  0.00     0.130 C 
BRANCH  27  28
HETATM   28  C3  UNL     1      12.495 -10.032  21.406  1.00  0.00     0.096 C 
BRANCH  28  29
HETATM   29  C2  UNL     1      12.126 -10.896  22.524  1.00  0.00     0.077 C 
HETATM   30  N1  UNL     1      11.467 -10.450  23.566  1.00  0.00    -0.384 N 
HETATM   31  C1  UNL     1      11.090 -11.269  24.676  1.00  0.00     0.147 C 
ATOM     32  H1  UNL     1      11.209  -9.464  23.587  1.00  0.00     0.160 HD
BRANCH  29  33
HETATM   33  N10 UNL     1      12.440 -12.264  22.513  1.00  0.00    -0.355 N 
ATOM     34  H10 UNL     1      12.615 -12.640  23.445  1.00  0.00     0.166 HD
BRANCH  33  35
HETATM   35  C16 UNL     1      12.566 -13.227  21.502  1.00  0.00     0.114 C 
BRANCH  35  36
HETATM   36  C17 UNL     1      13.236 -14.513  21.686  1.00  0.00     0.218 C 
BRANCH  36  37
HETATM   37  N11 UNL     1      13.818 -15.252  20.645  1.00  0.00    -0.057 N 
HETATM   38  C18 UNL     1      15.118 -15.788  20.795  1.00  0.00     0.277 C 
HETATM   39  C19 UNL     1      13.636 -14.566  19.371  1.00  0.00     0.277 C 
HETATM   40  C20 UNL     1      12.936 -16.472  20.506  1.00  0.00     0.277 C 
ENDBRANCH  36  37
ENDBRANCH  35  36
ENDBRANCH  33  35
ENDBRANCH  29  33
ENDBRANCH  28  29
ENDBRANCH  27  28
ENDBRANCH  24  27
ENDBRANCH  22  23
ENDBRANCH  19  22
ENDBRANCH  11  16
ENDBRANCH   7   9
ENDBRANCH   5   7
ENDBRANCH   1   5
TORSDOF 13
ENDMDL
MODEL 3
REMARK VINA RESULT: -7.507524733      2.110      3.511
REMARK  13 active torsions:
REMARK  status: ('A' for Active; 'I' for Inactive)
REMARK    1  A    between atoms: C2_4  and  C3_5 
REMARK    2  A    between atoms: C2_4  and  N10_33 
REMARK    3  A    between atoms: C3_5  and  C4_6 
REMARK    4  A    between atoms: C4_6  and  N2_7 
REMARK       I    between atoms: N2_7  and  C5_9 
REMARK    5  A    between atoms: C5_9  and  C6_11 
REMARK    6  A    between atoms: C6_11  and  N3_12 
REMARK    7  A    between atoms: C9_15  and  C10_16 
REMARK    8  A    between atoms: C12_18  and  N4_19 
REMARK    9  A    between atoms: N4_19  and  C13_21 
REMARK   10  A    between atoms: C13_21  and  N5_23 
REMARK   11  A    between atoms: N10_33  and  C16_35 
REMARK   12  A    between atoms: C16_35  and  C17_36 
REMARK   13  A    between atoms: C17_36  and  N11_37 
ROOT
HETATM    1  N5  UNL     1      10.763  -9.345  24.067  1.00  0.00    -0.283 N 
ATOM      2  H5  UNL     1       9.772  -9.187  23.885  1.00  0.00     0.179 HD
HETATM    3  C15 UNL     1      11.562  -8.251  24.407  1.00  0.00     0.183 C 
HETATM    4  N6  UNL     1      12.210  -7.343  24.704  1.00  0.00    -0.172 NA
ENDROOT
BRANCH   1   5
HETATM    5  C13 UNL     1      11.226 -10.557  23.972  1.00  0.00     0.087 C 
HETATM    6  C14 UNL     1      11.381 -11.361  25.194  1.00  0.00     0.089 C 
BRANCH   5   7
HETATM    7  N4  UNL     1      11.551 -11.014  22.677  1.00  0.00    -0.331 N 
ATOM      8  H4  UNL     1      10.883 -11.630  22.213  1.00  0.00     0.168 HD
BRANCH   7   9
HETATM    9  C12 UNL     1      12.620 -10.715  22.038  1.00  0.00     0.123 A 
HETATM   10  C11 UNL     1      13.661 -11.537  21.646  1.00  0.00     0.083 A 
HETATM   11  C10 UNL     1      14.565 -10.747  20.995  1.00  0.00     0.080 A 
HETATM   12  N8  UNL     1      14.084  -9.487  20.995  1.00  0.00    -0.297 N 
HETATM   13  N7  UNL     1      12.924  -9.482  21.620  1.00  0.00    -0.285 N 
ATOM     14  H8  UNL     1      14.541  -8.674  20.581  1.00  0.00     0.187 HD
ATOM     15  H7  UNL     1      12.343  -8.657  21.765  1.00  0.00     0.188 HD
BRANCH  11  16
HETATM   16  C9  UNL     1      15.833 -11.176  20.397  1.00  0.00     0.077 A 
HETATM   17  C8  UNL     1      16.016 -11.577  19.087  1.00  0.00     0.052 A 
HETATM   18  C7  UNL     1      17.346 -11.896  18.923  1.00  0.00     0.113 A 
HETATM   19  N3  UNL     1      17.926 -11.684  20.122  1.00  0.00    -0.294 N 
HETATM   20  N9  UNL     1      17.019 -11.258  20.985  1.00  0.00    -0.296 N 
ATOM     21  H9  UNL     1      17.203 -11.026  21.961  1.00  0.00     0.187 HD
BRANCH  19  22
HETATM   22  C6  UNL     1      19.310 -11.884  20.433  1.00  0.00     0.250 C 
BRANCH  22  23
HETATM   23  C5  UNL     1      19.490 -13.123  21.268  1.00  0.00     0.237 C 
HETATM   24  N2  UNL     1      19.623 -13.006  22.676  1.00  0.00    -0.359 N 
ATOM     25  H2  UNL     1      19.599 -12.094  23.132  1.00  0.00     0.162 HD
HETATM   26  O1  UNL     1      19.516 -14.239  20.674  1.00  0.00    -0.272 OA
BRANCH  24  27
HETATM   27  C4  UNL     1      19.791 -14.212  23.440  1.00  0.00     0.130 C 
BRANCH  27  28
HETATM   28  C3  UNL     1      18.608 -14.514  24.327  1.00  0.00     0.096 C 
BRANCH  28  29
HETATM   29  C2  UNL     1      17.734 -15.554  23.791  1.00  0.00     0.077 C 
HETATM   30  N1  UNL     1      17.373 -16.598  24.498  1.00  0.00    -0.384 N 
HETATM   31  C1  UNL     1      16.519 -17.633  24.005  1.00  0.00     0.147 C 
ATOM     32  H1  UNL     1      17.720 -16.676  25.454  1.00  0.00     0.160 HD
BRANCH  29  33
HETATM   33  N10 UNL     1      17.215 -15.461  22.491  1.00  0.00    -0.355 N 
ATOM     34  H10 UNL     1      17.577 -16.181  21.865  1.00  0.00     0.166 HD
BRANCH  33  35
HETATM   35  C16 UNL     1      16.306 -14.596  21.864  1.00  0.00     0.114 C 
BRANCH  35  36
HETATM   36  C17 UNL     1      15.592 -14.927  20.632  1.00  0.00     0.218 C 
BRANCH  36  37
HETATM   37  N11 UNL     1      14.302 -15.477  20.596  1.00  0.00    -0.057 N 
HETATM   38  C18 UNL     1      13.388 -15.210  21.640  1.00  0.00     0.277 C 
HETATM   39  C19 UNL     1      14.361 -16.892  20.248  1.00  0.00     0.277 C 
HETATM   40  C20 UNL     1      13.656 -14.852  19.380  1.00  0.00     0.277 C 
ENDBRANCH  36  37
ENDBRANCH  35  36
ENDBRANCH  33  35
ENDBRANCH  29  33
ENDBRANCH  28  29
ENDBRANCH  27  28
ENDBRANCH  24  27
ENDBRANCH  22  23
ENDBRANCH  19  22
ENDBRANCH  11  16
ENDBRANCH   7   9
ENDBRANCH   5   7
ENDBRANCH   1   5
TORSDOF 13
ENDMDL
MODEL 4
REMARK VINA RESULT: -7.374143466      2.609      4.731
REMARK  13 active torsions:
REMARK  status: ('A' for Active; 'I' for Inactive)
REMARK    1  A    between atoms: C2_4  and  C3_5 
REMARK    2  A    between atoms: C2_4  and  N10_33 
REMARK    3  A    between atoms: C3_5  and  C4_6 
REMARK    4  A    between atoms: C4_6  and  N2_7 
REMARK       I    between atoms: N2_7  and  C5_9 
REMARK    5  A    between atoms: C5_9  and  C6_11 
REMARK    6  A    between atoms: C6_11  and  N3_12 
REMARK    7  A    between atoms: C9_15  and  C10_16 
REMARK    8  A    between atoms: C12_18  and  N4_19 
REMARK    9  A    between atoms: N4_19  and  C13_21 
REMARK   10  A    between atoms: C13_21  and  N5_23 
REMARK   11  A    between atoms: N10_33  and  C16_35 
REMARK   12  A    between atoms: C16_35  and  C17_36 
REMARK   13  A    between atoms: C17_36  and  N11_37 
ROOT
HETATM    1  N5  UNL     1      12.316  -9.732  21.776  1.00  0.00    -0.283 N 
ATOM      2  H5  UNL     1      12.303  -9.013  21.053  1.00  0.00     0.179 HD
HETATM    3  C15 UNL     1      11.897  -9.391  23.065  1.00  0.00     0.183 C 
HETATM    4  N6  UNL     1      11.534  -9.103  24.122  1.00  0.00    -0.172 NA
ENDROOT
BRANCH   1   5
HETATM    5  C13 UNL     1      12.722 -10.926  21.457  1.00  0.00     0.087 C 
HETATM    6  C14 UNL     1      12.117 -12.089  22.123  1.00  0.00     0.089 C 
BRANCH   5   7
HETATM    7  N4  UNL     1      13.734 -11.012  20.477  1.00  0.00    -0.331 N 
ATOM      8  H4  UNL     1      13.465 -10.850  19.507  1.00  0.00     0.168 HD
BRANCH   7   9
HETATM    9  C12 UNL     1      14.965 -11.278  20.711  1.00  0.00     0.123 A 
HETATM   10  C11 UNL     1      15.510 -12.340  21.409  1.00  0.00     0.083 A 
HETATM   11  C10 UNL     1      16.865 -12.178  21.381  1.00  0.00     0.080 A 
HETATM   12  N8  UNL     1      17.129 -11.051  20.686  1.00  0.00    -0.297 N 
HETATM   13  N7  UNL     1      15.987 -10.525  20.293  1.00  0.00    -0.285 N 
ATOM     14  H8  UNL     1      18.058 -10.671  20.497  1.00  0.00     0.187 HD
ATOM     15  H7  UNL     1      15.897  -9.668  19.749  1.00  0.00     0.188 HD
BRANCH  11  16
HETATM   16  C9  UNL     1      17.868 -13.059  21.988  1.00  0.00     0.077 A 
HETATM   17  C8  UNL     1      19.143 -13.288  21.506  1.00  0.00     0.052 A 
HETATM   18  C7  UNL     1      19.765 -14.173  22.359  1.00  0.00     0.113 A 
HETATM   19  N3  UNL     1      18.863 -14.452  23.322  1.00  0.00    -0.294 N 
HETATM   20  N9  UNL     1      17.745 -13.786  23.090  1.00  0.00    -0.296 N 
ATOM     21  H9  UNL     1      16.909 -13.826  23.673  1.00  0.00     0.187 HD
BRANCH  19  22
HETATM   22  C6  UNL     1      19.067 -15.333  24.434  1.00  0.00     0.250 C 
BRANCH  22  23
HETATM   23  C5  UNL     1      18.345 -16.635  24.215  1.00  0.00     0.237 C 
HETATM   24  N2  UNL     1      17.044 -16.814  24.756  1.00  0.00    -0.359 N 
ATOM     25  H2  UNL     1      16.592 -16.074  25.292  1.00  0.00     0.162 HD
HETATM   26  O1  UNL     1      18.932 -17.534  23.548  1.00  0.00    -0.272 OA
BRANCH  24  27
HETATM   27  C4  UNL     1      16.385 -18.070  24.525  1.00  0.00     0.130 C 
BRANCH  27  28
HETATM   28  C3  UNL     1      15.271 -17.970  23.512  1.00  0.00     0.096 C 
BRANCH  28  29
HETATM   29  C2  UNL     1      15.528 -16.987  22.464  1.00  0.00     0.077 C 
HETATM   30  N1  UNL     1      16.428 -17.178  21.529  1.00  0.00    -0.384 N 
HETATM   31  C1  UNL     1      16.704 -16.237  20.489  1.00  0.00     0.147 C 
ATOM     32  H1  UNL     1      16.961 -18.047  21.545  1.00  0.00     0.160 HD
BRANCH  29  33
HETATM   33  N10 UNL     1      14.790 -15.795  22.396  1.00  0.00    -0.355 N 
ATOM     34  H10 UNL     1      15.311 -14.985  22.733  1.00  0.00     0.166 HD
BRANCH  33  35
HETATM   35  C16 UNL     1      13.495 -15.473  21.966  1.00  0.00     0.114 C 
BRANCH  35  36
HETATM   36  C17 UNL     1      12.789 -16.196  20.909  1.00  0.00     0.218 C 
BRANCH  36  37
HETATM   37  N11 UNL     1      12.817 -15.831  19.554  1.00  0.00    -0.057 N 
HETATM   38  C18 UNL     1      13.549 -14.695  19.141  1.00  0.00     0.277 C 
HETATM   39  C19 UNL     1      11.474 -15.873  18.988  1.00  0.00     0.277 C 
HETATM   40  C20 UNL     1      13.515 -16.982  18.866  1.00  0.00     0.277 C 
ENDBRANCH  36  37
ENDBRANCH  35  36
ENDBRANCH  33  35
ENDBRANCH  29  33
ENDBRANCH  28  29
ENDBRANCH  27  28
ENDBRANCH  24  27
ENDBRANCH  22  23
ENDBRANCH  19  22
ENDBRANCH  11  16
ENDBRANCH   7   9
ENDBRANCH   5   7
ENDBRANCH   1   5
TORSDOF 13
ENDMDL
MODEL 5
REMARK VINA RESULT: -7.343809524      2.195      3.995
REMARK  13 active torsions:
REMARK  status: ('A' for Active; 'I' for Inactive)
REMARK    1  A    between atoms: C2_4  and  C3_5 
REMARK    2  A    between atoms: C2_4  and  N10_33 
REMARK    3  A    between atoms: C3_5  and  C4_6 
REMARK    4  A    between atoms: C4_6  and  N2_7 
REMARK       I    between atoms: N2_7  and  C5_9 
REMARK    5  A    between atoms: C5_9  and  C6_11 
REMARK    6  A    between atoms: C6_11  and  N3_12 
REMARK    7  A    between atoms: C9_15  and  C10_16 
REMARK    8  A    between atoms: C12_18  and  N4_19 
REMARK    9  A    between atoms: N4_19  and  C13_21 
REMARK   10  A    between atoms: C13_21  and  N5_23 
REMARK   11  A    between atoms: N10_33  and  C16_35 
REMARK   12  A    between atoms: C16_35  and  C17_36 
REMARK   13  A    between atoms: C17_36  and  N11_37 
ROOT
HETATM    1  N5  UNL     1      12.603  -9.576  22.095  1.00  0.00    -0.283 N 
ATOM      2  H5  UNL     1      13.067  -8.731  21.762  1.00  0.00     0.179 HD
HETATM    3  C15 UNL     1      11.873  -9.513  23.285  1.00  0.00     0.183 C 
HETATM    4  N6  UNL     1      11.259  -9.447  24.260  1.00  0.00    -0.172 NA
ENDROOT
BRANCH   1   5
HETATM    5  C13 UNL     1      12.717 -10.664  21.391  1.00  0.00     0.087 C 
HETATM    6  C14 UNL     1      12.238 -11.935  21.956  1.00  0.00     0.089 C 
BRANCH   5   7
HETATM    7  N4  UNL     1      13.306 -10.537  20.114  1.00  0.00    -0.331 N 
ATOM      8  H4  UNL     1      12.749 -10.098  19.381  1.00  0.00     0.168 HD
BRANCH   7   9
HETATM    9  C12 UNL     1      14.484 -10.930  19.805  1.00  0.00     0.123 A 
HETATM   10  C11 UNL     1      15.543 -11.251  20.635  1.00  0.00     0.083 A 
HETATM   11  C10 UNL     1      16.582 -11.613  19.828  1.00  0.00     0.080 A 
HETATM   12  N8  UNL     1      16.164 -11.513  18.549  1.00  0.00    -0.297 N 
HETATM   13  N7  UNL     1      14.911 -11.104  18.550  1.00  0.00    -0.285 N 
ATOM     14  H8  UNL     1      16.723 -11.719  17.721  1.00  0.00     0.187 HD
ATOM     15  H7  UNL     1      14.349 -10.944  17.715  1.00  0.00     0.188 HD
BRANCH  11  16
HETATM   16  C9  UNL     1      17.919 -12.038  20.256  1.00  0.00     0.077 A 
HETATM   17  C8  UNL     1      19.057 -12.046  19.471  1.00  0.00     0.052 A 
HETATM   18  C7  UNL     1      20.100 -12.510  20.241  1.00  0.00     0.113 A 
HETATM   19  N3  UNL     1      19.574 -12.768  21.456  1.00  0.00    -0.294 N 
HETATM   20  N9  UNL     1      18.283 -12.484  21.451  1.00  0.00    -0.296 N 
ATOM     21  H9  UNL     1      17.657 -12.592  22.248  1.00  0.00     0.187 HD
BRANCH  19  22
HETATM   22  C6  UNL     1      20.289 -13.273  22.590  1.00  0.00     0.250 C 
BRANCH  22  23
HETATM   23  C5  UNL     1      19.599 -14.487  23.152  1.00  0.00     0.237 C 
HETATM   24  N2  UNL     1      20.065 -15.781  22.804  1.00  0.00    -0.359 N 
ATOM     25  H2  UNL     1      20.860 -15.902  22.177  1.00  0.00     0.162 HD
HETATM   26  O1  UNL     1      18.616 -14.304  23.926  1.00  0.00    -0.272 OA
BRANCH  24  27
HETATM   27  C4  UNL     1      19.382 -16.916  23.362  1.00  0.00     0.130 C 
BRANCH  27  28
HETATM   28  C3  UNL     1      18.498 -17.619  22.360  1.00  0.00     0.096 C 
BRANCH  28  29
HETATM   29  C2  UNL     1      17.073 -17.467  22.639  1.00  0.00     0.077 C 
HETATM   30  N1  UNL     1      16.302 -18.489  22.921  1.00  0.00    -0.384 N 
HETATM   31  C1  UNL     1      14.904 -18.375  23.199  1.00  0.00     0.147 C 
ATOM     32  H1  UNL     1      16.722 -19.418  22.944  1.00  0.00     0.160 HD
BRANCH  29  33
HETATM   33  N10 UNL     1      16.471 -16.200  22.646  1.00  0.00    -0.355 N 
ATOM     34  H10 UNL     1      16.240 -15.874  23.585  1.00  0.00     0.166 HD
BRANCH  33  35
HETATM   35  C16 UNL     1      16.116 -15.283  21.646  1.00  0.00     0.114 C 
BRANCH  35  36
HETATM   36  C17 UNL     1      14.740 -14.867  21.379  1.00  0.00     0.218 C 
BRANCH  36  37
HETATM   37  N11 UNL     1      13.923 -15.441  20.393  1.00  0.00    -0.057 N 
HETATM   38  C18 UNL     1      14.237 -16.715  19.866  1.00  0.00     0.277 C 
HETATM   39  C19 UNL     1      13.613 -14.464  19.356  1.00  0.00     0.277 C 
HETATM   40  C20 UNL     1      12.592 -15.650  21.077  1.00  0.00     0.277 C 
ENDBRANCH  36  37
ENDBRANCH  35  36
ENDBRANCH  33  35
ENDBRANCH  29  33
ENDBRANCH  28  29
ENDBRANCH  27  28
ENDBRANCH  24  27
ENDBRANCH  22  23
ENDBRANCH  19  22
ENDBRANCH  11  16
ENDBRANCH   7   9
ENDBRANCH   5   7
ENDBRANCH   1   5
TORSDOF 13
ENDMDL
