MODEL 1
REMARK VINA RESULT: -7.939497735      0.000      0.000
REMARK  13 active torsions:
REMARK  status: ('A' for Active; 'I' for Inactive)
REMARK    1  A    between atoms: C2_2  and  C3_3 
REMARK    2  A    between atoms: N1_6  and  C6_7 
REMARK    3  A    between atoms: C6_7  and  C7_8 
REMARK    4  A    between atoms: C7_8  and  C8_9 
REMARK    5  A    between atoms: C8_9  and  C9_10 
REMARK    6  A    between atoms: C9_10  and  C10_11 
REMARK    7  A    between atoms: C10_11  and  N2_12 
REMARK    8  A    between atoms: C12_14  and  C13_15 
REMARK    9  A    between atoms: C13_15  and  C14_16 
REMARK   10  A    between atoms: C14_16  and  C15_17 
REMARK   11  A    between atoms: C15_17  and  N3_18 
REMARK   12  A    between atoms: N4_22  and  C18_24 
REMARK   13  A    between atoms: C21_34  and  O2_35 
ROOT
HETATM    1  N2  UNL     1      14.567 -16.366  20.822  1.00  0.00    -0.322 N 
HETATM    2  C11 UNL     1      15.152 -15.176  20.956  1.00  0.00     0.109 A 
HETATM    3  C12 UNL     1      14.517 -14.001  21.329  1.00  0.00     0.024 A 
HETATM    4  C17 UNL     1      13.167 -14.029  21.591  1.00  0.00     0.122 A 
HETATM    5  N4  UNL     1      12.457 -13.112  21.924  1.00  0.00    -0.313 N 
ATOM      6  H4  UNL     1      11.525 -13.513  22.028  1.00  0.00     0.170 HD
HETATM    7  N7  UNL     1      12.573 -15.297  21.443  1.00  0.00    -0.307 N 
ATOM      8  H7  UNL     1      11.573 -15.384  21.624  1.00  0.00     0.171 HD
HETATM    9  C21 UNL     1      13.231 -16.371  21.087  1.00  0.00     0.224 A 
ENDROOT
BRANCH   1  10
HETATM   10  C10 UNL     1      15.248 -17.561  20.446  1.00  0.00     0.132 C 
BRANCH  10  11
HETATM   11  C9  UNL     1      16.712 -17.479  20.269  1.00  0.00     0.020 C 
BRANCH  11  12
HETATM   12  C8  UNL     1      17.571 -18.188  21.255  1.00  0.00     0.003 C 
BRANCH  12  13
HETATM   13  C7  UNL     1      18.018 -17.283  22.374  1.00  0.00     0.020 C 
BRANCH  13  14
HETATM   14  C6  UNL     1      18.512 -15.979  21.836  1.00  0.00     0.128 C 
BRANCH  14  15
HETATM   15  N1  UNL     1      19.087 -15.074  22.761  1.00  0.00    -0.366 N 
HETATM   16  C5  UNL     1      18.611 -14.955  24.029  1.00  0.00     0.091 A 
HETATM   17  C4  UNL     1      19.151 -14.078  24.941  1.00  0.00     0.024 A 
HETATM   18  C3  UNL     1      20.222 -13.275  24.572  1.00  0.00    -0.056 A 
HETATM   19  C23 UNL     1      20.684 -13.415  23.286  1.00  0.00     0.024 A 
HETATM   20  C22 UNL     1      20.131 -14.304  22.375  1.00  0.00     0.091 A 
BRANCH  18  21
HETATM   21  C2  UNL     1      20.820 -12.319  25.547  1.00  0.00     0.034 C 
HETATM   22  C1  UNL     1      20.820 -12.969  26.929  1.00  0.00     0.010 C 
ENDBRANCH  18  21
ENDBRANCH  14  15
ENDBRANCH  13  14
ENDBRANCH  12  13
ENDBRANCH  11  12
ENDBRANCH  10  11
ENDBRANCH   1  10
BRANCH   9  23
HETATM   23  O2  UNL     1      12.538 -17.581  20.971  1.00  0.00    -0.332 OA
ATOM     24  H2  UNL     1      12.756 -18.283  21.572  1.00  0.00     0.221 HD
ENDBRANCH   9  23
BRANCH   3  25
HETATM   25  C13 UNL     1      15.289 -12.752  21.437  1.00  0.00     0.018 C 
BRANCH  25  26
HETATM   26  C14 UNL     1      16.557 -12.692  21.773  1.00  0.00     0.018 C 
BRANCH  26  27
HETATM   27  C15 UNL     1      17.491 -11.867  21.036  1.00  0.00     0.082 C 
BRANCH  27  28
HETATM   28  N3  UNL     1      18.014 -12.128  19.898  1.00  0.00    -0.403 N 
HETATM   29  C16 UNL     1      19.452 -12.101  19.672  1.00  0.00     0.145 C 
ATOM     30  H3  UNL     1      17.400 -12.363  19.119  1.00  0.00     0.158 HD
ENDBRANCH  27  28
ENDBRANCH  26  27
ENDBRANCH  25  26
ENDBRANCH   3  25
BRANCH   5  31
HETATM   31  C18 UNL     1      12.325 -11.815  22.220  1.00  0.00     0.184 A 
HETATM   32  N5  UNL     1      12.667 -10.779  21.459  1.00  0.00    -0.353 N 
HETATM   33  C19 UNL     1      12.383  -9.531  22.095  1.00  0.00     0.225 A 
ATOM     34  H5  UNL     1      13.081 -10.866  20.532  1.00  0.00     0.163 HD
HETATM   35  C20 UNL     1      11.756  -9.868  23.393  1.00  0.00     0.241 A 
HETATM   36  O1  UNL     1      11.317  -9.070  24.279  1.00  0.00    -0.271 OA
HETATM   37  N6  UNL     1      11.747 -11.275  23.449  1.00  0.00    -0.297 N 
ATOM     38  H6  UNL     1      11.391 -11.832  24.226  1.00  0.00     0.172 HD
ENDBRANCH   5  31
TORSDOF 13
ENDMDL
MODEL 2
REMARK VINA RESULT: -7.849009851      0.971      1.282
REMARK  13 active torsions:
REMARK  status: ('A' for Active; 'I' for Inactive)
REMARK    1  A    between atoms: C2_2  and  C3_3 
REMARK    2  A    between atoms: N1_6  and  C6_7 
REMARK    3  A    between atoms: C6_7  and  C7_8 
REMARK    4  A    between atoms: C7_8  and  C8_9 
REMARK    5  A    between atoms: C8_9  and  C9_10 
REMARK    6  A    between atoms: C9_10  and  C10_11 
REMARK    7  A    between atoms: C10_11  and  N2_12 
REMARK    8  A    between atoms: C12_14  and  C13_15 
REMARK    9  A    between atoms: C13_15  and  C14_16 
REMARK   10  A    between atoms: C14_16  and  C15_17 
REMARK   11  A    between atoms: C15_17  and  N3_18 
REMARK   12  A    between atoms: N4_22  and  C18_24 
REMARK   13  A    between atoms: C21_34  and  O2_35 
ROOT
HETATM    1  N2  UNL     1      14.275 -16.120  20.138  1.00  0.00    -0.322 N 
HETATM    2  C11 UNL     1      14.456 -14.863  19.732  1.00  0.00     0.109 A 
HETATM    3  C12 UNL     1      13.938 -13.733  20.347  1.00  0.00     0.024 A 
HETATM    4  C17 UNL     1      13.166 -13.886  21.476  1.00  0.00     0.122 A 
HETATM    5  N4  UNL     1      12.638 -13.024  22.134  1.00  0.00    -0.313 N 
ATOM      6  H4  UNL     1      12.156 -13.514  22.888  1.00  0.00     0.170 HD
HETATM    7  N7  UNL     1      12.990 -15.222  21.883  1.00  0.00    -0.307 N 
ATOM      8  H7  UNL     1      12.428 -15.401  22.714  1.00  0.00     0.171 HD
HETATM    9  C21 UNL     1      13.509 -16.248  21.256  1.00  0.00     0.224 A 
ENDROOT
BRANCH   1  10
HETATM   10  C10 UNL     1      14.829 -17.263  19.490  1.00  0.00     0.132 C 
BRANCH  10  11
HETATM   11  C9  UNL     1      16.301 -17.388  19.479  1.00  0.00     0.020 C 
BRANCH  11  12
HETATM   12  C8  UNL     1      16.993 -17.569  20.783  1.00  0.00     0.003 C 
BRANCH  12  13
HETATM   13  C7  UNL     1      17.648 -16.297  21.259  1.00  0.00     0.020 C 
BRANCH  13  14
HETATM   14  C6  UNL     1      17.376 -16.072  22.711  1.00  0.00     0.128 C 
BRANCH  14  15
HETATM   15  N1  UNL     1      18.228 -15.174  23.397  1.00  0.00    -0.366 N 
HETATM   16  C5  UNL     1      18.794 -14.110  22.768  1.00  0.00     0.091 A 
HETATM   17  C4  UNL     1      19.630 -13.229  23.414  1.00  0.00     0.024 A 
HETATM   18  C3  UNL     1      19.920 -13.416  24.759  1.00  0.00    -0.056 A 
HETATM   19  C23 UNL     1      19.336 -14.499  25.370  1.00  0.00     0.024 A 
HETATM   20  C22 UNL     1      18.494 -15.381  24.708  1.00  0.00     0.091 A 
BRANCH  18  21
HETATM   21  C2  UNL     1      20.824 -12.472  25.475  1.00  0.00     0.034 C 
HETATM   22  C1  UNL     1      20.863 -12.861  26.951  1.00  0.00     0.010 C 
ENDBRANCH  18  21
ENDBRANCH  14  15
ENDBRANCH  13  14
ENDBRANCH  12  13
ENDBRANCH  11  12
ENDBRANCH  10  11
ENDBRANCH   1  10
BRANCH   9  23
HETATM   23  O2  UNL     1      13.269 -17.534  21.751  1.00  0.00    -0.332 OA
ATOM     24  H2  UNL     1      14.014 -18.105  21.900  1.00  0.00     0.221 HD
ENDBRANCH   9  23
BRANCH   3  25
HETATM   25  C13 UNL     1      14.218 -12.400  19.789  1.00  0.00     0.018 C 
BRANCH  25  26
HETATM   26  C14 UNL     1      15.423 -11.907  19.617  1.00  0.00     0.018 C 
BRANCH  26  27
HETATM   27  C15 UNL     1      16.213 -11.449  20.738  1.00  0.00     0.082 C 
BRANCH  27  28
HETATM   28  N3  UNL     1      17.440 -11.088  20.717  1.00  0.00    -0.403 N 
HETATM   29  C16 UNL     1      18.464 -11.832  20.000  1.00  0.00     0.145 C 
ATOM     30  H3  UNL     1      17.711 -10.245  21.223  1.00  0.00     0.158 HD
ENDBRANCH  27  28
ENDBRANCH  26  27
ENDBRANCH  25  26
ENDBRANCH   3  25
BRANCH   5  31
HETATM   31  C18 UNL     1      12.391 -11.725  22.335  1.00  0.00     0.184 A 
HETATM   32  N5  UNL     1      12.572 -10.731  21.471  1.00  0.00    -0.353 N 
HETATM   33  C19 UNL     1      12.201  -9.467  22.024  1.00  0.00     0.225 A 
ATOM     34  H5  UNL     1      12.932 -10.857  20.525  1.00  0.00     0.163 HD
HETATM   35  C20 UNL     1      11.699  -9.749  23.387  1.00  0.00     0.241 A 
HETATM   36  O1  UNL     1      11.237  -8.924  24.236  1.00  0.00    -0.271 OA
HETATM   37  N6  UNL     1      11.840 -11.140  23.556  1.00  0.00    -0.297 N 
ATOM     38  H6  UNL     1      11.595 -11.659  24.399  1.00  0.00     0.172 HD
ENDBRANCH   5  31
TORSDOF 13
ENDMDL
MODEL 3
REMARK VINA RESULT: -7.688896039      0.942      1.249
REMARK  13 active torsions:
REMARK  status: ('A' for Active; 'I' for Inactive)
REMARK    1  A    between atoms: C2_2  and  C3_3 
REMARK    2  A    between atoms: N1_6  and  C6_7 
REMARK    3  A    between atoms: C6_7  and  C7_8 
REMARK    4  A    between atoms: C7_8  and  C8_9 
REMARK    5  A    between atoms: C8_9  and  C9_10 
REMARK    6  A    between atoms: C9_10  and  C10_11 
REMARK    7  A    between atoms: C10_11  and  N2_12 
REMARK    8  A    between atoms: C12_14  and  C13_15 
REMARK    9  A    between atoms: C13_15  and  C14_16 
REMARK   10  A    between atoms: C14_16  and  C15_17 
REMARK   11  A    between atoms: C15_17  and  N3_18 
REMARK   12  A    between atoms: N4_22  and  C18_24 
REMARK   13  A    between atoms: C21_34  and  O2_35 
ROOT
HETATM    1  N2  UNL     1      14.650 -16.211  21.000  1.00  0.00    -0.322 N 
HETATM    2  C11 UNL     1      15.225 -15.021  21.171  1.00  0.00     0.109 A 
HETATM    3  C12 UNL     1      14.566 -13.845  21.495  1.00  0.00     0.024 A 
HETATM    4  C17 UNL     1      13.200 -13.872  21.660  1.00  0.00     0.122 A 
HETATM    5  N4  UNL     1      12.469 -12.954  21.939  1.00  0.00    -0.313 N 
ATOM      6  H4  UNL     1      11.531 -13.354  21.977  1.00  0.00     0.170 HD
HETATM    7  N7  UNL     1      12.617 -15.140  21.475  1.00  0.00    -0.307 N 
ATOM      8  H7  UNL     1      11.607 -15.226  21.584  1.00  0.00     0.171 HD
HETATM    9  C21 UNL     1      13.299 -16.216  21.169  1.00  0.00     0.224 A 
ENDROOT
BRANCH   1  10
HETATM   10  C10 UNL     1      15.356 -17.408  20.677  1.00  0.00     0.132 C 
BRANCH  10  11
HETATM   11  C9  UNL     1      16.090 -18.077  21.770  1.00  0.00     0.020 C 
BRANCH  11  12
HETATM   12  C8  UNL     1      15.529 -17.982  23.145  1.00  0.00     0.003 C 
BRANCH  12  13
HETATM   13  C7  UNL     1      16.500 -17.354  24.112  1.00  0.00     0.020 C 
BRANCH  13  14
HETATM   14  C6  UNL     1      17.756 -16.945  23.413  1.00  0.00     0.128 C 
BRANCH  14  15
HETATM   15  N1  UNL     1      18.458 -15.835  23.941  1.00  0.00    -0.366 N 
HETATM   16  C5  UNL     1      18.657 -14.706  23.210  1.00  0.00     0.091 A 
HETATM   17  C4  UNL     1      19.342 -13.619  23.701  1.00  0.00     0.024 A 
HETATM   18  C3  UNL     1      19.858 -13.655  24.989  1.00  0.00    -0.056 A 
HETATM   19  C23 UNL     1      19.643 -14.807  25.706  1.00  0.00     0.024 A 
HETATM   20  C22 UNL     1      18.950 -15.898  25.201  1.00  0.00     0.091 A 
BRANCH  18  21
HETATM   21  C2  UNL     1      20.603 -12.487  25.538  1.00  0.00     0.034 C 
HETATM   22  C1  UNL     1      20.886 -12.742  27.017  1.00  0.00     0.010 C 
ENDBRANCH  18  21
ENDBRANCH  14  15
ENDBRANCH  13  14
ENDBRANCH  12  13
ENDBRANCH  11  12
ENDBRANCH  10  11
ENDBRANCH   1  10
BRANCH   9  23
HETATM   23  O2  UNL     1      12.615 -17.425  21.009  1.00  0.00    -0.332 OA
ATOM     24  H2  UNL     1      12.725 -18.096  21.672  1.00  0.00     0.221 HD
ENDBRANCH   9  23
BRANCH   3  25
HETATM   25  C13 UNL     1      15.329 -12.595  21.653  1.00  0.00     0.018 C 
BRANCH  25  26
HETATM   26  C14 UNL     1      15.924 -11.962  20.670  1.00  0.00     0.018 C 
BRANCH  26  27
HETATM   27  C15 UNL     1      17.355 -11.746  20.673  1.00  0.00     0.082 C 
BRANCH  27  28
HETATM   28  N3  UNL     1      18.258 -12.581  20.324  1.00  0.00    -0.403 N 
HETATM   29  C16 UNL     1      19.587 -12.166  19.898  1.00  0.00     0.145 C 
ATOM     30  H3  UNL     1      18.040 -13.577  20.346  1.00  0.00     0.158 HD
ENDBRANCH  27  28
ENDBRANCH  26  27
ENDBRANCH  25  26
ENDBRANCH   3  25
BRANCH   5  31
HETATM   31  C18 UNL     1      12.317 -11.655  22.221  1.00  0.00     0.184 A 
HETATM   32  N5  UNL     1      12.589 -10.625  21.427  1.00  0.00    -0.353 N 
HETATM   33  C19 UNL     1      12.304  -9.374  22.056  1.00  0.00     0.225 A 
ATOM     34  H5  UNL     1      12.957 -10.716  20.480  1.00  0.00     0.163 HD
HETATM   35  C20 UNL     1      11.756  -9.704  23.391  1.00  0.00     0.241 A 
HETATM   36  O1  UNL     1      11.342  -8.903  24.285  1.00  0.00    -0.271 OA
HETATM   37  N6  UNL     1      11.788 -11.110  23.469  1.00  0.00    -0.297 N 
ATOM     38  H6  UNL     1      11.489 -11.662  24.273  1.00  0.00     0.172 HD
ENDBRANCH   5  31
TORSDOF 13
ENDMDL
MODEL 4
REMARK VINA RESULT: -7.577283183      3.410      8.695
REMARK  13 active torsions:
REMARK  status: ('A' for Active; 'I' for Inactive)
REMARK    1  A    between atoms: C2_2  and  C3_3 
REMARK    2  A    between atoms: N1_6  and  C6_7 
REMARK    3  A    between atoms: C6_7  and  C7_8 
REMARK    4  A    between atoms: C7_8  and  C8_9 
REMARK    5  A    between atoms: C8_9  and  C9_10 
REMARK    6  A    between atoms: C9_10  and  C10_11 
REMARK    7  A    between atoms: C10_11  and  N2_12 
REMARK    8  A    between atoms: C12_14  and  C13_15 
REMARK    9  A    between atoms: C13_15  and  C14_16 
REMARK   10  A    between atoms: C14_16  and  C15_17 
REMARK   11  A    between atoms: C15_17  and  N3_18 
REMARK   12  A    between atoms: N4_22  and  C18_24 
REMARK   13  A    between atoms: C21_34  and  O2_35 
ROOT
HETATM    1  N2  UNL     1      18.042 -13.680  22.223  1.00  0.00    -0.322 N 
HETATM    2  C11 UNL     1      18.969 -13.241  23.073  1.00  0.00     0.109 A 
HETATM    3  C12 UNL     1      20.117 -13.927  23.441  1.00  0.00     0.024 A 
HETATM    4  C17 UNL     1      20.350 -15.170  22.902  1.00  0.00     0.122 A 
HETATM    5  N4  UNL     1      21.286 -15.904  23.106  1.00  0.00    -0.313 N 
ATOM      6  H4  UNL     1      21.116 -16.729  22.532  1.00  0.00     0.170 HD
HETATM    7  N7  UNL     1      19.356 -15.611  22.007  1.00  0.00    -0.307 N 
ATOM      8  H7  UNL     1      19.472 -16.526  21.573  1.00  0.00     0.171 HD
HETATM    9  C21 UNL     1      18.292 -14.912  21.700  1.00  0.00     0.224 A 
ENDROOT
BRANCH   1  10
HETATM   10  C10 UNL     1      16.874 -12.948  21.855  1.00  0.00     0.132 C 
BRANCH  10  11
HETATM   11  C9  UNL     1      17.016 -11.942  20.783  1.00  0.00     0.020 C 
BRANCH  11  12
HETATM   12  C8  UNL     1      16.396 -12.240  19.464  1.00  0.00     0.003 C 
BRANCH  12  13
HETATM   13  C7  UNL     1      15.144 -11.433  19.230  1.00  0.00     0.020 C 
BRANCH  13  14
HETATM   14  C6  UNL     1      13.965 -12.080  19.880  1.00  0.00     0.128 C 
BRANCH  14  15
HETATM   15  N1  UNL     1      13.328 -11.366  20.923  1.00  0.00    -0.366 N 
HETATM   16  C5  UNL     1      12.449 -11.972  21.765  1.00  0.00     0.091 A 
HETATM   17  C4  UNL     1      11.814 -11.296  22.781  1.00  0.00     0.024 A 
HETATM   18  C3  UNL     1      12.066  -9.944  22.970  1.00  0.00    -0.056 A 
HETATM   19  C23 UNL     1      12.958  -9.357  22.106  1.00  0.00     0.024 A 
HETATM   20  C22 UNL     1      13.593 -10.049  21.084  1.00  0.00     0.091 A 
BRANCH  18  21
HETATM   21  C2  UNL     1      11.387  -9.195  24.065  1.00  0.00     0.034 C 
HETATM   22  C1  UNL     1      12.111  -7.866  24.267  1.00  0.00     0.010 C 
ENDBRANCH  18  21
ENDBRANCH  14  15
ENDBRANCH  13  14
ENDBRANCH  12  13
ENDBRANCH  11  12
ENDBRANCH  10  11
ENDBRANCH   1  10
BRANCH   9  23
HETATM   23  O2  UNL     1      17.369 -15.449  20.797  1.00  0.00    -0.332 OA
ATOM     24  H2  UNL     1      16.933 -14.858  20.195  1.00  0.00     0.221 HD
ENDBRANCH   9  23
BRANCH   3  25
HETATM   25  C13 UNL     1      21.060 -13.320  24.396  1.00  0.00     0.018 C 
BRANCH  25  26
HETATM   26  C14 UNL     1      20.770 -13.038  25.645  1.00  0.00     0.018 C 
BRANCH  26  27
HETATM   27  C15 UNL     1      20.461 -14.081  26.599  1.00  0.00     0.082 C 
BRANCH  27  28
HETATM   28  N3  UNL     1      19.394 -14.784  26.651  1.00  0.00    -0.403 N 
HETATM   29  C16 UNL     1      19.401 -16.232  26.505  1.00  0.00     0.145 C 
ATOM     30  H3  UNL     1      18.503 -14.311  26.800  1.00  0.00     0.158 HD
ENDBRANCH  27  28
ENDBRANCH  26  27
ENDBRANCH  25  26
ENDBRANCH   3  25
BRANCH   5  31
HETATM   31  C18 UNL     1      22.443 -16.136  23.736  1.00  0.00     0.184 A 
HETATM   32  N5  UNL     1      23.664 -15.831  23.309  1.00  0.00    -0.353 N 
HETATM   33  C19 UNL     1      24.672 -16.227  24.242  1.00  0.00     0.225 A 
ATOM     34  H5  UNL     1      23.859 -15.370  22.420  1.00  0.00     0.163 HD
HETATM   35  C20 UNL     1      23.952 -16.813  25.395  1.00  0.00     0.241 A 
HETATM   36  O1  UNL     1      24.446 -17.273  26.471  1.00  0.00    -0.271 OA
HETATM   37  N6  UNL     1      22.588 -16.756  25.051  1.00  0.00    -0.297 N 
ATOM     38  H6  UNL     1      21.820 -17.096  25.630  1.00  0.00     0.172 HD
ENDBRANCH   5  31
TORSDOF 13
ENDMDL
MODEL 5
REMARK VINA RESULT: -7.403545105      3.626      8.678
REMARK  13 active torsions:
REMARK  status: ('A' for Active; 'I' for Inactive)
REMARK    1  A    between atoms: C2_2  and  C3_3 
REMARK    2  A    between atoms: N1_6  and  C6_7 
REMARK    3  A    between atoms: C6_7  and  C7_8 
REMARK    4  A    between atoms: C7_8  and  C8_9 
REMARK    5  A    between atoms: C8_9  and  C9_10 
REMARK    6  A    between atoms: C9_10  and  C10_11 
REMARK    7  A    between atoms: C10_11  and  N2_12 
REMARK    8  A    between atoms: C12_14  and  C13_15 
REMARK    9  A    between atoms: C13_15  and  C14_16 
REMARK   10  A    between atoms: C14_16  and  C15_17 
REMARK   11  A    between atoms: C15_17  and  N3_18 
REMARK   12  A    between atoms: N4_22  and  C18_24 
REMARK   13  A    between atoms: C21_34  and  O2_35 
ROOT
HETATM    1  N2  UNL     1      18.292 -12.746  21.597  1.00  0.00    -0.322 N 
HETATM    2  C11 UNL     1      18.053 -13.573  22.614  1.00  0.00     0.109 A 
HETATM    3  C12 UNL     1      18.991 -14.392  23.226  1.00  0.00     0.024 A 
HETATM    4  C17 UNL     1      20.288 -14.375  22.768  1.00  0.00     0.122 A 
HETATM    5  N4  UNL     1      21.227 -15.014  23.174  1.00  0.00    -0.313 N 
ATOM      6  H4  UNL     1      22.018 -14.736  22.596  1.00  0.00     0.170 HD
HETATM    7  N7  UNL     1      20.513 -13.493  21.693  1.00  0.00    -0.307 N 
ATOM      8  H7  UNL     1      21.456 -13.434  21.309  1.00  0.00     0.171 HD
HETATM    9  C21 UNL     1      19.581 -12.744  21.160  1.00  0.00     0.224 A 
ENDROOT
BRANCH   1  10
HETATM   10  C10 UNL     1      17.308 -11.907  20.993  1.00  0.00     0.132 C 
BRANCH  10  11
HETATM   11  C9  UNL     1      16.595 -12.439  19.814  1.00  0.00     0.020 C 
BRANCH  11  12
HETATM   12  C8  UNL     1      15.541 -13.463  20.044  1.00  0.00     0.003 C 
BRANCH  12  13
HETATM   13  C7  UNL     1      14.196 -13.020  19.527  1.00  0.00     0.020 C 
BRANCH  13  14
HETATM   14  C6  UNL     1      14.068 -11.533  19.587  1.00  0.00     0.128 C 
BRANCH  14  15
HETATM   15  N1  UNL     1      13.404 -10.985  20.710  1.00  0.00    -0.366 N 
HETATM   16  C5  UNL     1      13.637  -9.710  21.122  1.00  0.00     0.091 A 
HETATM   17  C4  UNL     1      13.007  -9.160  22.214  1.00  0.00     0.024 A 
HETATM   18  C3  UNL     1      12.096  -9.918  22.937  1.00  0.00    -0.056 A 
HETATM   19  C23 UNL     1      11.879 -11.202  22.500  1.00  0.00     0.024 A 
HETATM   20  C22 UNL     1      12.520 -11.746  21.396  1.00  0.00     0.091 A 
BRANCH  18  21
HETATM   21  C2  UNL     1      11.404  -9.338  24.123  1.00  0.00     0.034 C 
HETATM   22  C1  UNL     1      11.928  -7.922  24.348  1.00  0.00     0.010 C 
ENDBRANCH  18  21
ENDBRANCH  14  15
ENDBRANCH  13  14
ENDBRANCH  12  13
ENDBRANCH  11  12
ENDBRANCH  10  11
ENDBRANCH   1  10
BRANCH   9  23
HETATM   23  O2  UNL     1      19.918 -11.903  20.094  1.00  0.00    -0.332 OA
ATOM     24  H2  UNL     1      19.216 -11.549  19.561  1.00  0.00     0.221 HD
ENDBRANCH   9  23
BRANCH   3  25
HETATM   25  C13 UNL     1      18.588 -15.260  24.345  1.00  0.00     0.018 C 
BRANCH  25  26
HETATM   26  C14 UNL     1      18.680 -14.926  25.611  1.00  0.00     0.018 C 
BRANCH  26  27
HETATM   27  C15 UNL     1      19.017 -15.904  26.623  1.00  0.00     0.082 C 
BRANCH  27  28
HETATM   28  N3  UNL     1      18.637 -17.124  26.669  1.00  0.00    -0.403 N 
HETATM   29  C16 UNL     1      19.499 -18.197  27.144  1.00  0.00     0.145 C 
ATOM     30  H3  UNL     1      17.692 -17.355  26.362  1.00  0.00     0.158 HD
ENDBRANCH  27  28
ENDBRANCH  26  27
ENDBRANCH  25  26
ENDBRANCH   3  25
BRANCH   5  31
HETATM   31  C18 UNL     1      21.710 -15.919  24.033  1.00  0.00     0.184 A 
HETATM   32  N5  UNL     1      21.698 -17.241  23.896  1.00  0.00    -0.353 N 
HETATM   33  C19 UNL     1      22.303 -17.900  25.010  1.00  0.00     0.225 A 
ATOM     34  H5  UNL     1      21.304 -17.727  23.090  1.00  0.00     0.163 HD
HETATM   35  C20 UNL     1      22.770 -16.826  25.915  1.00  0.00     0.241 A 
HETATM   36  O1  UNL     1      23.389 -16.947  27.018  1.00  0.00    -0.271 OA
HETATM   37  N6  UNL     1      22.380 -15.622  25.297  1.00  0.00    -0.297 N 
ATOM     38  H6  UNL     1      22.541 -14.687  25.673  1.00  0.00     0.172 HD
ENDBRANCH   5  31
TORSDOF 13
ENDMDL
