MODEL 1
REMARK VINA RESULT: -10.154879592      0.000      0.000
REMARK  5 active torsions:
REMARK  status: ('A' for Active; 'I' for Inactive)
REMARK    1  A    between atoms: N1_1  and  C1_4 
REMARK    2  A    between atoms: C2_7  and  N3_8 
REMARK    3  A    between atoms: N6_19  and  C6_20 
REMARK    4  A    between atoms: C6_20  and  C7_21 
REMARK    5  A    between atoms: C7_21  and  N7_22 
ROOT
HETATM    1  C1  UNL     1      59.284  17.899  25.543  1.00  0.00     0.679 A 
HETATM    2  N2  UNL     1      59.515  16.569  25.730  1.00  0.00    -0.175 N 
ATOM      3  H2  UNL     1      59.194  15.903  25.028  1.00  0.00     0.186 HD
HETATM    4  C2  UNL     1      60.160  16.118  26.820  1.00  0.00     0.145 A 
HETATM    5  C3  UNL     1      60.612  16.989  27.793  1.00  0.00     0.128 A 
HETATM    6  C4  UNL     1      60.373  18.356  27.600  1.00  0.00     0.156 A 
HETATM    7  N4  UNL     1      59.724  18.742  26.489  1.00  0.00    -0.174 N 
ATOM      8  H4  UNL     1      59.556  19.739  26.356  1.00  0.00     0.186 HD
HETATM    9  N5  UNL     1      60.905  18.960  28.667  1.00  0.00    -0.292 N 
ATOM     10  H5  UNL     1      60.889  19.970  28.813  1.00  0.00     0.172 HD
HETATM   11  C5  UNL     1      61.459  18.093  29.519  1.00  0.00     0.328 A 
HETATM   12  O1  UNL     1      62.041  18.342  30.615  1.00  0.00    -0.246 OA
HETATM   13  N6  UNL     1      61.267  16.864  28.957  1.00  0.00    -0.291 N 
ENDROOT
BRANCH  13  14
HETATM   14  C6  UNL     1      61.714  15.646  29.567  1.00  0.00     0.154 C 
BRANCH  14  15
HETATM   15  C7  UNL     1      61.338  15.532  31.017  1.00  0.00     0.146 C 
BRANCH  15  16
HETATM   16  N7  UNL     1      60.161  14.702  31.189  1.00  0.00    -0.351 N 
HETATM   17  C8  UNL     1      59.288  14.370  30.080  1.00  0.00     0.126 C 
HETATM   18  C9  UNL     1      57.878  14.273  30.649  1.00  0.00     0.020 C 
HETATM   19  C10 UNL     1      57.722  13.134  31.605  1.00  0.00     0.011 C 
HETATM   20  C11 UNL     1      58.878  13.017  32.573  1.00  0.00     0.103 C 
HETATM   21  C12 UNL     1      59.808  14.171  32.461  1.00  0.00     0.219 C 
HETATM   22  O2  UNL     1      60.298  14.699  33.492  1.00  0.00    -0.273 OA
ENDBRANCH  15  16
ENDBRANCH  14  15
ENDBRANCH  13  14
BRANCH   4  23
HETATM   23  N3  UNL     1      60.349  14.853  26.933  1.00  0.00    -0.383 N 
ATOM     24  H32 UNL     1      61.109  14.393  26.432  1.00  0.00     0.157 HD
ATOM     25  H31 UNL     1      59.718  14.323  27.535  1.00  0.00     0.157 HD
ENDBRANCH   4  23
BRANCH   1  26
HETATM   26  N1  UNL     1      58.662  18.340  24.491  1.00  0.00    -0.234 N 
ATOM     27  H12 UNL     1      57.661  18.536  24.516  1.00  0.00     0.174 HD
ATOM     28  H11 UNL     1      59.150  18.503  23.611  1.00  0.00     0.174 HD
ENDBRANCH   1  26
TORSDOF 5
ENDMDL
MODEL 2
REMARK VINA RESULT: -8.615771914      1.272      2.221
REMARK  5 active torsions:
REMARK  status: ('A' for Active; 'I' for Inactive)
REMARK    1  A    between atoms: N1_1  and  C1_4 
REMARK    2  A    between atoms: C2_7  and  N3_8 
REMARK    3  A    between atoms: N6_19  and  C6_20 
REMARK    4  A    between atoms: C6_20  and  C7_21 
REMARK    5  A    between atoms: C7_21  and  N7_22 
ROOT
HETATM    1  C1  UNL     1      59.203  17.893  25.424  1.00  0.00     0.679 A 
HETATM    2  N2  UNL     1      59.400  18.769  26.450  1.00  0.00    -0.175 N 
ATOM      3  H2  UNL     1      59.126  19.744  26.334  1.00  0.00     0.186 HD
HETATM    4  C2  UNL     1      59.949  18.373  27.612  1.00  0.00     0.145 A 
HETATM    5  C3  UNL     1      60.334  17.061  27.809  1.00  0.00     0.128 A 
HETATM    6  C4  UNL     1      60.131  16.162  26.754  1.00  0.00     0.156 A 
HETATM    7  N4  UNL     1      59.577  16.620  25.619  1.00  0.00    -0.174 N 
ATOM      8  H4  UNL     1      59.432  15.958  24.857  1.00  0.00     0.186 HD
HETATM    9  N5  UNL     1      60.580  14.986  27.203  1.00  0.00    -0.292 N 
ATOM     10  H5  UNL     1      60.565  14.126  26.654  1.00  0.00     0.172 HD
HETATM   11  C5  UNL     1      61.051  15.063  28.451  1.00  0.00     0.328 A 
HETATM   12  O1  UNL     1      61.543  14.136  29.157  1.00  0.00    -0.246 OA
HETATM   13  N6  UNL     1      60.890  16.369  28.815  1.00  0.00    -0.291 N 
ENDROOT
BRANCH  13  14
HETATM   14  C6  UNL     1      61.280  16.878  30.097  1.00  0.00     0.154 C 
BRANCH  14  15
HETATM   15  C7  UNL     1      60.146  16.956  31.078  1.00  0.00     0.146 C 
BRANCH  15  16
HETATM   16  N7  UNL     1      59.522  15.660  31.260  1.00  0.00    -0.351 N 
HETATM   17  C8  UNL     1      58.470  15.185  30.382  1.00  0.00     0.126 C 
HETATM   18  C9  UNL     1      57.537  14.337  31.238  1.00  0.00     0.020 C 
HETATM   19  C10 UNL     1      58.195  13.093  31.744  1.00  0.00     0.011 C 
HETATM   20  C11 UNL     1      59.594  13.338  32.263  1.00  0.00     0.103 C 
HETATM   21  C12 UNL     1      59.915  14.788  32.314  1.00  0.00     0.219 C 
HETATM   22  O2  UNL     1      60.542  15.269  33.292  1.00  0.00    -0.273 OA
ENDBRANCH  15  16
ENDBRANCH  14  15
ENDBRANCH  13  14
BRANCH   4  23
HETATM   23  N3  UNL     1      60.104  19.249  28.539  1.00  0.00    -0.383 N 
ATOM     24  H32 UNL     1      60.931  19.844  28.560  1.00  0.00     0.157 HD
ATOM     25  H31 UNL     1      59.378  19.329  29.252  1.00  0.00     0.157 HD
ENDBRANCH   4  23
BRANCH   1  26
HETATM   26  N1  UNL     1      58.673  18.271  24.300  1.00  0.00    -0.234 N 
ATOM     27  H12 UNL     1      59.095  18.014  23.408  1.00  0.00     0.174 HD
ATOM     28  H11 UNL     1      57.823  18.833  24.273  1.00  0.00     0.174 HD
ENDBRANCH   1  26
TORSDOF 5
ENDMDL
MODEL 3
REMARK VINA RESULT: -8.092536412      1.899      5.921
REMARK  5 active torsions:
REMARK  status: ('A' for Active; 'I' for Inactive)
REMARK    1  A    between atoms: N1_1  and  C1_4 
REMARK    2  A    between atoms: C2_7  and  N3_8 
REMARK    3  A    between atoms: N6_19  and  C6_20 
REMARK    4  A    between atoms: C6_20  and  C7_21 
REMARK    5  A    between atoms: C7_21  and  N7_22 
ROOT
HETATM    1  C1  UNL     1      59.270  13.847  32.053  1.00  0.00     0.679 A 
HETATM    2  N2  UNL     1      59.054  14.057  30.724  1.00  0.00    -0.175 N 
ATOM      3  H2  UNL     1      58.360  13.491  30.236  1.00  0.00     0.186 HD
HETATM    4  C2  UNL     1      59.736  14.995  30.043  1.00  0.00     0.145 A 
HETATM    5  C3  UNL     1      60.684  15.782  30.668  1.00  0.00     0.128 A 
HETATM    6  C4  UNL     1      60.905  15.566  32.034  1.00  0.00     0.156 A 
HETATM    7  N4  UNL     1      60.191  14.614  32.657  1.00  0.00    -0.174 N 
ATOM      8  H4  UNL     1      60.359  14.464  33.652  1.00  0.00     0.186 HD
HETATM    9  N5  UNL     1      61.851  16.445  32.381  1.00  0.00    -0.292 N 
ATOM     10  H5  UNL     1      62.227  16.531  33.325  1.00  0.00     0.172 HD
HETATM   11  C5  UNL     1      62.247  17.199  31.351  1.00  0.00     0.328 A 
HETATM   12  O1  UNL     1      63.118  18.116  31.346  1.00  0.00    -0.246 OA
HETATM   13  N6  UNL     1      61.506  16.771  30.286  1.00  0.00    -0.291 N 
ENDROOT
BRANCH  13  14
HETATM   14  C6  UNL     1      61.633  17.326  28.971  1.00  0.00     0.154 C 
BRANCH  14  15
HETATM   15  C7  UNL     1      60.893  18.621  28.797  1.00  0.00     0.146 C 
BRANCH  15  16
HETATM   16  N7  UNL     1      60.105  18.615  27.580  1.00  0.00    -0.351 N 
HETATM   17  C8  UNL     1      59.690  17.380  26.941  1.00  0.00     0.126 C 
HETATM   18  C9  UNL     1      59.673  17.650  25.442  1.00  0.00     0.020 C 
HETATM   19  C10 UNL     1      58.628  18.645  25.050  1.00  0.00     0.011 C 
HETATM   20  C11 UNL     1      58.577  19.839  25.977  1.00  0.00     0.103 C 
HETATM   21  C12 UNL     1      59.698  19.826  26.953  1.00  0.00     0.219 C 
HETATM   22  O2  UNL     1      60.308  20.887  27.240  1.00  0.00    -0.273 OA
ENDBRANCH  15  16
ENDBRANCH  14  15
ENDBRANCH  13  14
BRANCH   4  23
HETATM   23  N3  UNL     1      59.480  15.143  28.793  1.00  0.00    -0.383 N 
ATOM     24  H32 UNL     1      58.866  15.891  28.472  1.00  0.00     0.157 HD
ATOM     25  H31 UNL     1      59.906  14.492  28.134  1.00  0.00     0.157 HD
ENDBRANCH   4  23
BRANCH   1  26
HETATM   26  N1  UNL     1      58.614  12.943  32.715  1.00  0.00    -0.234 N 
ATOM     27  H12 UNL     1      57.628  13.069  32.941  1.00  0.00     0.174 HD
ATOM     28  H11 UNL     1      59.060  12.081  33.028  1.00  0.00     0.174 HD
ENDBRANCH   1  26
TORSDOF 5
ENDMDL
MODEL 4
REMARK VINA RESULT: -7.880319144      1.067      1.487
REMARK  5 active torsions:
REMARK  status: ('A' for Active; 'I' for Inactive)
REMARK    1  A    between atoms: N1_1  and  C1_4 
REMARK    2  A    between atoms: C2_7  and  N3_8 
REMARK    3  A    between atoms: N6_19  and  C6_20 
REMARK    4  A    between atoms: C6_20  and  C7_21 
REMARK    5  A    between atoms: C7_21  and  N7_22 
ROOT
HETATM    1  C1  UNL     1      59.108  17.850  25.598  1.00  0.00     0.679 A 
HETATM    2  N2  UNL     1      59.538  16.561  25.699  1.00  0.00    -0.175 N 
ATOM      3  H2  UNL     1      59.265  15.886  24.984  1.00  0.00     0.186 HD
HETATM    4  C2  UNL     1      60.315  16.161  26.720  1.00  0.00     0.145 A 
HETATM    5  C3  UNL     1      60.707  17.045  27.708  1.00  0.00     0.128 A 
HETATM    6  C4  UNL     1      60.265  18.370  27.603  1.00  0.00     0.156 A 
HETATM    7  N4  UNL     1      59.491  18.706  26.557  1.00  0.00    -0.174 N 
ATOM      8  H4  UNL     1      59.174  19.673  26.489  1.00  0.00     0.186 HD
HETATM    9  N5  UNL     1      60.779  18.997  28.664  1.00  0.00    -0.292 N 
ATOM     10  H5  UNL     1      60.631  19.987  28.866  1.00  0.00     0.172 HD
HETATM   11  C5  UNL     1      61.510  18.183  29.433  1.00  0.00     0.328 A 
HETATM   12  O1  UNL     1      62.126  18.466  30.501  1.00  0.00    -0.246 OA
HETATM   13  N6  UNL     1      61.454  16.965  28.820  1.00  0.00    -0.291 N 
ENDROOT
BRANCH  13  14
HETATM   14  C6  UNL     1      62.110  15.799  29.334  1.00  0.00     0.154 C 
BRANCH  14  15
HETATM   15  C7  UNL     1      62.035  15.684  30.829  1.00  0.00     0.146 C 
BRANCH  15  16
HETATM   16  N7  UNL     1      60.783  15.081  31.246  1.00  0.00    -0.351 N 
HETATM   17  C8  UNL     1      60.254  15.258  32.584  1.00  0.00     0.126 C 
HETATM   18  C9  UNL     1      59.526  13.967  32.940  1.00  0.00     0.020 C 
HETATM   19  C10 UNL     1      58.320  13.735  32.086  1.00  0.00     0.011 C 
HETATM   20  C11 UNL     1      58.574  14.017  30.622  1.00  0.00     0.103 C 
HETATM   21  C12 UNL     1      60.011  14.284  30.354  1.00  0.00     0.219 C 
HETATM   22  O2  UNL     1      60.570  13.808  29.334  1.00  0.00    -0.273 OA
ENDBRANCH  15  16
ENDBRANCH  14  15
ENDBRANCH  13  14
BRANCH   4  23
HETATM   23  N3  UNL     1      60.689  14.932  26.753  1.00  0.00    -0.383 N 
ATOM     24  H32 UNL     1      61.536  14.632  26.271  1.00  0.00     0.157 HD
ATOM     25  H31 UNL     1      60.114  14.268  27.273  1.00  0.00     0.157 HD
ENDBRANCH   4  23
BRANCH   1  26
HETATM   26  N1  UNL     1      58.357  18.242  24.612  1.00  0.00    -0.234 N 
ATOM     27  H12 UNL     1      57.379  17.961  24.554  1.00  0.00     0.174 HD
ATOM     28  H11 UNL     1      58.720  18.840  23.870  1.00  0.00     0.174 HD
ENDBRANCH   1  26
TORSDOF 5
ENDMDL
MODEL 5
REMARK VINA RESULT: -7.876896493      1.997      5.952
REMARK  5 active torsions:
REMARK  status: ('A' for Active; 'I' for Inactive)
REMARK    1  A    between atoms: N1_1  and  C1_4 
REMARK    2  A    between atoms: C2_7  and  N3_8 
REMARK    3  A    between atoms: N6_19  and  C6_20 
REMARK    4  A    between atoms: C6_20  and  C7_21 
REMARK    5  A    between atoms: C7_21  and  N7_22 
ROOT
HETATM    1  C1  UNL     1      58.978  13.317  32.201  1.00  0.00     0.679 A 
HETATM    2  N2  UNL     1      58.548  13.944  31.070  1.00  0.00    -0.175 N 
ATOM      3  H2  UNL     1      57.798  13.524  30.521  1.00  0.00     0.186 HD
HETATM    4  C2  UNL     1      59.092  15.105  30.665  1.00  0.00     0.145 A 
HETATM    5  C3  UNL     1      60.109  15.706  31.382  1.00  0.00     0.128 A 
HETATM    6  C4  UNL     1      60.550  15.060  32.544  1.00  0.00     0.156 A 
HETATM    7  N4  UNL     1      59.965  13.902  32.895  1.00  0.00    -0.174 N 
ATOM      8  H4  UNL     1      60.293  13.440  33.743  1.00  0.00     0.186 HD
HETATM    9  N5  UNL     1      61.518  15.840  33.034  1.00  0.00    -0.292 N 
ATOM     10  H5  UNL     1      62.038  15.631  33.887  1.00  0.00     0.172 HD
HETATM   11  C5  UNL     1      61.728  16.924  32.282  1.00  0.00     0.328 A 
HETATM   12  O1  UNL     1      62.566  17.853  32.470  1.00  0.00    -0.246 OA
HETATM   13  N6  UNL     1      60.837  16.825  31.252  1.00  0.00    -0.291 N 
ENDROOT
BRANCH  13  14
HETATM   14  C6  UNL     1      60.740  17.798  30.204  1.00  0.00     0.154 C 
BRANCH  14  15
HETATM   15  C7  UNL     1      61.239  17.299  28.878  1.00  0.00     0.146 C 
BRANCH  15  16
HETATM   16  N7  UNL     1      60.554  17.955  27.781  1.00  0.00    -0.351 N 
HETATM   17  C8  UNL     1      60.489  19.399  27.672  1.00  0.00     0.126 C 
HETATM   18  C9  UNL     1      59.146  19.728  27.032  1.00  0.00     0.020 C 
HETATM   19  C10 UNL     1      59.047  19.239  25.622  1.00  0.00     0.011 C 
HETATM   20  C11 UNL     1      59.581  17.835  25.449  1.00  0.00     0.103 C 
HETATM   21  C12 UNL     1      59.912  17.207  26.754  1.00  0.00     0.219 C 
HETATM   22  O2  UNL     1      59.628  16.002  26.974  1.00  0.00    -0.273 OA
ENDBRANCH  15  16
ENDBRANCH  14  15
ENDBRANCH  13  14
BRANCH   4  23
HETATM   23  N3  UNL     1      58.637  15.646  29.592  1.00  0.00    -0.383 N 
ATOM     24  H32 UNL     1      57.660  15.529  29.324  1.00  0.00     0.157 HD
ATOM     25  H31 UNL     1      59.280  16.191  29.018  1.00  0.00     0.157 HD
ENDBRANCH   4  23
BRANCH   1  26
HETATM   26  N1  UNL     1      58.456  12.195  32.597  1.00  0.00    -0.234 N 
ATOM     27  H12 UNL     1      58.754  11.755  33.467  1.00  0.00     0.174 HD
ATOM     28  H11 UNL     1      57.735  11.720  32.054  1.00  0.00     0.174 HD
ENDBRANCH   1  26
TORSDOF 5
ENDMDL
