MODEL 1
REMARK VINA RESULT: -8.486198998      0.000      0.000
REMARK  10 active torsions:
REMARK  status: ('A' for Active; 'I' for Inactive)
REMARK    1  A    between atoms: C3_3  and  C4_4 
REMARK    2  A    between atoms: C5_5  and  C6_6 
REMARK    3  A    between atoms: C8_8  and  O1_9 
REMARK    4  A    between atoms: C8_8  and  C9_11 
REMARK    5  A    between atoms: C9_11  and  O2_12 
REMARK    6  A    between atoms: C10_14  and  O3_15 
REMARK    7  A    between atoms: C12_18  and  O4_19 
REMARK    8  A    between atoms: O4_19  and  C13_20 
REMARK    9  A    between atoms: C13_20  and  C14_22 
REMARK   10  A    between atoms: C14_22  and  O6_23 
ROOT
HETATM    1  C6  UNL     1      60.587  17.162  29.777  1.00  0.00     0.056 C 
HETATM    2  C7  UNL     1      60.598  15.748  29.245  1.00  0.00     0.068 C 
HETATM    3  C8  UNL     1      60.263  14.851  30.421  1.00  0.00     0.111 C 
HETATM    4  C10 UNL     1      60.171  15.834  31.558  1.00  0.00     0.095 C 
HETATM    5  C11 UNL     1      61.548  16.424  31.784  1.00  0.00     0.075 C 
HETATM    6  C12 UNL     1      61.787  17.393  30.624  1.00  0.00     0.155 C 
HETATM    7  C15 UNL     1      59.505  17.008  30.860  1.00  0.00     0.066 C 
ENDROOT
BRANCH   6   8
HETATM    8  O4  UNL     1      63.000  17.134  29.982  1.00  0.00    -0.312 OA
BRANCH   8   9
HETATM    9  C13 UNL     1      64.182  17.414  30.639  1.00  0.00     0.282 C 
HETATM   10  O5  UNL     1      64.644  18.583  30.601  1.00  0.00    -0.263 OA
BRANCH   9  11
HETATM   11  C14 UNL     1      64.940  16.385  31.395  1.00  0.00     0.275 C 
BRANCH  11  12
HETATM   12  O6  UNL     1      65.077  15.221  30.644  1.00  0.00    -0.391 OA
ATOM     13  H6  UNL     1      64.797  14.463  31.142  1.00  0.00     0.210 HD
ENDBRANCH  11  12
ENDBRANCH   9  11
ENDBRANCH   8   9
ENDBRANCH   6   8
BRANCH   1  14
HETATM   14  C5  UNL     1      60.285  18.164  28.816  1.00  0.00    -0.089 C 
HETATM   15  C4  UNL     1      60.043  19.003  27.990  1.00  0.00    -0.078 C 
BRANCH  15  16
HETATM   16  C3  UNL     1      59.727  20.025  27.000  1.00  0.00     0.060 C 
HETATM   17  C2  UNL     1      59.230  19.680  25.839  1.00  0.00    -0.022 C 
HETATM   18  C1  UNL     1      58.989  18.262  25.531  1.00  0.00     0.036 C 
ENDBRANCH  15  16
ENDBRANCH   1  14
BRANCH   4  19
HETATM   19  O3  UNL     1      59.542  15.399  32.666  1.00  0.00    -0.387 OA
ATOM     20  H3  UNL     1      59.291  16.068  33.293  1.00  0.00     0.210 HD
ENDBRANCH   4  19
BRANCH   3  21
HETATM   21  O1  UNL     1      61.261  13.904  30.643  1.00  0.00    -0.384 OA
ATOM     22  H1  UNL     1      62.008  14.283  31.092  1.00  0.00     0.210 HD
ENDBRANCH   3  21
BRANCH   3  23
HETATM   23  C9  UNL     1      58.947  14.184  30.124  1.00  0.00     0.205 C 
BRANCH  23  24
HETATM   24  O2  UNL     1      58.591  13.289  31.122  1.00  0.00    -0.398 OA
ATOM     25  H2  UNL     1      58.049  12.585  30.784  1.00  0.00     0.209 HD
ENDBRANCH  23  24
ENDBRANCH   3  23
TORSDOF 10
ENDMDL
MODEL 2
REMARK VINA RESULT: -8.091807298      2.320      5.475
REMARK  10 active torsions:
REMARK  status: ('A' for Active; 'I' for Inactive)
REMARK    1  A    between atoms: C3_3  and  C4_4 
REMARK    2  A    between atoms: C5_5  and  C6_6 
REMARK    3  A    between atoms: C8_8  and  O1_9 
REMARK    4  A    between atoms: C8_8  and  C9_11 
REMARK    5  A    between atoms: C9_11  and  O2_12 
REMARK    6  A    between atoms: C10_14  and  O3_15 
REMARK    7  A    between atoms: C12_18  and  O4_19 
REMARK    8  A    between atoms: O4_19  and  C13_20 
REMARK    9  A    between atoms: C13_20  and  C14_22 
REMARK   10  A    between atoms: C14_22  and  O6_23 
ROOT
HETATM    1  C6  UNL     1      61.686  15.730  30.707  1.00  0.00     0.056 C 
HETATM    2  C7  UNL     1      63.150  15.359  30.695  1.00  0.00     0.068 C 
HETATM    3  C8  UNL     1      63.908  16.616  31.078  1.00  0.00     0.111 C 
HETATM    4  C10 UNL     1      62.802  17.633  31.197  1.00  0.00     0.095 C 
HETATM    5  C11 UNL     1      62.202  17.837  29.820  1.00  0.00     0.075 C 
HETATM    6  C12 UNL     1      61.371  16.585  29.532  1.00  0.00     0.155 C 
HETATM    7  C15 UNL     1      61.708  16.786  31.826  1.00  0.00     0.066 C 
ENDROOT
BRANCH   6   8
HETATM    8  O4  UNL     1      61.710  16.017  28.302  1.00  0.00    -0.312 OA
BRANCH   8   9
HETATM    9  C13 UNL     1      60.756  15.952  27.306  1.00  0.00     0.282 C 
HETATM   10  O5  UNL     1      60.343  14.828  26.925  1.00  0.00    -0.263 OA
BRANCH   9  11
HETATM   11  C14 UNL     1      60.192  17.163  26.658  1.00  0.00     0.275 C 
BRANCH  11  12
HETATM   12  O6  UNL     1      59.509  16.826  25.493  1.00  0.00    -0.391 OA
ATOM     13  H6  UNL     1      58.698  17.316  25.424  1.00  0.00     0.210 HD
ENDBRANCH  11  12
ENDBRANCH   9  11
ENDBRANCH   8   9
ENDBRANCH   6   8
BRANCH   1  14
HETATM   14  C5  UNL     1      60.795  14.654  30.966  1.00  0.00    -0.089 C 
HETATM   15  C4  UNL     1      60.042  13.748  31.207  1.00  0.00    -0.078 C 
BRANCH  15  16
HETATM   16  C3  UNL     1      59.122  12.650  31.474  1.00  0.00     0.060 C 
HETATM   17  C2  UNL     1      57.833  12.826  31.324  1.00  0.00    -0.022 C 
HETATM   18  C1  UNL     1      57.312  14.129  30.885  1.00  0.00     0.036 C 
ENDBRANCH  15  16
ENDBRANCH   1  14
BRANCH   4  19
HETATM   19  O3  UNL     1      63.106  18.761  31.866  1.00  0.00    -0.387 OA
ATOM     20  H3  UNL     1      62.606  19.533  31.629  1.00  0.00     0.210 HD
ENDBRANCH   4  19
BRANCH   3  21
HETATM   21  O1  UNL     1      64.831  16.976  30.099  1.00  0.00    -0.384 OA
ATOM     22  H1  UNL     1      64.523  16.751  29.229  1.00  0.00     0.210 HD
ENDBRANCH   3  21
BRANCH   3  23
HETATM   23  C9  UNL     1      64.593  16.352  32.392  1.00  0.00     0.205 C 
BRANCH  23  24
HETATM   24  O2  UNL     1      65.038  15.041  32.483  1.00  0.00    -0.398 OA
ATOM     25  H2  UNL     1      65.944  14.959  32.212  1.00  0.00     0.209 HD
ENDBRANCH  23  24
ENDBRANCH   3  23
TORSDOF 10
ENDMDL
MODEL 3
REMARK VINA RESULT: -7.865428009      1.394      4.224
REMARK  10 active torsions:
REMARK  status: ('A' for Active; 'I' for Inactive)
REMARK    1  A    between atoms: C3_3  and  C4_4 
REMARK    2  A    between atoms: C5_5  and  C6_6 
REMARK    3  A    between atoms: C8_8  and  O1_9 
REMARK    4  A    between atoms: C8_8  and  C9_11 
REMARK    5  A    between atoms: C9_11  and  O2_12 
REMARK    6  A    between atoms: C10_14  and  O3_15 
REMARK    7  A    between atoms: C12_18  and  O4_19 
REMARK    8  A    between atoms: O4_19  and  C13_20 
REMARK    9  A    between atoms: C13_20  and  C14_22 
REMARK   10  A    between atoms: C14_22  and  O6_23 
ROOT
HETATM    1  C6  UNL     1      60.941  17.078  29.647  1.00  0.00     0.056 C 
HETATM    2  C7  UNL     1      61.138  17.485  31.089  1.00  0.00     0.068 C 
HETATM    3  C8  UNL     1      62.175  16.536  31.659  1.00  0.00     0.111 C 
HETATM    4  C10 UNL     1      62.424  15.602  30.503  1.00  0.00     0.095 C 
HETATM    5  C11 UNL     1      61.151  14.821  30.246  1.00  0.00     0.075 C 
HETATM    6  C12 UNL     1      60.182  15.801  29.581  1.00  0.00     0.155 C 
HETATM    7  C15 UNL     1      62.362  16.576  29.338  1.00  0.00     0.066 C 
ENDROOT
BRANCH   6   8
HETATM    8  O4  UNL     1      58.952  15.830  30.241  1.00  0.00    -0.312 OA
BRANCH   8   9
HETATM    9  C13 UNL     1      58.619  14.794  31.089  1.00  0.00     0.282 C 
HETATM   10  O5  UNL     1      59.109  14.764  32.246  1.00  0.00    -0.263 OA
BRANCH   9  11
HETATM   11  C14 UNL     1      57.697  13.699  30.691  1.00  0.00     0.275 C 
BRANCH  11  12
HETATM   12  O6  UNL     1      57.984  12.532  31.394  1.00  0.00    -0.391 OA
ATOM     13  H6  UNL     1      58.438  12.730  32.204  1.00  0.00     0.210 HD
ENDBRANCH  11  12
ENDBRANCH   9  11
ENDBRANCH   8   9
ENDBRANCH   6   8
BRANCH   1  14
HETATM   14  C5  UNL     1      60.510  18.118  28.781  1.00  0.00    -0.089 C 
HETATM   15  C4  UNL     1      60.142  18.984  28.033  1.00  0.00    -0.078 C 
BRANCH  15  16
HETATM   16  C3  UNL     1      59.692  20.049  27.147  1.00  0.00     0.060 C 
HETATM   17  C2  UNL     1      59.182  19.756  25.977  1.00  0.00    -0.022 C 
HETATM   18  C1  UNL     1      59.063  18.352  25.556  1.00  0.00     0.036 C 
ENDBRANCH  15  16
ENDBRANCH   1  14
BRANCH   4  19
HETATM   19  O3  UNL     1      63.549  14.865  30.571  1.00  0.00    -0.387 OA
ATOM     20  H3  UNL     1      64.008  14.729  29.750  1.00  0.00     0.210 HD
ENDBRANCH   4  19
BRANCH   3  21
HETATM   21  O1  UNL     1      61.687  15.854  32.772  1.00  0.00    -0.384 OA
ATOM     22  H1  UNL     1      60.814  16.146  33.006  1.00  0.00     0.210 HD
ENDBRANCH   3  21
BRANCH   3  23
HETATM   23  C9  UNL     1      63.388  17.350  32.017  1.00  0.00     0.205 C 
BRANCH  23  24
HETATM   24  O2  UNL     1      64.412  16.554  32.510  1.00  0.00    -0.398 OA
ATOM     25  H2  UNL     1      64.755  16.892  33.329  1.00  0.00     0.209 HD
ENDBRANCH  23  24
ENDBRANCH   3  23
TORSDOF 10
ENDMDL
MODEL 4
REMARK VINA RESULT: -7.688383124      2.187      5.237
REMARK  10 active torsions:
REMARK  status: ('A' for Active; 'I' for Inactive)
REMARK    1  A    between atoms: C3_3  and  C4_4 
REMARK    2  A    between atoms: C5_5  and  C6_6 
REMARK    3  A    between atoms: C8_8  and  O1_9 
REMARK    4  A    between atoms: C8_8  and  C9_11 
REMARK    5  A    between atoms: C9_11  and  O2_12 
REMARK    6  A    between atoms: C10_14  and  O3_15 
REMARK    7  A    between atoms: C12_18  and  O4_19 
REMARK    8  A    between atoms: O4_19  and  C13_20 
REMARK    9  A    between atoms: C13_20  and  C14_22 
REMARK   10  A    between atoms: C14_22  and  O6_23 
ROOT
HETATM    1  C6  UNL     1      60.161  16.166  29.581  1.00  0.00     0.056 C 
HETATM    2  C7  UNL     1      59.559  17.528  29.326  1.00  0.00     0.068 C 
HETATM    3  C8  UNL     1      60.413  18.174  28.252  1.00  0.00     0.111 C 
HETATM    4  C10 UNL     1      61.494  17.146  28.041  1.00  0.00     0.095 C 
HETATM    5  C11 UNL     1      62.313  17.056  29.313  1.00  0.00     0.075 C 
HETATM    6  C12 UNL     1      61.440  16.308  30.324  1.00  0.00     0.155 C 
HETATM    7  C15 UNL     1      60.689  15.863  28.167  1.00  0.00     0.066 C 
ENDROOT
BRANCH   6   8
HETATM    8  O4  UNL     1      61.330  17.013  31.524  1.00  0.00    -0.312 OA
BRANCH   8   9
HETATM    9  C13 UNL     1      62.006  16.556  32.637  1.00  0.00     0.282 C 
HETATM   10  O5  UNL     1      63.238  16.317  32.553  1.00  0.00    -0.263 OA
BRANCH   9  11
HETATM   11  C14 UNL     1      61.337  16.329  33.943  1.00  0.00     0.275 C 
BRANCH  11  12
HETATM   12  O6  UNL     1      60.497  15.220  33.882  1.00  0.00    -0.391 OA
ATOM     13  H6  UNL     1      60.611  14.757  33.060  1.00  0.00     0.210 HD
ENDBRANCH  11  12
ENDBRANCH   9  11
ENDBRANCH   8   9
ENDBRANCH   6   8
BRANCH   1  14
HETATM   14  C5  UNL     1      59.251  15.187  30.063  1.00  0.00    -0.089 C 
HETATM   15  C4  UNL     1      58.472  14.374  30.483  1.00  0.00    -0.078 C 
BRANCH  15  16
HETATM   16  C3  UNL     1      57.533  13.372  30.972  1.00  0.00     0.060 C 
HETATM   17  C2  UNL     1      57.913  12.503  31.875  1.00  0.00    -0.022 C 
HETATM   18  C1  UNL     1      59.288  12.535  32.396  1.00  0.00     0.036 C 
ENDBRANCH  15  16
ENDBRANCH   1  14
BRANCH   4  19
HETATM   19  O3  UNL     1      62.206  17.262  26.905  1.00  0.00    -0.387 OA
ATOM     20  H3  UNL     1      63.135  17.079  26.975  1.00  0.00     0.210 HD
ENDBRANCH   4  19
BRANCH   3  21
HETATM   21  O1  UNL     1      60.941  19.390  28.681  1.00  0.00    -0.384 OA
ATOM     22  H1  UNL     1      61.874  19.445  28.512  1.00  0.00     0.210 HD
ENDBRANCH   3  21
BRANCH   3  23
HETATM   23  C9  UNL     1      59.548  18.362  27.036  1.00  0.00     0.205 C 
BRANCH  23  24
HETATM   24  O2  UNL     1      60.132  19.227  26.121  1.00  0.00    -0.398 OA
ATOM     25  H2  UNL     1      60.895  18.839  25.710  1.00  0.00     0.209 HD
ENDBRANCH  23  24
ENDBRANCH   3  23
TORSDOF 10
ENDMDL
MODEL 5
REMARK VINA RESULT: -7.605497705      2.320      5.388
REMARK  10 active torsions:
REMARK  status: ('A' for Active; 'I' for Inactive)
REMARK    1  A    between atoms: C3_3  and  C4_4 
REMARK    2  A    between atoms: C5_5  and  C6_6 
REMARK    3  A    between atoms: C8_8  and  O1_9 
REMARK    4  A    between atoms: C8_8  and  C9_11 
REMARK    5  A    between atoms: C9_11  and  O2_12 
REMARK    6  A    between atoms: C10_14  and  O3_15 
REMARK    7  A    between atoms: C12_18  and  O4_19 
REMARK    8  A    between atoms: O4_19  and  C13_20 
REMARK    9  A    between atoms: C13_20  and  C14_22 
REMARK   10  A    between atoms: C14_22  and  O6_23 
ROOT
HETATM    1  C6  UNL     1      61.683  15.922  30.945  1.00  0.00     0.056 C 
HETATM    2  C7  UNL     1      63.092  15.481  30.622  1.00  0.00     0.068 C 
HETATM    3  C8  UNL     1      63.996  16.635  31.010  1.00  0.00     0.111 C 
HETATM    4  C10 UNL     1      63.007  17.683  31.449  1.00  0.00     0.095 C 
HETATM    5  C11 UNL     1      62.193  18.099  30.240  1.00  0.00     0.075 C 
HETATM    6  C12 UNL     1      61.233  16.940  29.960  1.00  0.00     0.155 C 
HETATM    7  C15 UNL     1      61.979  16.819  32.160  1.00  0.00     0.066 C 
ENDROOT
BRANCH   6   8
HETATM    8  O4  UNL     1      61.309  16.524  28.629  1.00  0.00    -0.312 OA
BRANCH   8   9
HETATM    9  C13 UNL     1      60.436  17.061  27.705  1.00  0.00     0.282 C 
HETATM   10  O5  UNL     1      59.966  18.211  27.899  1.00  0.00    -0.263 OA
BRANCH   9  11
HETATM   11  C14 UNL     1      60.021  16.333  26.479  1.00  0.00     0.275 C 
BRANCH  11  12
HETATM   12  O6  UNL     1      60.567  15.052  26.457  1.00  0.00    -0.391 OA
ATOM     13  H6  UNL     1      61.488  15.075  26.685  1.00  0.00     0.210 HD
ENDBRANCH  11  12
ENDBRANCH   9  11
ENDBRANCH   8   9
ENDBRANCH   6   8
BRANCH   1  14
HETATM   14  C5  UNL     1      60.773  14.869  31.231  1.00  0.00    -0.089 C 
HETATM   15  C4  UNL     1      60.015  13.965  31.461  1.00  0.00    -0.078 C 
BRANCH  15  16
HETATM   16  C3  UNL     1      59.088  12.882  31.760  1.00  0.00     0.060 C 
HETATM   17  C2  UNL     1      57.853  12.938  31.327  1.00  0.00    -0.022 C 
HETATM   18  C1  UNL     1      57.400  14.094  30.538  1.00  0.00     0.036 C 
ENDBRANCH  15  16
ENDBRANCH   1  14
BRANCH   4  19
HETATM   19  O3  UNL     1      63.506  18.696  32.183  1.00  0.00    -0.387 OA
ATOM     20  H3  UNL     1      64.195  19.207  31.774  1.00  0.00     0.210 HD
ENDBRANCH   4  19
BRANCH   3  21
HETATM   21  O1  UNL     1      64.759  17.073  29.929  1.00  0.00    -0.384 OA
ATOM     22  H1  UNL     1      65.158  17.917  30.103  1.00  0.00     0.210 HD
ENDBRANCH   3  21
BRANCH   3  23
HETATM   23  C9  UNL     1      64.878  16.165  32.134  1.00  0.00     0.205 C 
BRANCH  23  24
HETATM   24  O2  UNL     1      66.219  16.195  31.781  1.00  0.00    -0.398 OA
ATOM     25  H2  UNL     1      66.671  15.405  32.052  1.00  0.00     0.209 HD
ENDBRANCH  23  24
ENDBRANCH   3  23
TORSDOF 10
ENDMDL
