MODEL 1
REMARK VINA RESULT: -9.120479766      0.000      0.000
REMARK  4 active torsions:
REMARK  status: ('A' for Active; 'I' for Inactive)
REMARK    1  A    between atoms: N1_1  and  C1_4 
REMARK    2  A    between atoms: C2_7  and  N3_8 
REMARK    3  A    between atoms: C10_20  and  C11_21 
REMARK    4  A    between atoms: C11_21  and  C12_22 
ROOT
HETATM    1  C1  UNL     1      64.151  16.576  31.107  1.00  0.00     0.680 A 
HETATM    2  N2  UNL     1      63.305  16.820  30.099  1.00  0.00    -0.176 N 
ATOM      3  H2  UNL     1      63.687  16.999  29.170  1.00  0.00     0.186 HD
HETATM    4  C2  UNL     1      61.952  16.840  30.265  1.00  0.00     0.136 A 
HETATM    5  C10 UNL     1      61.469  16.599  31.512  1.00  0.00     0.061 A 
HETATM    6  C13 UNL     1      62.360  16.345  32.557  1.00  0.00     0.270 A 
HETATM    7  O2  UNL     1      61.891  16.125  33.698  1.00  0.00    -0.267 OA
HETATM    8  N6  UNL     1      63.673  16.337  32.342  1.00  0.00    -0.156 N 
ATOM      9  H6  UNL     1      64.316  16.150  33.111  1.00  0.00     0.187 HD
ENDROOT
BRANCH   4  10
HETATM   10  N3  UNL     1      61.171  17.143  29.119  1.00  0.00    -0.328 N 
HETATM   11  C3  UNL     1      60.545  16.138  28.297  1.00  0.00     0.133 C 
HETATM   12  C4  UNL     1      60.810  16.311  26.813  1.00  0.00     0.039 C 
HETATM   13  C5  UNL     1      59.541  16.679  26.061  1.00  0.00     0.115 C 
HETATM   14  N4  UNL     1      59.776  17.987  25.502  1.00  0.00    -0.421 N 
HETATM   15  C6  UNL     1      58.655  18.872  25.529  1.00  0.00     0.115 C 
ATOM     16  H4  UNL     1      60.679  18.261  25.114  1.00  0.00     0.153 HD
HETATM   17  C7  UNL     1      58.932  20.153  26.278  1.00  0.00     0.039 C 
HETATM   18  C8  UNL     1      60.090  20.016  27.247  1.00  0.00     0.122 C 
HETATM   19  N5  UNL     1      59.846  18.986  28.241  1.00  0.00    -0.386 N 
HETATM   20  C9  UNL     1      61.079  18.563  28.815  1.00  0.00     0.180 C 
ATOM     21  H5  UNL     1      58.928  18.619  28.491  1.00  0.00     0.160 HD
ENDBRANCH   4  10
BRANCH   5  22
HETATM   22  C11 UNL     1      60.007  16.550  31.778  1.00  0.00     0.117 C 
BRANCH  22  23
HETATM   23  C12 UNL     1      59.456  15.184  31.611  1.00  0.00     0.236 C 
HETATM   24  O1  UNL     1      58.417  15.005  31.049  1.00  0.00    -0.307 OA
ENDBRANCH  22  23
ENDBRANCH   5  22
BRANCH   1  25
HETATM   25  N1  UNL     1      65.422  16.562  30.932  1.00  0.00    -0.234 N 
ATOM     26  H12 UNL     1      65.824  15.820  30.358  1.00  0.00     0.174 HD
ATOM     27  H11 UNL     1      66.029  17.268  31.349  1.00  0.00     0.174 HD
ENDBRANCH   1  25
TORSDOF 4
ENDMDL
MODEL 2
REMARK VINA RESULT: -7.531021978      2.060      3.009
REMARK  4 active torsions:
REMARK  status: ('A' for Active; 'I' for Inactive)
REMARK    1  A    between atoms: N1_1  and  C1_4 
REMARK    2  A    between atoms: C2_7  and  N3_8 
REMARK    3  A    between atoms: C10_20  and  C11_21 
REMARK    4  A    between atoms: C11_21  and  C12_22 
ROOT
HETATM    1  C1  UNL     1      59.830  14.545  32.457  1.00  0.00     0.680 A 
HETATM    2  N2  UNL     1      59.648  15.092  31.250  1.00  0.00    -0.176 N 
ATOM      3  H2  UNL     1      58.938  14.697  30.633  1.00  0.00     0.186 HD
HETATM    4  C2  UNL     1      60.376  16.158  30.811  1.00  0.00     0.136 A 
HETATM    5  C10 UNL     1      61.314  16.667  31.652  1.00  0.00     0.061 A 
HETATM    6  C13 UNL     1      61.496  16.088  32.910  1.00  0.00     0.270 A 
HETATM    7  O2  UNL     1      62.367  16.573  33.668  1.00  0.00    -0.267 OA
HETATM    8  N6  UNL     1      60.758  15.047  33.290  1.00  0.00    -0.156 N 
ATOM      9  H6  UNL     1      60.897  14.632  34.211  1.00  0.00     0.187 HD
ENDROOT
BRANCH   4  10
HETATM   10  N3  UNL     1      60.104  16.622  29.497  1.00  0.00    -0.328 N 
HETATM   11  C3  UNL     1      59.695  15.757  28.419  1.00  0.00     0.133 C 
HETATM   12  C4  UNL     1      60.496  15.948  27.145  1.00  0.00     0.039 C 
HETATM   13  C5  UNL     1      59.640  16.533  26.032  1.00  0.00     0.115 C 
HETATM   14  N4  UNL     1      60.223  17.812  25.714  1.00  0.00    -0.421 N 
HETATM   15  C6  UNL     1      59.290  18.855  25.427  1.00  0.00     0.115 C 
ATOM     16  H4  UNL     1      61.232  17.962  25.694  1.00  0.00     0.153 HD
HETATM   17  C7  UNL     1      59.437  20.047  26.341  1.00  0.00     0.039 C 
HETATM   18  C8  UNL     1      60.141  19.698  27.637  1.00  0.00     0.122 C 
HETATM   19  N5  UNL     1      59.429  18.677  28.383  1.00  0.00    -0.386 N 
HETATM   20  C9  UNL     1      60.308  18.051  29.311  1.00  0.00     0.180 C 
ATOM     21  H5  UNL     1      58.443  18.443  28.261  1.00  0.00     0.160 HD
ENDBRANCH   4  10
BRANCH   5  22
HETATM   22  C11 UNL     1      62.121  17.860  31.280  1.00  0.00     0.117 C 
BRANCH  22  23
HETATM   23  C12 UNL     1      63.451  17.485  30.744  1.00  0.00     0.236 C 
HETATM   24  O1  UNL     1      64.341  18.281  30.696  1.00  0.00    -0.307 OA
ENDBRANCH  22  23
ENDBRANCH   5  22
BRANCH   1  25
HETATM   25  N1  UNL     1      59.135  13.540  32.853  1.00  0.00    -0.234 N 
ATOM     26  H12 UNL     1      58.136  13.673  33.010  1.00  0.00     0.174 HD
ATOM     27  H11 UNL     1      59.557  12.626  33.010  1.00  0.00     0.174 HD
ENDBRANCH   1  25
TORSDOF 4
ENDMDL
MODEL 3
REMARK VINA RESULT: -6.658732499      1.522      1.747
REMARK  4 active torsions:
REMARK  status: ('A' for Active; 'I' for Inactive)
REMARK    1  A    between atoms: N1_1  and  C1_4 
REMARK    2  A    between atoms: C2_7  and  N3_8 
REMARK    3  A    between atoms: C10_20  and  C11_21 
REMARK    4  A    between atoms: C11_21  and  C12_22 
ROOT
HETATM    1  C1  UNL     1      61.979  16.952  32.581  1.00  0.00     0.680 A 
HETATM    2  N2  UNL     1      61.558  17.208  31.337  1.00  0.00    -0.176 N 
ATOM      3  H2  UNL     1      61.905  18.043  30.864  1.00  0.00     0.186 HD
HETATM    4  C2  UNL     1      60.682  16.398  30.677  1.00  0.00     0.136 A 
HETATM    5  C10 UNL     1      60.236  15.293  31.330  1.00  0.00     0.061 A 
HETATM    6  C13 UNL     1      60.681  15.035  32.628  1.00  0.00     0.270 A 
HETATM    7  O2  UNL     1      60.255  14.010  33.209  1.00  0.00    -0.267 OA
HETATM    8  N6  UNL     1      61.537  15.858  33.228  1.00  0.00    -0.156 N 
ATOM      9  H6  UNL     1      61.857  15.661  34.175  1.00  0.00     0.187 HD
ENDROOT
BRANCH   4  10
HETATM   10  N3  UNL     1      60.293  16.803  29.374  1.00  0.00    -0.328 N 
HETATM   11  C3  UNL     1      59.834  15.885  28.361  1.00  0.00     0.133 C 
HETATM   12  C4  UNL     1      60.527  16.056  27.022  1.00  0.00     0.039 C 
HETATM   13  C5  UNL     1      59.566  16.570  25.961  1.00  0.00     0.115 C 
HETATM   14  N4  UNL     1      60.076  17.856  25.554  1.00  0.00    -0.421 N 
HETATM   15  C6  UNL     1      59.085  18.854  25.306  1.00  0.00     0.115 C 
ATOM     16  H4  UNL     1      61.074  18.040  25.450  1.00  0.00     0.153 HD
HETATM   17  C7  UNL     1      59.258  20.084  26.163  1.00  0.00     0.039 C 
HETATM   18  C8  UNL     1      60.072  19.808  27.412  1.00  0.00     0.122 C 
HETATM   19  N5  UNL     1      59.458  18.791  28.246  1.00  0.00    -0.386 N 
HETATM   20  C9  UNL     1      60.429  18.230  29.123  1.00  0.00     0.180 C 
ATOM     21  H5  UNL     1      58.476  18.520  28.209  1.00  0.00     0.160 HD
ENDBRANCH   4  10
BRANCH   5  22
HETATM   22  C11 UNL     1      59.319  14.325  30.672  1.00  0.00     0.117 C 
BRANCH  22  23
HETATM   23  C12 UNL     1      57.901  14.572  31.028  1.00  0.00     0.236 C 
HETATM   24  O1  UNL     1      57.034  13.849  30.638  1.00  0.00    -0.307 OA
ENDBRANCH  22  23
ENDBRANCH   5  22
BRANCH   1  25
HETATM   25  N1  UNL     1      62.803  17.727  33.187  1.00  0.00    -0.234 N 
ATOM     26  H12 UNL     1      63.207  18.507  32.668  1.00  0.00     0.174 HD
ATOM     27  H11 UNL     1      63.058  17.580  34.163  1.00  0.00     0.174 HD
ENDBRANCH   1  25
TORSDOF 4
ENDMDL
MODEL 4
REMARK VINA RESULT: -6.504554958      1.492      1.597
REMARK  4 active torsions:
REMARK  status: ('A' for Active; 'I' for Inactive)
REMARK    1  A    between atoms: N1_1  and  C1_4 
REMARK    2  A    between atoms: C2_7  and  N3_8 
REMARK    3  A    between atoms: C10_20  and  C11_21 
REMARK    4  A    between atoms: C11_21  and  C12_22 
ROOT
HETATM    1  C1  UNL     1      63.252  16.162  30.271  1.00  0.00     0.680 A 
HETATM    2  N2  UNL     1      62.462  16.731  29.353  1.00  0.00    -0.176 N 
ATOM      3  H2  UNL     1      62.865  17.425  28.722  1.00  0.00     0.186 HD
HETATM    4  C2  UNL     1      61.141  16.422  29.228  1.00  0.00     0.136 A 
HETATM    5  C10 UNL     1      60.630  15.495  30.080  1.00  0.00     0.061 A 
HETATM    6  C13 UNL     1      61.462  14.906  31.034  1.00  0.00     0.270 A 
HETATM    7  O2  UNL     1      60.968  14.055  31.809  1.00  0.00    -0.267 OA
HETATM    8  N6  UNL     1      62.746  15.244  31.115  1.00  0.00    -0.156 N 
ATOM      9  H6  UNL     1      63.346  14.808  31.815  1.00  0.00     0.187 HD
ENDROOT
BRANCH   4  10
HETATM   10  N3  UNL     1      60.410  17.124  28.233  1.00  0.00    -0.328 N 
HETATM   11  C3  UNL     1      59.615  16.470  27.224  1.00  0.00     0.133 C 
HETATM   12  C4  UNL     1      59.890  16.963  25.816  1.00  0.00     0.039 C 
HETATM   13  C5  UNL     1      58.694  17.707  25.243  1.00  0.00     0.115 C 
HETATM   14  N4  UNL     1      59.141  19.057  25.009  1.00  0.00    -0.421 N 
HETATM   15  C6  UNL     1      58.187  20.077  25.310  1.00  0.00     0.115 C 
ATOM     16  H4  UNL     1      60.073  19.270  24.654  1.00  0.00     0.153 HD
HETATM   17  C7  UNL     1      58.684  21.067  26.334  1.00  0.00     0.039 C 
HETATM   18  C8  UNL     1      59.811  20.508  27.179  1.00  0.00     0.122 C 
HETATM   19  N5  UNL     1      59.407  19.316  27.902  1.00  0.00    -0.386 N 
HETATM   20  C9  UNL     1      60.557  18.570  28.290  1.00  0.00     0.180 C 
ATOM     21  H5  UNL     1      58.443  19.052  28.102  1.00  0.00     0.160 HD
ENDBRANCH   4  10
BRANCH   5  22
HETATM   22  C11 UNL     1      59.211  15.057  29.986  1.00  0.00     0.117 C 
BRANCH  22  23
HETATM   23  C12 UNL     1      58.331  15.826  30.898  1.00  0.00     0.236 C 
HETATM   24  O1  UNL     1      58.564  16.968  31.159  1.00  0.00    -0.307 OA
ENDBRANCH  22  23
ENDBRANCH   5  22
BRANCH   1  25
HETATM   25  N1  UNL     1      64.494  16.466  30.374  1.00  0.00    -0.234 N 
ATOM     26  H12 UNL     1      64.757  17.451  30.337  1.00  0.00     0.174 HD
ATOM     27  H11 UNL     1      65.213  15.752  30.491  1.00  0.00     0.174 HD
ENDBRANCH   1  25
TORSDOF 4
ENDMDL
MODEL 5
REMARK VINA RESULT: -6.452520163      2.072      6.202
REMARK  4 active torsions:
REMARK  status: ('A' for Active; 'I' for Inactive)
REMARK    1  A    between atoms: N1_1  and  C1_4 
REMARK    2  A    between atoms: C2_7  and  N3_8 
REMARK    3  A    between atoms: C10_20  and  C11_21 
REMARK    4  A    between atoms: C11_21  and  C12_22 
ROOT
HETATM    1  C1  UNL     1      59.806  20.059  26.891  1.00  0.00     0.680 A 
HETATM    2  N2  UNL     1      60.324  19.428  27.951  1.00  0.00    -0.176 N 
ATOM      3  H2  UNL     1      60.758  19.984  28.689  1.00  0.00     0.186 HD
HETATM    4  C2  UNL     1      60.295  18.072  28.084  1.00  0.00     0.136 A 
HETATM    5  C10 UNL     1      59.710  17.356  27.088  1.00  0.00     0.061 A 
HETATM    6  C13 UNL     1      59.173  18.024  25.985  1.00  0.00     0.270 A 
HETATM    7  O2  UNL     1      58.639  17.343  25.080  1.00  0.00    -0.267 OA
HETATM    8  N6  UNL     1      59.227  19.351  25.904  1.00  0.00    -0.156 N 
ATOM      9  H6  UNL     1      58.831  19.830  25.096  1.00  0.00     0.187 HD
ENDROOT
BRANCH   4  10
HETATM   10  N3  UNL     1      60.908  17.529  29.243  1.00  0.00    -0.328 N 
HETATM   11  C3  UNL     1      60.176  16.858  30.288  1.00  0.00     0.133 C 
HETATM   12  C4  UNL     1      60.504  17.358  31.682  1.00  0.00     0.039 C 
HETATM   13  C5  UNL     1      61.221  16.295  32.500  1.00  0.00     0.115 C 
HETATM   14  N4  UNL     1      62.523  16.837  32.801  1.00  0.00    -0.421 N 
HETATM   15  C6  UNL     1      63.600  15.900  32.752  1.00  0.00     0.115 C 
ATOM     16  H4  UNL     1      62.665  17.820  33.032  1.00  0.00     0.153 HD
HETATM   17  C7  UNL     1      64.678  16.290  31.771  1.00  0.00     0.039 C 
HETATM   18  C8  UNL     1      64.177  17.254  30.715  1.00  0.00     0.122 C 
HETATM   19  N5  UNL     1      63.084  16.692  29.943  1.00  0.00    -0.386 N 
HETATM   20  C9  UNL     1      62.347  17.735  29.313  1.00  0.00     0.180 C 
ATOM     21  H5  UNL     1      62.874  15.697  29.863  1.00  0.00     0.160 HD
ENDBRANCH   4  10
BRANCH   5  22
HETATM   22  C11 UNL     1      59.587  15.876  27.169  1.00  0.00     0.117 C 
BRANCH  22  23
HETATM   23  C12 UNL     1      60.890  15.198  26.970  1.00  0.00     0.236 C 
HETATM   24  O1  UNL     1      61.273  14.365  27.736  1.00  0.00    -0.307 OA
ENDBRANCH  22  23
ENDBRANCH   5  22
BRANCH   1  25
HETATM   25  N1  UNL     1      59.843  21.338  26.783  1.00  0.00    -0.234 N 
ATOM     26  H12 UNL     1      60.466  21.859  27.399  1.00  0.00     0.174 HD
ATOM     27  H11 UNL     1      59.269  21.835  26.102  1.00  0.00     0.174 HD
ENDBRANCH   1  25
TORSDOF 4
ENDMDL
