MODEL 1
REMARK VINA RESULT: -7.521857884      0.000      0.000
REMARK  7 active torsions:
REMARK  status: ('A' for Active; 'I' for Inactive)
REMARK    1  A    between atoms: O1_2  and  C2_3 
REMARK    2  A    between atoms: C3_5  and  N1_6 
REMARK    3  A    between atoms: N1_6  and  C4_8 
REMARK    4  A    between atoms: C4_8  and  N2_10 
REMARK    5  A    between atoms: N2_10  and  N3_12 
REMARK       I    between atoms: N3_12  and  C5_14 
REMARK       I    between atoms: C5_14  and  N4_16 
REMARK    6  A    between atoms: N4_16  and  C6_18 
REMARK    7  A    between atoms: C10_23  and  O4_24 
ROOT
HETATM    1  C6  UNL     1      60.103  17.788  26.661  1.00  0.00     0.189 C 
HETATM    2  C7  UNL     1      60.219  19.060  27.446  1.00  0.00     0.048 C 
HETATM    3  C8  UNL     1      59.315  18.040  25.446  1.00  0.00     0.084 C 
HETATM    4  N5  UNL     1      58.670  18.227  24.482  1.00  0.00    -0.195 NA
ENDROOT
BRANCH   1   5
HETATM    5  N4  UNL     1      59.469  16.772  27.484  1.00  0.00    -0.325 N 
HETATM    6  C5  UNL     1      60.180  16.122  28.548  1.00  0.00     0.335 C 
HETATM    7  N3  UNL     1      59.564  15.131  29.354  1.00  0.00    -0.249 N 
HETATM    8  O3  UNL     1      61.360  16.457  28.740  1.00  0.00    -0.246 OA
ATOM      9  H3  UNL     1      58.594  14.868  29.182  1.00  0.00     0.192 HD
ATOM     10  H4  UNL     1      58.499  16.516  27.302  1.00  0.00     0.165 HD
BRANCH   7  11
HETATM   11  N2  UNL     1      60.279  14.516  30.381  1.00  0.00    -0.272 N 
ATOM     12  H2  UNL     1      61.225  14.200  30.167  1.00  0.00     0.189 HD
BRANCH  11  13
HETATM   13  C4  UNL     1      59.801  14.293  31.697  1.00  0.00     0.188 C 
HETATM   14  S1  UNL     1      58.369  13.555  31.881  1.00  0.00    -0.039 SA
BRANCH  13  15
HETATM   15  N1  UNL     1      60.533  14.686  32.820  1.00  0.00    -0.339 N 
ATOM     16  H1  UNL     1      60.784  13.956  33.488  1.00  0.00     0.164 HD
BRANCH  15  17
HETATM   17  C3  UNL     1      60.966  16.025  33.119  1.00  0.00     0.228 C 
HETATM   18  O2  UNL     1      62.303  16.077  33.464  1.00  0.00    -0.334 OA
HETATM   19  C2  UNL     1      62.969  16.715  32.414  1.00  0.00     0.290 C 
HETATM   20  C10 UNL     1      61.992  17.782  31.970  1.00  0.00     0.177 C 
HETATM   21  C9  UNL     1      60.712  16.982  31.990  1.00  0.00     0.090 C 
BRANCH  19  22
HETATM   22  O1  UNL     1      63.034  15.761  31.392  1.00  0.00    -0.363 OA
HETATM   23  C1  UNL     1      64.349  15.543  30.990  1.00  0.00     0.204 C 
ENDBRANCH  19  22
BRANCH  20  24
HETATM   24  O4  UNL     1      62.289  18.270  30.706  1.00  0.00    -0.391 OA
ATOM     25  H4  UNL     1      62.097  19.196  30.625  1.00  0.00     0.210 HD
ENDBRANCH  20  24
ENDBRANCH  15  17
ENDBRANCH  13  15
ENDBRANCH  11  13
ENDBRANCH   7  11
ENDBRANCH   1   5
TORSDOF 7
ENDMDL
MODEL 2
REMARK VINA RESULT: -7.473712291      1.285      2.206
REMARK  7 active torsions:
REMARK  status: ('A' for Active; 'I' for Inactive)
REMARK    1  A    between atoms: O1_2  and  C2_3 
REMARK    2  A    between atoms: C3_5  and  N1_6 
REMARK    3  A    between atoms: N1_6  and  C4_8 
REMARK    4  A    between atoms: C4_8  and  N2_10 
REMARK    5  A    between atoms: N2_10  and  N3_12 
REMARK       I    between atoms: N3_12  and  C5_14 
REMARK       I    between atoms: C5_14  and  N4_16 
REMARK    6  A    between atoms: N4_16  and  C6_18 
REMARK    7  A    between atoms: C10_23  and  O4_24 
ROOT
HETATM    1  C6  UNL     1      60.172  19.075  26.898  1.00  0.00     0.189 C 
HETATM    2  C7  UNL     1      60.022  20.564  26.980  1.00  0.00     0.048 C 
HETATM    3  C8  UNL     1      59.340  18.565  25.799  1.00  0.00     0.084 C 
HETATM    4  N5  UNL     1      58.663  18.147  24.935  1.00  0.00    -0.195 NA
ENDROOT
BRANCH   1   5
HETATM    5  N4  UNL     1      59.772  18.482  28.164  1.00  0.00    -0.325 N 
HETATM    6  C5  UNL     1      59.844  17.065  28.381  1.00  0.00     0.335 C 
HETATM    7  N3  UNL     1      59.456  16.483  29.614  1.00  0.00    -0.249 N 
HETATM    8  O3  UNL     1      60.259  16.361  27.447  1.00  0.00    -0.246 OA
ATOM      9  H3  UNL     1      59.117  17.077  30.371  1.00  0.00     0.192 HD
ATOM     10  H4  UNL     1      59.433  19.086  28.913  1.00  0.00     0.165 HD
BRANCH   7  11
HETATM   11  N2  UNL     1      59.537  15.104  29.797  1.00  0.00    -0.272 N 
ATOM     12  H2  UNL     1      58.980  14.517  29.176  1.00  0.00     0.189 HD
BRANCH  11  13
HETATM   13  C4  UNL     1      60.328  14.448  30.774  1.00  0.00     0.188 C 
HETATM   14  S1  UNL     1      59.573  13.703  32.001  1.00  0.00    -0.039 SA
BRANCH  13  15
HETATM   15  N1  UNL     1      61.722  14.428  30.696  1.00  0.00    -0.339 N 
ATOM     16  H1  UNL     1      62.179  13.523  30.815  1.00  0.00     0.164 HD
BRANCH  15  17
HETATM   17  C3  UNL     1      62.571  15.566  30.464  1.00  0.00     0.228 C 
HETATM   18  O2  UNL     1      62.092  16.708  31.076  1.00  0.00    -0.334 OA
HETATM   19  C2  UNL     1      62.963  17.001  32.129  1.00  0.00     0.290 C 
HETATM   20  C10 UNL     1      64.324  16.639  31.576  1.00  0.00     0.177 C 
HETATM   21  C9  UNL     1      63.988  15.330  30.904  1.00  0.00     0.090 C 
BRANCH  19  22
HETATM   22  O1  UNL     1      62.657  16.065  33.124  1.00  0.00    -0.363 OA
HETATM   23  C1  UNL     1      61.487  16.409  33.796  1.00  0.00     0.204 C 
ENDBRANCH  19  22
BRANCH  20  24
HETATM   24  O4  UNL     1      65.273  16.490  32.577  1.00  0.00    -0.391 OA
ATOM     25  H4  UNL     1      65.401  15.580  32.817  1.00  0.00     0.210 HD
ENDBRANCH  20  24
ENDBRANCH  15  17
ENDBRANCH  13  15
ENDBRANCH  11  13
ENDBRANCH   7  11
ENDBRANCH   1   5
TORSDOF 7
ENDMDL
MODEL 3
REMARK VINA RESULT: -7.270371870      2.617      3.648
REMARK  7 active torsions:
REMARK  status: ('A' for Active; 'I' for Inactive)
REMARK    1  A    between atoms: O1_2  and  C2_3 
REMARK    2  A    between atoms: C3_5  and  N1_6 
REMARK    3  A    between atoms: N1_6  and  C4_8 
REMARK    4  A    between atoms: C4_8  and  N2_10 
REMARK    5  A    between atoms: N2_10  and  N3_12 
REMARK       I    between atoms: N3_12  and  C5_14 
REMARK       I    between atoms: C5_14  and  N4_16 
REMARK    6  A    between atoms: N4_16  and  C6_18 
REMARK    7  A    between atoms: C10_23  and  O4_24 
ROOT
HETATM    1  C6  UNL     1      59.768  19.550  26.456  1.00  0.00     0.189 C 
HETATM    2  C7  UNL     1      58.785  20.681  26.445  1.00  0.00     0.048 C 
HETATM    3  C8  UNL     1      59.179  18.390  25.771  1.00  0.00     0.084 C 
HETATM    4  N5  UNL     1      58.709  17.452  25.241  1.00  0.00    -0.195 NA
ENDROOT
BRANCH   1   5
HETATM    5  N4  UNL     1      60.103  19.219  27.831  1.00  0.00    -0.325 N 
HETATM    6  C5  UNL     1      61.052  18.187  28.141  1.00  0.00     0.335 C 
HETATM    7  N3  UNL     1      61.383  17.863  29.481  1.00  0.00    -0.249 N 
HETATM    8  O3  UNL     1      61.576  17.584  27.191  1.00  0.00    -0.246 OA
ATOM      9  H3  UNL     1      60.942  18.369  30.250  1.00  0.00     0.192 HD
ATOM     10  H4  UNL     1      59.655  19.731  28.591  1.00  0.00     0.165 HD
BRANCH   7  11
HETATM   11  N2  UNL     1      62.308  16.856  29.753  1.00  0.00    -0.272 N 
ATOM     12  H2  UNL     1      62.819  16.465  28.962  1.00  0.00     0.189 HD
BRANCH  11  13
HETATM   13  C4  UNL     1      62.597  16.330  31.037  1.00  0.00     0.188 C 
HETATM   14  S1  UNL     1      63.881  16.914  31.837  1.00  0.00    -0.039 SA
BRANCH  13  15
HETATM   15  N1  UNL     1      61.804  15.339  31.620  1.00  0.00    -0.339 N 
ATOM     16  H1  UNL     1      62.243  14.434  31.789  1.00  0.00     0.164 HD
BRANCH  15  17
HETATM   17  C3  UNL     1      60.424  15.479  32.003  1.00  0.00     0.228 C 
HETATM   18  O2  UNL     1      59.740  16.355  31.182  1.00  0.00    -0.334 OA
HETATM   19  C2  UNL     1      58.851  15.591  30.421  1.00  0.00     0.290 C 
HETATM   20  C10 UNL     1      58.380  14.527  31.389  1.00  0.00     0.177 C 
HETATM   21  C9  UNL     1      59.695  14.166  32.034  1.00  0.00     0.090 C 
BRANCH  19  22
HETATM   22  O1  UNL     1      59.648  14.955  29.462  1.00  0.00    -0.363 OA
HETATM   23  C1  UNL     1      59.250  15.295  28.172  1.00  0.00     0.204 C 
ENDBRANCH  19  22
BRANCH  20  24
HETATM   24  O4  UNL     1      57.797  13.449  30.739  1.00  0.00    -0.391 OA
ATOM     25  H4  UNL     1      58.154  13.320  29.868  1.00  0.00     0.210 HD
ENDBRANCH  20  24
ENDBRANCH  15  17
ENDBRANCH  13  15
ENDBRANCH  11  13
ENDBRANCH   7  11
ENDBRANCH   1   5
TORSDOF 7
ENDMDL
MODEL 4
REMARK VINA RESULT: -7.138865436      1.366      1.490
REMARK  7 active torsions:
REMARK  status: ('A' for Active; 'I' for Inactive)
REMARK    1  A    between atoms: O1_2  and  C2_3 
REMARK    2  A    between atoms: C3_5  and  N1_6 
REMARK    3  A    between atoms: N1_6  and  C4_8 
REMARK    4  A    between atoms: C4_8  and  N2_10 
REMARK    5  A    between atoms: N2_10  and  N3_12 
REMARK       I    between atoms: N3_12  and  C5_14 
REMARK       I    between atoms: C5_14  and  N4_16 
REMARK    6  A    between atoms: N4_16  and  C6_18 
REMARK    7  A    between atoms: C10_23  and  O4_24 
ROOT
HETATM    1  C6  UNL     1      60.110  18.937  26.933  1.00  0.00     0.189 C 
HETATM    2  C7  UNL     1      60.075  20.431  27.048  1.00  0.00     0.048 C 
HETATM    3  C8  UNL     1      59.367  18.526  25.734  1.00  0.00     0.084 C 
HETATM    4  N5  UNL     1      58.758  18.187  24.788  1.00  0.00    -0.195 NA
ENDROOT
BRANCH   1   5
HETATM    5  N4  UNL     1      59.524  18.351  28.128  1.00  0.00    -0.325 N 
HETATM    6  C5  UNL     1      59.796  16.993  28.504  1.00  0.00     0.335 C 
HETATM    7  N3  UNL     1      59.229  16.419  29.669  1.00  0.00    -0.249 N 
HETATM    8  O3  UNL     1      60.550  16.334  27.771  1.00  0.00    -0.246 OA
ATOM      9  H3  UNL     1      58.611  16.975  30.261  1.00  0.00     0.192 HD
ATOM     10  H4  UNL     1      58.908  18.917  28.710  1.00  0.00     0.165 HD
BRANCH   7  11
HETATM   11  N2  UNL     1      59.511  15.097  30.010  1.00  0.00    -0.272 N 
ATOM     12  H2  UNL     1      59.197  14.371  29.367  1.00  0.00     0.189 HD
BRANCH  11  13
HETATM   13  C4  UNL     1      60.198  14.677  31.177  1.00  0.00     0.188 C 
HETATM   14  S1  UNL     1      59.390  13.790  32.269  1.00  0.00    -0.039 SA
BRANCH  13  15
HETATM   15  N1  UNL     1      61.538  15.003  31.397  1.00  0.00    -0.339 N 
ATOM     16  H1  UNL     1      62.222  14.255  31.276  1.00  0.00     0.164 HD
BRANCH  15  17
HETATM   17  C3  UNL     1      62.042  16.296  31.777  1.00  0.00     0.228 C 
HETATM   18  O2  UNL     1      63.033  16.210  32.735  1.00  0.00    -0.334 OA
HETATM   19  C2  UNL     1      64.232  16.566  32.113  1.00  0.00     0.290 C 
HETATM   20  C10 UNL     1      63.826  17.676  31.168  1.00  0.00     0.177 C 
HETATM   21  C9  UNL     1      62.557  17.084  30.606  1.00  0.00     0.090 C 
BRANCH  19  22
HETATM   22  O1  UNL     1      64.577  15.460  31.328  1.00  0.00    -0.363 OA
HETATM   23  C1  UNL     1      65.866  15.021  31.616  1.00  0.00     0.204 C 
ENDBRANCH  19  22
BRANCH  20  24
HETATM   24  O4  UNL     1      64.780  17.905  30.188  1.00  0.00    -0.391 OA
ATOM     25  H4  UNL     1      65.661  17.723  30.494  1.00  0.00     0.210 HD
ENDBRANCH  20  24
ENDBRANCH  15  17
ENDBRANCH  13  15
ENDBRANCH  11  13
ENDBRANCH   7  11
ENDBRANCH   1   5
TORSDOF 7
ENDMDL
MODEL 5
REMARK VINA RESULT: -7.130596236      1.862      2.344
REMARK  7 active torsions:
REMARK  status: ('A' for Active; 'I' for Inactive)
REMARK    1  A    between atoms: O1_2  and  C2_3 
REMARK    2  A    between atoms: C3_5  and  N1_6 
REMARK    3  A    between atoms: N1_6  and  C4_8 
REMARK    4  A    between atoms: C4_8  and  N2_10 
REMARK    5  A    between atoms: N2_10  and  N3_12 
REMARK       I    between atoms: N3_12  and  C5_14 
REMARK       I    between atoms: C5_14  and  N4_16 
REMARK    6  A    between atoms: N4_16  and  C6_18 
REMARK    7  A    between atoms: C10_23  and  O4_24 
ROOT
HETATM    1  C6  UNL     1      59.486  19.769  26.052  1.00  0.00     0.189 C 
HETATM    2  C7  UNL     1      60.080  20.134  27.378  1.00  0.00     0.048 C 
HETATM    3  C8  UNL     1      58.289  20.588  25.815  1.00  0.00     0.084 C 
HETATM    4  N5  UNL     1      57.320  21.224  25.626  1.00  0.00    -0.195 NA
ENDROOT
BRANCH   1   5
HETATM    5  N4  UNL     1      59.151  18.354  26.049  1.00  0.00    -0.325 N 
HETATM    6  C5  UNL     1      59.898  17.408  26.827  1.00  0.00     0.335 C 
HETATM    7  N3  UNL     1      59.573  16.028  26.828  1.00  0.00    -0.249 N 
HETATM    8  O3  UNL     1      60.846  17.840  27.502  1.00  0.00    -0.246 OA
ATOM      9  H3  UNL     1      58.790  15.690  26.267  1.00  0.00     0.192 HD
ATOM     10  H4  UNL     1      58.367  18.028  25.483  1.00  0.00     0.165 HD
BRANCH   7  11
HETATM   11  N2  UNL     1      60.316  15.131  27.594  1.00  0.00    -0.272 N 
ATOM     12  H2  UNL     1      60.866  14.433  27.093  1.00  0.00     0.189 HD
BRANCH  11  13
HETATM   13  C4  UNL     1      60.372  15.107  29.010  1.00  0.00     0.188 C 
HETATM   14  S1  UNL     1      59.018  14.753  29.828  1.00  0.00    -0.039 SA
BRANCH  13  15
HETATM   15  N1  UNL     1      61.556  15.373  29.702  1.00  0.00    -0.339 N 
ATOM     16  H1  UNL     1      62.348  14.755  29.520  1.00  0.00     0.164 HD
BRANCH  15  17
HETATM   17  C3  UNL     1      61.761  16.438  30.648  1.00  0.00     0.228 C 
HETATM   18  O2  UNL     1      62.388  16.002  31.798  1.00  0.00    -0.334 OA
HETATM   19  C2  UNL     1      63.678  16.541  31.788  1.00  0.00     0.290 C 
HETATM   20  C10 UNL     1      63.481  17.921  31.199  1.00  0.00     0.177 C 
HETATM   21  C9  UNL     1      62.538  17.585  30.068  1.00  0.00     0.090 C 
BRANCH  19  22
HETATM   22  O1  UNL     1      64.381  15.784  30.844  1.00  0.00    -0.363 OA
HETATM   23  C1  UNL     1      65.510  15.198  31.409  1.00  0.00     0.204 C 
ENDBRANCH  19  22
BRANCH  20  24
HETATM   24  O4  UNL     1      64.670  18.472  30.747  1.00  0.00    -0.391 OA
ATOM     25  H4  UNL     1      65.412  18.209  31.278  1.00  0.00     0.210 HD
ENDBRANCH  20  24
ENDBRANCH  15  17
ENDBRANCH  13  15
ENDBRANCH  11  13
ENDBRANCH   7  11
ENDBRANCH   1   5
TORSDOF 7
ENDMDL
