MODEL 1
REMARK VINA RESULT: -6.459481822      0.000      0.000
REMARK  7 active torsions:
REMARK  status: ('A' for Active; 'I' for Inactive)
REMARK    1  A    between atoms: C2_2  and  N1_5 
REMARK    2  A    between atoms: N1_5  and  C5_8 
REMARK    3  A    between atoms: C5_8  and  C6_9 
REMARK    4  A    between atoms: C8_11  and  O1_12 
REMARK    5  A    between atoms: C9_14  and  O2_15 
REMARK    6  A    between atoms: C10_17  and  N2_18 
REMARK    7  A    between atoms: C14_22  and  O3_23 
ROOT
HETATM    1  C6  UNL     1      13.875  16.261  19.728  1.00  0.00     0.152 C 
HETATM    2  C7  UNL     1      15.384  16.170  19.843  1.00  0.00     0.068 C 
HETATM    3  C8  UNL     1      15.809  15.491  18.536  1.00  0.00     0.153 C 
HETATM    4  C9  UNL     1      15.176  16.146  17.349  1.00  0.00     0.196 C 
HETATM    5  C10 UNL     1      14.227  17.236  17.636  1.00  0.00     0.261 C 
HETATM    6  O4  UNL     1      13.604  17.254  18.836  1.00  0.00    -0.356 OA
ENDROOT
BRANCH   1   7
HETATM    7  C5  UNL     1      13.242  16.606  21.063  1.00  0.00     0.265 C 
BRANCH   7   8
HETATM    8  N1  UNL     1      14.251  16.489  22.093  1.00  0.00    -0.065 N 
ATOM      9  H12 UNL     1      15.010  17.153  21.936  1.00  0.00     0.278 HD
ATOM     10  H11 UNL     1      14.770  15.617  21.996  1.00  0.00     0.278 HD
BRANCH   8  11
HETATM   11  C2  UNL     1      13.717  16.625  23.416  1.00  0.00     0.115 C 
HETATM   12  C1  UNL     1      13.703  15.346  24.198  1.00  0.00     0.045 C 
HETATM   13  C3  UNL     1      14.555  17.687  24.128  1.00  0.00     0.045 C 
HETATM   14  C4  UNL     1      12.301  17.183  23.283  1.00  0.00     0.045 C 
ENDBRANCH   8  11
ENDBRANCH   7   8
ENDBRANCH   1   7
BRANCH   3  15
HETATM   15  O1  UNL     1      15.446  14.151  18.680  1.00  0.00    -0.393 OA
ATOM     16  H1  UNL     1      14.566  14.089  18.327  1.00  0.00     0.210 HD
ENDBRANCH   3  15
BRANCH   5  17
HETATM   17  N2  UNL     1      13.189  17.333  16.594  1.00  0.00    -0.308 N 
HETATM   18  C11 UNL     1      13.148  18.150  15.541  1.00  0.00     0.096 A 
HETATM   19  C12 UNL     1      12.007  17.936  14.794  1.00  0.00     0.022 A 
HETATM   20  C13 UNL     1      11.321  16.930  15.433  1.00  0.00     0.057 A 
HETATM   21  C14 UNL     1      12.062  16.574  16.535  1.00  0.00     0.144 A 
BRANCH  21  22
HETATM   22  O3  UNL     1      11.686  15.579  17.438  1.00  0.00    -0.346 OA
ATOM     23  H3  UNL     1      11.020  15.651  18.112  1.00  0.00     0.219 HD
ENDBRANCH  21  22
ENDBRANCH   5  17
BRANCH   4  24
HETATM   24  O2  UNL     1      14.527  15.161  16.604  1.00  0.00    -0.389 OA
ATOM     25  H2  UNL     1      14.657  15.354  15.683  1.00  0.00     0.210 HD
ENDBRANCH   4  24
TORSDOF 7
ENDMDL
MODEL 2
REMARK VINA RESULT: -6.387700466      2.578      5.057
REMARK  7 active torsions:
REMARK  status: ('A' for Active; 'I' for Inactive)
REMARK    1  A    between atoms: C2_2  and  N1_5 
REMARK    2  A    between atoms: N1_5  and  C5_8 
REMARK    3  A    between atoms: C5_8  and  C6_9 
REMARK    4  A    between atoms: C8_11  and  O1_12 
REMARK    5  A    between atoms: C9_14  and  O2_15 
REMARK    6  A    between atoms: C10_17  and  N2_18 
REMARK    7  A    between atoms: C14_22  and  O3_23 
ROOT
HETATM    1  C6  UNL     1      15.953  16.832  18.806  1.00  0.00     0.152 C 
HETATM    2  C7  UNL     1      15.270  16.585  17.474  1.00  0.00     0.068 C 
HETATM    3  C8  UNL     1      14.272  15.462  17.778  1.00  0.00     0.153 C 
HETATM    4  C9  UNL     1      13.465  15.766  19.001  1.00  0.00     0.196 C 
HETATM    5  C10 UNL     1      13.811  17.004  19.719  1.00  0.00     0.261 C 
HETATM    6  O4  UNL     1      15.062  17.500  19.590  1.00  0.00    -0.356 OA
ENDROOT
BRANCH   1   7
HETATM    7  C5  UNL     1      17.199  17.680  18.635  1.00  0.00     0.265 C 
BRANCH   7   8
HETATM    8  N1  UNL     1      18.335  16.928  19.119  1.00  0.00    -0.065 N 
ATOM      9  H12 UNL     1      19.068  16.878  18.410  1.00  0.00     0.278 HD
ATOM     10  H11 UNL     1      18.110  15.936  19.195  1.00  0.00     0.278 HD
BRANCH   8  11
HETATM   11  C2  UNL     1      18.854  17.432  20.356  1.00  0.00     0.115 C 
HETATM   12  C1  UNL     1      17.960  17.184  21.535  1.00  0.00     0.045 C 
HETATM   13  C3  UNL     1      20.221  16.781  20.566  1.00  0.00     0.045 C 
HETATM   14  C4  UNL     1      19.091  18.931  20.176  1.00  0.00     0.045 C 
ENDBRANCH   8  11
ENDBRANCH   7   8
ENDBRANCH   1   7
BRANCH   3  15
HETATM   15  O1  UNL     1      15.044  14.306  17.906  1.00  0.00    -0.393 OA
ATOM     16  H1  UNL     1      15.084  14.131  18.838  1.00  0.00     0.210 HD
ENDBRANCH   3  15
BRANCH   5  17
HETATM   17  N2  UNL     1      13.524  16.888  21.160  1.00  0.00    -0.308 N 
HETATM   18  C11 UNL     1      14.322  16.439  22.129  1.00  0.00     0.096 A 
HETATM   19  C12 UNL     1      13.688  16.487  23.354  1.00  0.00     0.022 A 
HETATM   20  C13 UNL     1      12.434  16.996  23.111  1.00  0.00     0.057 A 
HETATM   21  C14 UNL     1      12.353  17.235  21.758  1.00  0.00     0.144 A 
BRANCH  21  22
HETATM   22  O3  UNL     1      11.223  17.757  21.127  1.00  0.00    -0.346 OA
ATOM     23  H3  UNL     1      11.144  18.618  20.734  1.00  0.00     0.219 HD
ENDBRANCH  21  22
ENDBRANCH   5  17
BRANCH   4  24
HETATM   24  O2  UNL     1      13.578  14.685  19.876  1.00  0.00    -0.389 OA
ATOM     25  H2  UNL     1      13.732  15.026  20.749  1.00  0.00     0.210 HD
ENDBRANCH   4  24
TORSDOF 7
ENDMDL
MODEL 3
REMARK VINA RESULT: -6.255674763      3.577      6.401
REMARK  7 active torsions:
REMARK  status: ('A' for Active; 'I' for Inactive)
REMARK    1  A    between atoms: C2_2  and  N1_5 
REMARK    2  A    between atoms: N1_5  and  C5_8 
REMARK    3  A    between atoms: C5_8  and  C6_9 
REMARK    4  A    between atoms: C8_11  and  O1_12 
REMARK    5  A    between atoms: C9_14  and  O2_15 
REMARK    6  A    between atoms: C10_17  and  N2_18 
REMARK    7  A    between atoms: C14_22  and  O3_23 
ROOT
HETATM    1  C6  UNL     1      16.383  18.125  17.183  1.00  0.00     0.152 C 
HETATM    2  C7  UNL     1      17.392  17.939  16.066  1.00  0.00     0.068 C 
HETATM    3  C8  UNL     1      18.665  18.596  16.612  1.00  0.00     0.153 C 
HETATM    4  C9  UNL     1      18.971  18.124  17.999  1.00  0.00     0.196 C 
HETATM    5  C10 UNL     1      17.991  17.207  18.606  1.00  0.00     0.261 C 
HETATM    6  O4  UNL     1      16.713  17.241  18.166  1.00  0.00    -0.356 OA
ENDROOT
BRANCH   1   7
HETATM    7  C5  UNL     1      14.973  17.832  16.703  1.00  0.00     0.265 C 
BRANCH   7   8
HETATM    8  N1  UNL     1      14.615  16.495  17.122  1.00  0.00    -0.065 N 
ATOM      9  H12 UNL     1      15.299  16.124  17.781  1.00  0.00     0.278 HD
ATOM     10  H11 UNL     1      14.740  15.829  16.359  1.00  0.00     0.278 HD
BRANCH   8  11
HETATM   11  C2  UNL     1      13.290  16.415  17.660  1.00  0.00     0.115 C 
HETATM   12  C1  UNL     1      12.291  17.276  16.945  1.00  0.00     0.045 C 
HETATM   13  C3  UNL     1      12.874  14.944  17.606  1.00  0.00     0.045 C 
HETATM   14  C4  UNL     1      13.370  16.807  19.135  1.00  0.00     0.045 C 
ENDBRANCH   8  11
ENDBRANCH   7   8
ENDBRANCH   1   7
BRANCH   3  15
HETATM   15  O1  UNL     1      18.432  19.971  16.541  1.00  0.00    -0.393 OA
ATOM     16  H1  UNL     1      18.135  20.221  17.408  1.00  0.00     0.210 HD
ENDBRANCH   3  15
BRANCH   5  17
HETATM   17  N2  UNL     1      17.960  17.348  20.073  1.00  0.00    -0.308 N 
HETATM   18  C11 UNL     1      16.911  17.588  20.859  1.00  0.00     0.096 A 
HETATM   19  C12 UNL     1      17.291  17.650  22.185  1.00  0.00     0.022 A 
HETATM   20  C13 UNL     1      18.649  17.433  22.199  1.00  0.00     0.057 A 
HETATM   21  C14 UNL     1      19.041  17.251  20.893  1.00  0.00     0.144 A 
BRANCH  21  22
HETATM   22  O3  UNL     1      20.358  17.005  20.503  1.00  0.00    -0.346 OA
ATOM     23  H3  UNL     1      21.055  16.668  21.053  1.00  0.00     0.219 HD
ENDBRANCH  21  22
ENDBRANCH   5  17
BRANCH   4  24
HETATM   24  O2  UNL     1      19.116  19.244  18.818  1.00  0.00    -0.389 OA
ATOM     25  H2  UNL     1      18.561  19.127  19.579  1.00  0.00     0.210 HD
ENDBRANCH   4  24
TORSDOF 7
ENDMDL
MODEL 4
REMARK VINA RESULT: -6.165734140      1.172      1.326
REMARK  7 active torsions:
REMARK  status: ('A' for Active; 'I' for Inactive)
REMARK    1  A    between atoms: C2_2  and  N1_5 
REMARK    2  A    between atoms: N1_5  and  C5_8 
REMARK    3  A    between atoms: C5_8  and  C6_9 
REMARK    4  A    between atoms: C8_11  and  O1_12 
REMARK    5  A    between atoms: C9_14  and  O2_15 
REMARK    6  A    between atoms: C10_17  and  N2_18 
REMARK    7  A    between atoms: C14_22  and  O3_23 
ROOT
HETATM    1  C6  UNL     1      14.254  16.262  19.827  1.00  0.00     0.152 C 
HETATM    2  C7  UNL     1      15.252  17.398  19.939  1.00  0.00     0.068 C 
HETATM    3  C8  UNL     1      15.948  17.407  18.573  1.00  0.00     0.153 C 
HETATM    4  C9  UNL     1      14.955  17.376  17.454  1.00  0.00     0.196 C 
HETATM    5  C10 UNL     1      13.539  17.264  17.843  1.00  0.00     0.261 C 
HETATM    6  O4  UNL     1      13.237  16.704  19.036  1.00  0.00    -0.356 OA
ENDROOT
BRANCH   1   7
HETATM    7  C5  UNL     1      13.697  15.885  21.188  1.00  0.00     0.265 C 
BRANCH   7   8
HETATM    8  N1  UNL     1      14.508  16.515  22.206  1.00  0.00    -0.065 N 
ATOM      9  H12 UNL     1      14.855  17.420  21.887  1.00  0.00     0.278 HD
ATOM     10  H11 UNL     1      15.396  16.027  22.318  1.00  0.00     0.278 HD
BRANCH   8  11
HETATM   11  C2  UNL     1      13.829  16.641  23.461  1.00  0.00     0.115 C 
HETATM   12  C1  UNL     1      13.773  15.367  24.251  1.00  0.00     0.045 C 
HETATM   13  C3  UNL     1      14.548  17.737  24.250  1.00  0.00     0.045 C 
HETATM   14  C4  UNL     1      12.417  17.148  23.170  1.00  0.00     0.045 C 
ENDBRANCH   8  11
ENDBRANCH   7   8
ENDBRANCH   1   7
BRANCH   3  15
HETATM   15  O1  UNL     1      16.797  16.299  18.583  1.00  0.00    -0.393 OA
ATOM     16  H1  UNL     1      16.394  15.678  19.178  1.00  0.00     0.210 HD
ENDBRANCH   3  15
BRANCH   5  17
HETATM   17  N2  UNL     1      12.752  16.564  16.811  1.00  0.00    -0.308 N 
HETATM   18  C11 UNL     1      12.009  17.092  15.838  1.00  0.00     0.096 A 
HETATM   19  C12 UNL     1      11.425  16.104  15.071  1.00  0.00     0.022 A 
HETATM   20  C13 UNL     1      11.841  14.910  15.613  1.00  0.00     0.057 A 
HETATM   21  C14 UNL     1      12.654  15.214  16.680  1.00  0.00     0.144 A 
BRANCH  21  22
HETATM   22  O3  UNL     1      13.271  14.256  17.486  1.00  0.00    -0.346 OA
ATOM     23  H3  UNL     1      12.986  13.359  17.614  1.00  0.00     0.219 HD
ENDBRANCH  21  22
ENDBRANCH   5  17
BRANCH   4  24
HETATM   24  O2  UNL     1      15.282  16.311  16.612  1.00  0.00    -0.389 OA
ATOM     25  H2  UNL     1      16.176  16.433  16.316  1.00  0.00     0.210 HD
ENDBRANCH   4  24
TORSDOF 7
ENDMDL
MODEL 5
REMARK VINA RESULT: -6.058615200      3.671      7.064
REMARK  7 active torsions:
REMARK  status: ('A' for Active; 'I' for Inactive)
REMARK    1  A    between atoms: C2_2  and  N1_5 
REMARK    2  A    between atoms: N1_5  and  C5_8 
REMARK    3  A    between atoms: C5_8  and  C6_9 
REMARK    4  A    between atoms: C8_11  and  O1_12 
REMARK    5  A    between atoms: C9_14  and  O2_15 
REMARK    6  A    between atoms: C10_17  and  N2_18 
REMARK    7  A    between atoms: C14_22  and  O3_23 
ROOT
HETATM    1  C6  UNL     1      16.367  18.133  17.092  1.00  0.00     0.152 C 
HETATM    2  C7  UNL     1      17.378  17.942  15.978  1.00  0.00     0.068 C 
HETATM    3  C8  UNL     1      18.652  18.596  16.526  1.00  0.00     0.153 C 
HETATM    4  C9  UNL     1      18.953  18.127  17.914  1.00  0.00     0.196 C 
HETATM    5  C10 UNL     1      17.969  17.215  18.522  1.00  0.00     0.261 C 
HETATM    6  O4  UNL     1      16.692  17.251  18.079  1.00  0.00    -0.356 OA
ENDROOT
BRANCH   1   7
HETATM    7  C5  UNL     1      14.957  17.842  16.610  1.00  0.00     0.265 C 
BRANCH   7   8
HETATM    8  N1  UNL     1      14.878  16.447  16.239  1.00  0.00    -0.065 N 
ATOM      9  H12 UNL     1      14.553  15.880  17.022  1.00  0.00     0.278 HD
ATOM     10  H11 UNL     1      15.809  16.049  16.120  1.00  0.00     0.278 HD
BRANCH   8  11
HETATM   11  C2  UNL     1      14.071  16.224  15.076  1.00  0.00     0.115 C 
HETATM   12  C1  UNL     1      12.891  15.330  15.318  1.00  0.00     0.045 C 
HETATM   13  C3  UNL     1      13.618  17.597  14.577  1.00  0.00     0.045 C 
HETATM   14  C4  UNL     1      14.976  15.629  13.998  1.00  0.00     0.045 C 
ENDBRANCH   8  11
ENDBRANCH   7   8
ENDBRANCH   1   7
BRANCH   3  15
HETATM   15  O1  UNL     1      18.423  19.971  16.450  1.00  0.00    -0.393 OA
ATOM     16  H1  UNL     1      18.345  20.263  17.351  1.00  0.00     0.210 HD
ENDBRANCH   3  15
BRANCH   5  17
HETATM   17  N2  UNL     1      17.935  17.360  19.988  1.00  0.00    -0.308 N 
HETATM   18  C11 UNL     1      16.882  17.586  20.773  1.00  0.00     0.096 A 
HETATM   19  C12 UNL     1      17.261  17.658  22.099  1.00  0.00     0.022 A 
HETATM   20  C13 UNL     1      18.622  17.462  22.115  1.00  0.00     0.057 A 
HETATM   21  C14 UNL     1      19.017  17.281  20.809  1.00  0.00     0.144 A 
BRANCH  21  22
HETATM   22  O3  UNL     1      20.337  17.053  20.421  1.00  0.00    -0.346 OA
ATOM     23  H3  UNL     1      21.113  17.447  20.803  1.00  0.00     0.219 HD
ENDBRANCH  21  22
ENDBRANCH   5  17
BRANCH   4  24
HETATM   24  O2  UNL     1      19.099  19.249  18.730  1.00  0.00    -0.389 OA
ATOM     25  H2  UNL     1      18.857  19.004  19.615  1.00  0.00     0.210 HD
ENDBRANCH   4  24
TORSDOF 7
ENDMDL
