MODEL 1
REMARK VINA RESULT: -7.762998282      0.000      0.000
REMARK  7 active torsions:
REMARK  status: ('A' for Active; 'I' for Inactive)
REMARK    1  A    between atoms: C2_2  and  C3_3 
REMARK    2  A    between atoms: C2_2  and  N1_12 
REMARK    3  A    between atoms: N1_12  and  N2_13 
REMARK    4  A    between atoms: N2_13  and  C10_15 
REMARK    5  A    between atoms: C10_15  and  C12_17 
REMARK    6  A    between atoms: C12_17  and  O3_18 
REMARK    7  A    between atoms: N3_20  and  O4_22 
ROOT
HETATM    1  N1  UNL     1      15.876  17.078  21.603  1.00  0.00    -0.335 NA
ENDROOT
BRANCH   1   2
HETATM    2  C2  UNL     1      16.546  17.192  20.601  1.00  0.00     0.105 C 
HETATM    3  C1  UNL     1      18.036  17.044  20.724  1.00  0.00     0.087 C 
BRANCH   2   4
HETATM    4  C3  UNL     1      15.872  17.439  19.326  1.00  0.00     0.055 C 
HETATM    5  C4  UNL     1      15.231  16.670  18.537  1.00  0.00     0.023 C 
HETATM    6  C5  UNL     1      14.592  17.174  17.228  1.00  0.00     0.083 C 
HETATM    7  C9  UNL     1      14.881  15.263  18.462  1.00  0.00     0.290 C 
HETATM    8  C6  UNL     1      13.299  16.436  17.296  1.00  0.00     0.068 C 
HETATM    9  C7  UNL     1      12.327  17.282  18.097  1.00  0.00     0.046 C 
HETATM   10  C8  UNL     1      12.736  16.106  15.930  1.00  0.00     0.046 C 
HETATM   11  O1  UNL     1      13.576  15.213  17.926  1.00  0.00    -0.307 OA
HETATM   12  O2  UNL     1      15.602  14.305  18.803  1.00  0.00    -0.260 OA
ENDBRANCH   2   4
ENDBRANCH   1   2
BRANCH   1  13
HETATM   13  N2  UNL     1      15.204  16.969  22.684  1.00  0.00    -0.260 N 
ATOM     14  H2  UNL     1      15.648  17.282  23.547  1.00  0.00     0.196 HD
BRANCH  13  15
HETATM   15  C10 UNL     1      13.846  16.431  22.781  1.00  0.00     0.184 C 
HETATM   16  C11 UNL     1      13.149  16.468  21.441  1.00  0.00     0.043 C 
BRANCH  15  17
HETATM   17  C12 UNL     1      13.138  17.169  23.841  1.00  0.00     0.160 C 
HETATM   18  N3  UNL     1      13.818  17.750  24.760  1.00  0.00    -0.249 N 
ATOM     19  H3  UNL     1      14.835  17.677  24.721  1.00  0.00     0.196 HD
BRANCH  17  20
HETATM   20  O3  UNL     1      11.749  17.195  23.785  1.00  0.00    -0.346 OA
ATOM     21  H3  UNL     1      11.278  16.538  24.285  1.00  0.00     0.219 HD
ENDBRANCH  17  20
BRANCH  18  22
HETATM   22  O4  UNL     1      13.269  18.461  25.789  1.00  0.00    -0.288 OA
ATOM     23  H4  UNL     1      13.420  18.275  26.708  1.00  0.00     0.244 HD
ENDBRANCH  18  22
ENDBRANCH  15  17
ENDBRANCH  13  15
ENDBRANCH   1  13
TORSDOF 7
ENDMDL
MODEL 2
REMARK VINA RESULT: -7.490103848      2.655      4.681
REMARK  7 active torsions:
REMARK  status: ('A' for Active; 'I' for Inactive)
REMARK    1  A    between atoms: C2_2  and  C3_3 
REMARK    2  A    between atoms: C2_2  and  N1_12 
REMARK    3  A    between atoms: N1_12  and  N2_13 
REMARK    4  A    between atoms: N2_13  and  C10_15 
REMARK    5  A    between atoms: C10_15  and  C12_17 
REMARK    6  A    between atoms: C12_17  and  O3_18 
REMARK    7  A    between atoms: N3_20  and  O4_22 
ROOT
HETATM    1  N1  UNL     1      16.224  17.372  21.477  1.00  0.00    -0.335 NA
ENDROOT
BRANCH   1   2
HETATM    2  C2  UNL     1      15.256  16.661  21.637  1.00  0.00     0.105 C 
HETATM    3  C1  UNL     1      14.547  16.718  22.961  1.00  0.00     0.087 C 
BRANCH   2   4
HETATM    4  C3  UNL     1      14.815  15.810  20.532  1.00  0.00     0.055 C 
HETATM    5  C4  UNL     1      13.871  15.933  19.685  1.00  0.00     0.023 C 
HETATM    6  C5  UNL     1      13.601  14.885  18.587  1.00  0.00     0.083 C 
HETATM    7  C9  UNL     1      12.803  16.875  19.401  1.00  0.00     0.290 C 
HETATM    8  C6  UNL     1      13.323  15.803  17.447  1.00  0.00     0.068 C 
HETATM    9  C7  UNL     1      14.650  16.145  16.796  1.00  0.00     0.046 C 
HETATM   10  C8  UNL     1      12.358  15.216  16.440  1.00  0.00     0.046 C 
HETATM   11  O1  UNL     1      12.698  16.934  17.994  1.00  0.00    -0.307 OA
HETATM   12  O2  UNL     1      12.124  17.495  20.242  1.00  0.00    -0.260 OA
ENDBRANCH   2   4
ENDBRANCH   1   2
BRANCH   1  13
HETATM   13  N2  UNL     1      17.259  18.108  21.348  1.00  0.00    -0.260 N 
ATOM     14  H2  UNL     1      17.378  18.874  22.010  1.00  0.00     0.196 HD
BRANCH  13  15
HETATM   15  C10 UNL     1      18.290  17.938  20.321  1.00  0.00     0.184 C 
HETATM   16  C11 UNL     1      17.692  17.432  19.029  1.00  0.00     0.043 C 
BRANCH  15  17
HETATM   17  C12 UNL     1      19.342  17.067  20.872  1.00  0.00     0.160 C 
HETATM   18  N3  UNL     1      20.335  16.738  20.129  1.00  0.00    -0.249 N 
ATOM     19  H3  UNL     1      20.356  17.096  19.175  1.00  0.00     0.196 HD
BRANCH  17  20
HETATM   20  O3  UNL     1      19.199  16.644  22.189  1.00  0.00    -0.346 OA
ATOM     21  H3  UNL     1      19.190  15.708  22.350  1.00  0.00     0.219 HD
ENDBRANCH  17  20
BRANCH  18  22
HETATM   22  O4  UNL     1      21.366  15.939  20.535  1.00  0.00    -0.288 OA
ATOM     23  H4  UNL     1      22.025  16.198  21.168  1.00  0.00     0.244 HD
ENDBRANCH  18  22
ENDBRANCH  15  17
ENDBRANCH  13  15
ENDBRANCH   1  13
TORSDOF 7
ENDMDL
MODEL 3
REMARK VINA RESULT: -7.306675388      1.076      1.570
REMARK  7 active torsions:
REMARK  status: ('A' for Active; 'I' for Inactive)
REMARK    1  A    between atoms: C2_2  and  C3_3 
REMARK    2  A    between atoms: C2_2  and  N1_12 
REMARK    3  A    between atoms: N1_12  and  N2_13 
REMARK    4  A    between atoms: N2_13  and  C10_15 
REMARK    5  A    between atoms: C10_15  and  C12_17 
REMARK    6  A    between atoms: C12_17  and  O3_18 
REMARK    7  A    between atoms: N3_20  and  O4_22 
ROOT
HETATM    1  N1  UNL     1      15.903  17.072  21.044  1.00  0.00    -0.335 NA
ENDROOT
BRANCH   1   2
HETATM    2  C2  UNL     1      16.455  17.421  20.024  1.00  0.00     0.105 C 
HETATM    3  C1  UNL     1      17.902  17.820  20.103  1.00  0.00     0.087 C 
BRANCH   2   4
HETATM    4  C3  UNL     1      15.698  17.410  18.773  1.00  0.00     0.055 C 
HETATM    5  C4  UNL     1      15.025  16.496  18.191  1.00  0.00     0.023 C 
HETATM    6  C5  UNL     1      14.295  16.730  16.854  1.00  0.00     0.083 C 
HETATM    7  C9  UNL     1      14.700  15.099  18.414  1.00  0.00     0.290 C 
HETATM    8  C6  UNL     1      13.025  16.009  17.149  1.00  0.00     0.068 C 
HETATM    9  C7  UNL     1      12.087  16.987  17.832  1.00  0.00     0.046 C 
HETATM   10  C8  UNL     1      12.384  15.415  15.913  1.00  0.00     0.046 C 
HETATM   11  O1  UNL     1      13.365  14.935  17.984  1.00  0.00    -0.307 OA
HETATM   12  O2  UNL     1      15.460  14.232  18.887  1.00  0.00    -0.260 OA
ENDBRANCH   2   4
ENDBRANCH   1   2
BRANCH   1  13
HETATM   13  N2  UNL     1      15.282  16.703  22.098  1.00  0.00    -0.260 N 
ATOM     14  H2  UNL     1      14.688  15.878  22.029  1.00  0.00     0.196 HD
BRANCH  13  15
HETATM   15  C10 UNL     1      15.358  17.374  23.398  1.00  0.00     0.184 C 
HETATM   16  C11 UNL     1      16.372  16.706  24.297  1.00  0.00     0.043 C 
BRANCH  15  17
HETATM   17  C12 UNL     1      14.000  17.424  23.964  1.00  0.00     0.160 C 
HETATM   18  N3  UNL     1      13.060  16.759  23.397  1.00  0.00    -0.249 N 
ATOM     19  H3  UNL     1      13.294  16.216  22.566  1.00  0.00     0.196 HD
BRANCH  17  20
HETATM   20  O3  UNL     1      13.808  18.202  25.101  1.00  0.00    -0.346 OA
ATOM     21  H3  UNL     1      12.989  18.095  25.571  1.00  0.00     0.219 HD
ENDBRANCH  17  20
BRANCH  18  22
HETATM   22  O4  UNL     1      11.767  16.731  23.836  1.00  0.00    -0.288 OA
ATOM     23  H4  UNL     1      11.242  17.506  24.002  1.00  0.00     0.244 HD
ENDBRANCH  18  22
ENDBRANCH  15  17
ENDBRANCH  13  15
ENDBRANCH   1  13
TORSDOF 7
ENDMDL
MODEL 4
REMARK VINA RESULT: -7.264424914      2.745      4.472
REMARK  7 active torsions:
REMARK  status: ('A' for Active; 'I' for Inactive)
REMARK    1  A    between atoms: C2_2  and  C3_3 
REMARK    2  A    between atoms: C2_2  and  N1_12 
REMARK    3  A    between atoms: N1_12  and  N2_13 
REMARK    4  A    between atoms: N2_13  and  C10_15 
REMARK    5  A    between atoms: C10_15  and  C12_17 
REMARK    6  A    between atoms: C12_17  and  O3_18 
REMARK    7  A    between atoms: N3_20  and  O4_22 
ROOT
HETATM    1  N1  UNL     1      16.019  17.247  20.775  1.00  0.00    -0.335 NA
ENDROOT
BRANCH   1   2
HETATM    2  C2  UNL     1      14.973  16.788  20.373  1.00  0.00     0.105 C 
HETATM    3  C1  UNL     1      13.942  16.380  21.388  1.00  0.00     0.087 C 
BRANCH   2   4
HETATM    4  C3  UNL     1      14.758  16.680  18.930  1.00  0.00     0.055 C 
HETATM    5  C4  UNL     1      14.082  15.858  18.228  1.00  0.00     0.023 C 
HETATM    6  C5  UNL     1      14.001  15.952  16.692  1.00  0.00     0.083 C 
HETATM    7  C9  UNL     1      13.264  14.679  18.450  1.00  0.00     0.290 C 
HETATM    8  C6  UNL     1      12.550  15.665  16.513  1.00  0.00     0.068 C 
HETATM    9  C7  UNL     1      11.801  16.979  16.635  1.00  0.00     0.046 C 
HETATM   10  C8  UNL     1      12.242  14.983  15.197  1.00  0.00     0.046 C 
HETATM   11  O1  UNL     1      12.199  14.763  17.528  1.00  0.00    -0.307 OA
HETATM   12  O2  UNL     1      13.478  13.781  19.288  1.00  0.00    -0.260 OA
ENDBRANCH   2   4
ENDBRANCH   1   2
BRANCH   1  13
HETATM   13  N2  UNL     1      17.100  17.759  21.223  1.00  0.00    -0.260 N 
ATOM     14  H2  UNL     1      17.120  18.030  22.206  1.00  0.00     0.196 HD
BRANCH  13  15
HETATM   15  C10 UNL     1      18.312  17.989  20.435  1.00  0.00     0.184 C 
HETATM   16  C11 UNL     1      18.036  17.849  18.957  1.00  0.00     0.043 C 
BRANCH  15  17
HETATM   17  C12 UNL     1      19.359  17.080  20.935  1.00  0.00     0.160 C 
HETATM   18  N3  UNL     1      20.346  16.784  20.171  1.00  0.00    -0.249 N 
ATOM     19  H3  UNL     1      20.367  17.193  19.238  1.00  0.00     0.196 HD
BRANCH  17  20
HETATM   20  O3  UNL     1      19.216  16.587  22.227  1.00  0.00    -0.346 OA
ATOM     21  H3  UNL     1      19.210  15.644  22.338  1.00  0.00     0.219 HD
ENDBRANCH  17  20
BRANCH  18  22
HETATM   22  O4  UNL     1      21.371  15.955  20.529  1.00  0.00    -0.288 OA
ATOM     23  H4  UNL     1      22.233  16.254  20.791  1.00  0.00     0.244 HD
ENDBRANCH  18  22
ENDBRANCH  15  17
ENDBRANCH  13  15
ENDBRANCH   1  13
TORSDOF 7
ENDMDL
MODEL 5
REMARK VINA RESULT: -7.173238488      3.134      4.708
REMARK  7 active torsions:
REMARK  status: ('A' for Active; 'I' for Inactive)
REMARK    1  A    between atoms: C2_2  and  C3_3 
REMARK    2  A    between atoms: C2_2  and  N1_12 
REMARK    3  A    between atoms: N1_12  and  N2_13 
REMARK    4  A    between atoms: N2_13  and  C10_15 
REMARK    5  A    between atoms: C10_15  and  C12_17 
REMARK    6  A    between atoms: C12_17  and  O3_18 
REMARK    7  A    between atoms: N3_20  and  O4_22 
ROOT
HETATM    1  N1  UNL     1      16.058  16.788  20.154  1.00  0.00    -0.335 NA
ENDROOT
BRANCH   1   2
HETATM    2  C2  UNL     1      14.973  16.763  20.691  1.00  0.00     0.105 C 
HETATM    3  C1  UNL     1      14.927  16.708  22.193  1.00  0.00     0.087 C 
BRANCH   2   4
HETATM    4  C3  UNL     1      13.772  16.814  19.858  1.00  0.00     0.055 C 
HETATM    5  C4  UNL     1      13.611  16.940  18.600  1.00  0.00     0.023 C 
HETATM    6  C5  UNL     1      12.218  16.960  17.941  1.00  0.00     0.083 C 
HETATM    7  C9  UNL     1      14.447  17.115  17.426  1.00  0.00     0.290 C 
HETATM    8  C6  UNL     1      12.506  16.108  16.753  1.00  0.00     0.068 C 
HETATM    9  C7  UNL     1      12.293  14.662  17.159  1.00  0.00     0.046 C 
HETATM   10  C8  UNL     1      11.657  16.466  15.551  1.00  0.00     0.046 C 
HETATM   11  O1  UNL     1      13.839  16.364  16.397  1.00  0.00    -0.307 OA
HETATM   12  O2  UNL     1      15.488  17.798  17.357  1.00  0.00    -0.260 OA
ENDBRANCH   2   4
ENDBRANCH   1   2
BRANCH   1  13
HETATM   13  N2  UNL     1      17.201  16.858  19.588  1.00  0.00    -0.260 N 
ATOM     14  H2  UNL     1      17.416  16.163  18.874  1.00  0.00     0.196 HD
BRANCH  13  15
HETATM   15  C10 UNL     1      18.226  17.861  19.884  1.00  0.00     0.184 C 
HETATM   16  C11 UNL     1      18.689  18.554  18.624  1.00  0.00     0.043 C 
BRANCH  15  17
HETATM   17  C12 UNL     1      19.309  17.198  20.632  1.00  0.00     0.160 C 
HETATM   18  N3  UNL     1      20.292  16.685  19.987  1.00  0.00    -0.249 N 
ATOM     19  H3  UNL     1      20.284  16.756  18.969  1.00  0.00     0.196 HD
BRANCH  17  20
HETATM   20  O3  UNL     1      19.203  17.166  22.018  1.00  0.00    -0.346 OA
ATOM     21  H3  UNL     1      18.534  17.708  22.419  1.00  0.00     0.219 HD
ENDBRANCH  17  20
BRANCH  18  22
HETATM   22  O4  UNL     1      21.348  16.049  20.575  1.00  0.00    -0.288 OA
ATOM     23  H4  UNL     1      21.266  15.423  21.285  1.00  0.00     0.244 HD
ENDBRANCH  18  22
ENDBRANCH  15  17
ENDBRANCH  13  15
ENDBRANCH   1  13
TORSDOF 7
ENDMDL
