MODEL 1
REMARK VINA RESULT: -6.897581670      0.000      0.000
REMARK  9 active torsions:
REMARK  status: ('A' for Active; 'I' for Inactive)
REMARK    1  A    between atoms: C3_3  and  C4_4 
REMARK    2  A    between atoms: C4_4  and  O1_7 
REMARK    3  A    between atoms: O1_7  and  C7_8 
REMARK    4  A    between atoms: C7_8  and  C10_11 
REMARK    5  A    between atoms: C10_11  and  C11_12 
REMARK       I    between atoms: C11_12  and  N1_14 
REMARK    6  A    between atoms: N1_14  and  O3_16 
REMARK    7  A    between atoms: O3_16  and  C12_17 
REMARK    8  A    between atoms: C12_17  and  O4_18 
REMARK    9  A    between atoms: N2_20  and  O5_22 
ROOT
HETATM    1  C1  UNL     1      18.472  18.865  17.490  1.00  0.00     0.112 C 
HETATM    2  C2  UNL     1      17.198  18.217  17.125  1.00  0.00    -0.108 C 
HETATM    3  C3  UNL     1      16.155  17.661  16.836  1.00  0.00    -0.069 C 
ENDROOT
BRANCH   3   4
HETATM    4  C4  UNL     1      14.902  16.938  16.498  1.00  0.00     0.117 C 
HETATM    5  C5  UNL     1      15.115  16.474  15.034  1.00  0.00     0.060 C 
HETATM    6  C6  UNL     1      13.866  18.027  16.354  1.00  0.00     0.060 C 
BRANCH   4   7
HETATM    7  O1  UNL     1      14.705  15.914  17.220  1.00  0.00    -0.358 OA
BRANCH   7   8
HETATM    8  C7  UNL     1      14.229  15.640  18.426  1.00  0.00     0.064 C 
HETATM    9  C8  UNL     1      15.061  14.493  18.962  1.00  0.00     0.046 C 
HETATM   10  C9  UNL     1      12.805  15.048  18.327  1.00  0.00     0.046 C 
BRANCH   8  11
HETATM   11  C10 UNL     1      14.308  16.739  19.412  1.00  0.00     0.142 C 
BRANCH  11  12
HETATM   12  C11 UNL     1      13.573  16.584  20.673  1.00  0.00     0.244 C 
HETATM   13  O2  UNL     1      12.404  17.035  20.727  1.00  0.00    -0.271 OA
HETATM   14  N1  UNL     1      14.072  15.967  21.843  1.00  0.00    -0.225 N 
ATOM     15  H1  UNL     1      15.016  15.581  21.856  1.00  0.00     0.198 HD
BRANCH  14  16
HETATM   16  O3  UNL     1      13.285  15.892  22.951  1.00  0.00    -0.190 OA
BRANCH  16  17
HETATM   17  C12 UNL     1      12.942  16.918  23.789  1.00  0.00     0.305 C 
HETATM   18  N2  UNL     1      13.870  17.390  24.558  1.00  0.00    -0.225 N 
ATOM     19  H2  UNL     1      14.822  17.025  24.550  1.00  0.00     0.198 HD
BRANCH  17  20
HETATM   20  O4  UNL     1      11.634  17.386  23.768  1.00  0.00    -0.324 OA
ATOM     21  H4  UNL     1      11.338  17.942  24.479  1.00  0.00     0.221 HD
ENDBRANCH  17  20
BRANCH  18  22
HETATM   22  O5  UNL     1      13.480  18.429  25.393  1.00  0.00    -0.286 OA
ATOM     23  H5  UNL     1      13.391  18.201  26.310  1.00  0.00     0.244 HD
ENDBRANCH  18  22
ENDBRANCH  16  17
ENDBRANCH  14  16
ENDBRANCH  11  12
ENDBRANCH   8  11
ENDBRANCH   7   8
ENDBRANCH   4   7
ENDBRANCH   3   4
TORSDOF 9
ENDMDL
MODEL 2
REMARK VINA RESULT: -6.741797698      1.750      2.087
REMARK  9 active torsions:
REMARK  status: ('A' for Active; 'I' for Inactive)
REMARK    1  A    between atoms: C3_3  and  C4_4 
REMARK    2  A    between atoms: C4_4  and  O1_7 
REMARK    3  A    between atoms: O1_7  and  C7_8 
REMARK    4  A    between atoms: C7_8  and  C10_11 
REMARK    5  A    between atoms: C10_11  and  C11_12 
REMARK       I    between atoms: C11_12  and  N1_14 
REMARK    6  A    between atoms: N1_14  and  O3_16 
REMARK    7  A    between atoms: O3_16  and  C12_17 
REMARK    8  A    between atoms: C12_17  and  O4_18 
REMARK    9  A    between atoms: N2_20  and  O5_22 
ROOT
HETATM    1  C1  UNL     1      14.363  18.808  13.514  1.00  0.00     0.112 C 
HETATM    2  C2  UNL     1      13.885  17.930  14.601  1.00  0.00    -0.108 C 
HETATM    3  C3  UNL     1      13.485  17.189  15.478  1.00  0.00    -0.069 C 
ENDROOT
BRANCH   3   4
HETATM    4  C4  UNL     1      12.976  16.255  16.515  1.00  0.00     0.117 C 
HETATM    5  C5  UNL     1      12.350  15.091  15.703  1.00  0.00     0.060 C 
HETATM    6  C6  UNL     1      11.764  16.951  17.086  1.00  0.00     0.060 C 
BRANCH   4   7
HETATM    7  O1  UNL     1      13.891  15.782  17.255  1.00  0.00    -0.358 OA
BRANCH   7   8
HETATM    8  C7  UNL     1      14.117  15.613  18.550  1.00  0.00     0.064 C 
HETATM    9  C8  UNL     1      15.563  15.177  18.676  1.00  0.00     0.046 C 
HETATM   10  C9  UNL     1      13.319  14.405  19.089  1.00  0.00     0.046 C 
BRANCH   8  11
HETATM   11  C10 UNL     1      13.945  16.815  19.393  1.00  0.00     0.142 C 
BRANCH  11  12
HETATM   12  C11 UNL     1      13.371  16.639  20.732  1.00  0.00     0.244 C 
HETATM   13  O2  UNL     1      12.196  17.032  20.920  1.00  0.00    -0.271 OA
HETATM   14  N1  UNL     1      14.034  16.061  21.839  1.00  0.00    -0.225 N 
ATOM     15  H1  UNL     1      14.992  15.723  21.744  1.00  0.00     0.198 HD
BRANCH  14  16
HETATM   16  O3  UNL     1      13.386  15.959  23.032  1.00  0.00    -0.190 OA
BRANCH  16  17
HETATM   17  C12 UNL     1      13.015  16.986  23.858  1.00  0.00     0.305 C 
HETATM   18  N2  UNL     1      13.936  17.510  24.601  1.00  0.00    -0.225 N 
ATOM     19  H2  UNL     1      14.903  17.184  24.583  1.00  0.00     0.198 HD
BRANCH  17  20
HETATM   20  O4  UNL     1      11.689  17.399  23.852  1.00  0.00    -0.324 OA
ATOM     21  H4  UNL     1      11.431  18.109  24.429  1.00  0.00     0.221 HD
ENDBRANCH  17  20
BRANCH  18  22
HETATM   22  O5  UNL     1      13.518  18.546  25.425  1.00  0.00    -0.286 OA
ATOM     23  H5  UNL     1      13.559  18.367  26.357  1.00  0.00     0.244 HD
ENDBRANCH  18  22
ENDBRANCH  16  17
ENDBRANCH  14  16
ENDBRANCH  11  12
ENDBRANCH   8  11
ENDBRANCH   7   8
ENDBRANCH   4   7
ENDBRANCH   3   4
TORSDOF 9
ENDMDL
MODEL 3
REMARK VINA RESULT: -6.596697207      2.984      4.206
REMARK  9 active torsions:
REMARK  status: ('A' for Active; 'I' for Inactive)
REMARK    1  A    between atoms: C3_3  and  C4_4 
REMARK    2  A    between atoms: C4_4  and  O1_7 
REMARK    3  A    between atoms: O1_7  and  C7_8 
REMARK    4  A    between atoms: C7_8  and  C10_11 
REMARK    5  A    between atoms: C10_11  and  C11_12 
REMARK       I    between atoms: C11_12  and  N1_14 
REMARK    6  A    between atoms: N1_14  and  O3_16 
REMARK    7  A    between atoms: O3_16  and  C12_17 
REMARK    8  A    between atoms: C12_17  and  O4_18 
REMARK    9  A    between atoms: N2_20  and  O5_22 
ROOT
HETATM    1  C1  UNL     1      17.997  18.960  15.626  1.00  0.00     0.112 C 
HETATM    2  C2  UNL     1      16.763  18.211  15.934  1.00  0.00    -0.108 C 
HETATM    3  C3  UNL     1      15.759  17.572  16.183  1.00  0.00    -0.069 C 
ENDROOT
BRANCH   3   4
HETATM    4  C4  UNL     1      14.553  16.751  16.466  1.00  0.00     0.117 C 
HETATM    5  C5  UNL     1      14.266  16.024  15.127  1.00  0.00     0.060 C 
HETATM    6  C6  UNL     1      13.427  17.752  16.551  1.00  0.00     0.060 C 
BRANCH   4   7
HETATM    7  O1  UNL     1      14.744  15.876  17.365  1.00  0.00    -0.358 OA
BRANCH   7   8
HETATM    8  C7  UNL     1      14.184  15.502  18.507  1.00  0.00     0.064 C 
HETATM    9  C8  UNL     1      14.999  14.332  19.019  1.00  0.00     0.046 C 
HETATM   10  C9  UNL     1      12.785  14.896  18.254  1.00  0.00     0.046 C 
BRANCH   8  11
HETATM   11  C10 UNL     1      14.164  16.524  19.575  1.00  0.00     0.142 C 
BRANCH  11  12
HETATM   12  C11 UNL     1      15.448  16.935  20.157  1.00  0.00     0.244 C 
HETATM   13  O2  UNL     1      15.604  16.784  21.392  1.00  0.00    -0.271 OA
HETATM   14  N1  UNL     1      16.532  17.492  19.441  1.00  0.00    -0.225 N 
ATOM     15  H1  UNL     1      16.461  17.637  18.433  1.00  0.00     0.198 HD
BRANCH  14  16
HETATM   16  O3  UNL     1      17.670  17.834  20.104  1.00  0.00    -0.190 OA
BRANCH  16  17
HETATM   17  C12 UNL     1      18.938  17.384  19.851  1.00  0.00     0.305 C 
HETATM   18  N2  UNL     1      19.610  16.913  20.851  1.00  0.00    -0.225 N 
ATOM     19  H2  UNL     1      19.225  16.870  21.795  1.00  0.00     0.198 HD
BRANCH  17  20
HETATM   20  O4  UNL     1      19.424  17.460  18.552  1.00  0.00    -0.324 OA
ATOM     21  H4  UNL     1      20.221  17.952  18.391  1.00  0.00     0.221 HD
ENDBRANCH  17  20
BRANCH  18  22
HETATM   22  O5  UNL     1      20.891  16.469  20.552  1.00  0.00    -0.286 OA
ATOM     23  H5  UNL     1      21.138  15.642  20.948  1.00  0.00     0.244 HD
ENDBRANCH  18  22
ENDBRANCH  16  17
ENDBRANCH  14  16
ENDBRANCH  11  12
ENDBRANCH   8  11
ENDBRANCH   7   8
ENDBRANCH   4   7
ENDBRANCH   3   4
TORSDOF 9
ENDMDL
MODEL 4
REMARK VINA RESULT: -6.593190865      1.197      1.395
REMARK  9 active torsions:
REMARK  status: ('A' for Active; 'I' for Inactive)
REMARK    1  A    between atoms: C3_3  and  C4_4 
REMARK    2  A    between atoms: C4_4  and  O1_7 
REMARK    3  A    between atoms: O1_7  and  C7_8 
REMARK    4  A    between atoms: C7_8  and  C10_11 
REMARK    5  A    between atoms: C10_11  and  C11_12 
REMARK       I    between atoms: C11_12  and  N1_14 
REMARK    6  A    between atoms: N1_14  and  O3_16 
REMARK    7  A    between atoms: O3_16  and  C12_17 
REMARK    8  A    between atoms: C12_17  and  O4_18 
REMARK    9  A    between atoms: N2_20  and  O5_22 
ROOT
HETATM    1  C1  UNL     1      18.472  18.620  17.847  1.00  0.00     0.112 C 
HETATM    2  C2  UNL     1      17.173  17.979  17.566  1.00  0.00    -0.108 C 
HETATM    3  C3  UNL     1      16.114  17.428  17.336  1.00  0.00    -0.069 C 
ENDROOT
BRANCH   3   4
HETATM    4  C4  UNL     1      14.845  16.711  17.045  1.00  0.00     0.117 C 
HETATM    5  C5  UNL     1      15.046  16.148  15.614  1.00  0.00     0.060 C 
HETATM    6  C6  UNL     1      13.832  17.809  16.832  1.00  0.00     0.060 C 
BRANCH   4   7
HETATM    7  O1  UNL     1      14.629  15.740  17.831  1.00  0.00    -0.358 OA
BRANCH   7   8
HETATM    8  C7  UNL     1      13.650  15.310  18.616  1.00  0.00     0.064 C 
HETATM    9  C8  UNL     1      14.183  14.087  19.332  1.00  0.00     0.046 C 
HETATM   10  C9  UNL     1      12.477  14.763  17.772  1.00  0.00     0.046 C 
BRANCH   8  11
HETATM   11  C10 UNL     1      13.194  16.262  19.651  1.00  0.00     0.142 C 
BRANCH  11  12
HETATM   12  C11 UNL     1      14.062  16.476  20.816  1.00  0.00     0.244 C 
HETATM   13  O2  UNL     1      15.149  17.073  20.633  1.00  0.00    -0.271 OA
HETATM   14  N1  UNL     1      13.778  16.063  22.137  1.00  0.00    -0.225 N 
ATOM     15  H1  UNL     1      12.907  15.572  22.346  1.00  0.00     0.198 HD
BRANCH  14  16
HETATM   16  O3  UNL     1      14.673  16.322  23.129  1.00  0.00    -0.190 OA
BRANCH  16  17
HETATM   17  C12 UNL     1      14.615  17.336  24.047  1.00  0.00     0.305 C 
HETATM   18  N2  UNL     1      13.485  17.526  24.649  1.00  0.00    -0.225 N 
ATOM     19  H2  UNL     1      12.664  16.952  24.460  1.00  0.00     0.198 HD
BRANCH  17  20
HETATM   20  O4  UNL     1      15.757  18.093  24.275  1.00  0.00    -0.324 OA
ATOM     21  H4  UNL     1      16.565  17.644  24.496  1.00  0.00     0.221 HD
ENDBRANCH  17  20
BRANCH  18  22
HETATM   22  O5  UNL     1      13.469  18.564  25.571  1.00  0.00    -0.286 OA
ATOM     23  H5  UNL     1      13.105  18.348  26.421  1.00  0.00     0.244 HD
ENDBRANCH  18  22
ENDBRANCH  16  17
ENDBRANCH  14  16
ENDBRANCH  11  12
ENDBRANCH   8  11
ENDBRANCH   7   8
ENDBRANCH   4   7
ENDBRANCH   3   4
TORSDOF 9
ENDMDL
MODEL 5
REMARK VINA RESULT: -6.578322903      3.596      4.868
REMARK  9 active torsions:
REMARK  status: ('A' for Active; 'I' for Inactive)
REMARK    1  A    between atoms: C3_3  and  C4_4 
REMARK    2  A    between atoms: C4_4  and  O1_7 
REMARK    3  A    between atoms: O1_7  and  C7_8 
REMARK    4  A    between atoms: C7_8  and  C10_11 
REMARK    5  A    between atoms: C10_11  and  C11_12 
REMARK       I    between atoms: C11_12  and  N1_14 
REMARK    6  A    between atoms: N1_14  and  O3_16 
REMARK    7  A    between atoms: O3_16  and  C12_17 
REMARK    8  A    between atoms: C12_17  and  O4_18 
REMARK    9  A    between atoms: N2_20  and  O5_22 
ROOT
HETATM    1  C1  UNL     1      15.602  16.605  13.289  1.00  0.00     0.112 C 
HETATM    2  C2  UNL     1      14.754  16.344  14.469  1.00  0.00    -0.108 C 
HETATM    3  C3  UNL     1      14.034  16.134  15.426  1.00  0.00    -0.069 C 
ENDROOT
BRANCH   3   4
HETATM    4  C4  UNL     1      13.117  15.899  16.571  1.00  0.00     0.117 C 
HETATM    5  C5  UNL     1      12.031  14.951  15.998  1.00  0.00     0.060 C 
HETATM    6  C6  UNL     1      12.371  17.201  16.730  1.00  0.00     0.060 C 
BRANCH   4   7
HETATM    7  O1  UNL     1      13.678  15.321  17.550  1.00  0.00    -0.358 OA
BRANCH   7   8
HETATM    8  C7  UNL     1      14.265  15.664  18.689  1.00  0.00     0.064 C 
HETATM    9  C8  UNL     1      15.147  14.497  19.082  1.00  0.00     0.046 C 
HETATM   10  C9  UNL     1      13.229  15.746  19.832  1.00  0.00     0.046 C 
BRANCH   8  11
HETATM   11  C10 UNL     1      15.125  16.865  18.629  1.00  0.00     0.142 C 
BRANCH  11  12
HETATM   12  C11 UNL     1      16.122  17.048  19.691  1.00  0.00     0.244 C 
HETATM   13  O2  UNL     1      15.710  17.366  20.831  1.00  0.00    -0.271 OA
HETATM   14  N1  UNL     1      17.519  16.898  19.538  1.00  0.00    -0.225 N 
ATOM     15  H1  UNL     1      17.912  16.640  18.632  1.00  0.00     0.198 HD
BRANCH  14  16
HETATM   16  O3  UNL     1      18.337  17.101  20.607  1.00  0.00    -0.190 OA
BRANCH  16  17
HETATM   17  C12 UNL     1      19.707  17.106  20.607  1.00  0.00     0.305 C 
HETATM   18  N2  UNL     1      20.303  15.958  20.567  1.00  0.00    -0.225 N 
ATOM     19  H2  UNL     1      19.789  15.078  20.534  1.00  0.00     0.198 HD
BRANCH  17  20
HETATM   20  O4  UNL     1      20.367  18.327  20.651  1.00  0.00    -0.324 OA
ATOM     21  H4  UNL     1      19.855  19.125  20.582  1.00  0.00     0.221 HD
ENDBRANCH  17  20
BRANCH  18  22
HETATM   22  O5  UNL     1      21.690  16.008  20.569  1.00  0.00    -0.286 OA
ATOM     23  H5  UNL     1      22.127  15.178  20.720  1.00  0.00     0.244 HD
ENDBRANCH  18  22
ENDBRANCH  16  17
ENDBRANCH  14  16
ENDBRANCH  11  12
ENDBRANCH   8  11
ENDBRANCH   7   8
ENDBRANCH   4   7
ENDBRANCH   3   4
TORSDOF 9
ENDMDL
