MODEL 1
REMARK VINA RESULT: -6.056574237      0.000      0.000
REMARK  7 active torsions:
REMARK  status: ('A' for Active; 'I' for Inactive)
REMARK    1  A    between atoms: C3_3  and  C5_5 
REMARK    2  A    between atoms: C5_5  and  O1_6 
REMARK    3  A    between atoms: C5_5  and  C6_8 
REMARK    4  A    between atoms: C6_8  and  C7_9 
REMARK    5  A    between atoms: C6_8  and  N1_14 
REMARK    6  A    between atoms: C11_15  and  O3_16 
REMARK    7  A    between atoms: C14_20  and  O4_21 
ROOT
HETATM    1  C1  UNL     1      17.241  17.455  20.077  1.00  0.00     0.012 C 
HETATM    2  C2  UNL     1      16.627  17.613  19.064  1.00  0.00    -0.110 C 
HETATM    3  C3  UNL     1      15.877  17.783  17.855  1.00  0.00     0.091 C 
HETATM    4  C4  UNL     1      16.886  17.905  16.707  1.00  0.00     0.026 C 
ENDROOT
BRANCH   3   5
HETATM    5  C5  UNL     1      14.896  16.728  17.523  1.00  0.00     0.159 C 
BRANCH   5   6
HETATM    6  O1  UNL     1      15.125  16.325  16.200  1.00  0.00    -0.392 OA
ATOM      7  H1  UNL     1      14.285  16.264  15.763  1.00  0.00     0.210 HD
ENDBRANCH   5   6
BRANCH   5   8
HETATM    8  C6  UNL     1      13.457  17.023  17.702  1.00  0.00     0.153 C 
BRANCH   8   9
HETATM    9  C7  UNL     1      12.975  16.170  18.892  1.00  0.00     0.147 C 
HETATM   10  C8  UNL     1      12.966  16.958  20.155  1.00  0.00     0.036 C 
HETATM   11  C9  UNL     1      13.851  16.189  21.095  1.00  0.00     0.029 C 
HETATM   12  C10 UNL     1      14.092  14.899  20.353  1.00  0.00     0.168 C 
HETATM   13  O2  UNL     1      13.898  15.145  19.020  1.00  0.00    -0.384 OA
ENDBRANCH   8   9
BRANCH   8  14
HETATM   14  N1  UNL     1      12.617  16.783  16.559  1.00  0.00    -0.299 N 
HETATM   15  C11 UNL     1      12.038  17.746  15.780  1.00  0.00     0.144 A 
HETATM   16  C12 UNL     1      11.302  17.181  14.789  1.00  0.00     0.060 A 
HETATM   17  C13 UNL     1      11.400  15.835  14.925  1.00  0.00     0.060 A 
HETATM   18  C14 UNL     1      12.222  15.618  16.031  1.00  0.00     0.144 A 
BRANCH  15  19
HETATM   19  O3  UNL     1      12.170  19.112  15.959  1.00  0.00    -0.346 OA
ATOM     20  H3  UNL     1      12.495  19.724  15.310  1.00  0.00     0.219 HD
ENDBRANCH  15  19
BRANCH  18  21
HETATM   21  O4  UNL     1      12.530  14.356  16.453  1.00  0.00    -0.346 OA
ATOM     22  H4  UNL     1      11.990  13.575  16.407  1.00  0.00     0.219 HD
ENDBRANCH  18  21
ENDBRANCH   8  14
ENDBRANCH   5   8
ENDBRANCH   3   5
TORSDOF 7
ENDMDL
MODEL 2
REMARK VINA RESULT: -5.928491773      0.090      1.762
REMARK  7 active torsions:
REMARK  status: ('A' for Active; 'I' for Inactive)
REMARK    1  A    between atoms: C3_3  and  C5_5 
REMARK    2  A    between atoms: C5_5  and  O1_6 
REMARK    3  A    between atoms: C5_5  and  C6_8 
REMARK    4  A    between atoms: C6_8  and  C7_9 
REMARK    5  A    between atoms: C6_8  and  N1_14 
REMARK    6  A    between atoms: C11_15  and  O3_16 
REMARK    7  A    between atoms: C14_20  and  O4_21 
ROOT
HETATM    1  C1  UNL     1      17.258  17.400  20.001  1.00  0.00     0.012 C 
HETATM    2  C2  UNL     1      16.644  17.592  18.994  1.00  0.00    -0.110 C 
HETATM    3  C3  UNL     1      15.893  17.803  17.791  1.00  0.00     0.091 C 
HETATM    4  C4  UNL     1      16.899  17.934  16.643  1.00  0.00     0.026 C 
ENDROOT
BRANCH   3   5
HETATM    5  C5  UNL     1      14.892  16.773  17.440  1.00  0.00     0.159 C 
BRANCH   5   6
HETATM    6  O1  UNL     1      15.095  16.414  16.100  1.00  0.00    -0.392 OA
ATOM      7  H1  UNL     1      14.812  17.139  15.556  1.00  0.00     0.210 HD
ENDBRANCH   5   6
BRANCH   5   8
HETATM    8  C6  UNL     1      13.460  17.081  17.652  1.00  0.00     0.153 C 
BRANCH   8   9
HETATM    9  C7  UNL     1      12.987  16.198  18.824  1.00  0.00     0.147 C 
HETATM   10  C8  UNL     1      12.947  16.967  20.099  1.00  0.00     0.036 C 
HETATM   11  C9  UNL     1      13.840  16.206  21.037  1.00  0.00     0.029 C 
HETATM   12  C10 UNL     1      14.120  14.932  20.278  1.00  0.00     0.168 C 
HETATM   13  O2  UNL     1      13.933  15.194  18.946  1.00  0.00    -0.384 OA
ENDBRANCH   8   9
BRANCH   8  14
HETATM   14  N1  UNL     1      12.597  16.886  16.517  1.00  0.00    -0.299 N 
HETATM   15  C11 UNL     1      12.212  15.677  16.010  1.00  0.00     0.144 A 
HETATM   16  C12 UNL     1      11.403  15.847  14.933  1.00  0.00     0.060 A 
HETATM   17  C13 UNL     1      11.261  17.181  14.735  1.00  0.00     0.060 A 
HETATM   18  C14 UNL     1      12.014  17.800  15.733  1.00  0.00     0.144 A 
BRANCH  15  19
HETATM   19  O3  UNL     1      12.582  14.440  16.508  1.00  0.00    -0.346 OA
ATOM     20  H3  UNL     1      12.601  13.630  16.014  1.00  0.00     0.219 HD
ENDBRANCH  15  19
BRANCH  18  21
HETATM   21  O4  UNL     1      12.092  19.161  15.825  1.00  0.00    -0.346 OA
ATOM     22  H4  UNL     1      12.842  19.688  16.077  1.00  0.00     0.219 HD
ENDBRANCH  18  21
ENDBRANCH   8  14
ENDBRANCH   5   8
ENDBRANCH   3   5
TORSDOF 7
ENDMDL
MODEL 3
REMARK VINA RESULT: -5.917701576      0.662      1.471
REMARK  7 active torsions:
REMARK  status: ('A' for Active; 'I' for Inactive)
REMARK    1  A    between atoms: C3_3  and  C5_5 
REMARK    2  A    between atoms: C5_5  and  O1_6 
REMARK    3  A    between atoms: C5_5  and  C6_8 
REMARK    4  A    between atoms: C6_8  and  C7_9 
REMARK    5  A    between atoms: C6_8  and  N1_14 
REMARK    6  A    between atoms: C11_15  and  O3_16 
REMARK    7  A    between atoms: C14_20  and  O4_21 
ROOT
HETATM    1  C1  UNL     1      15.850  19.027  15.469  1.00  0.00     0.012 C 
HETATM    2  C2  UNL     1      15.948  18.145  16.269  1.00  0.00    -0.110 C 
HETATM    3  C3  UNL     1      16.044  17.078  17.220  1.00  0.00     0.091 C 
HETATM    4  C4  UNL     1      16.306  17.711  18.591  1.00  0.00     0.026 C 
ENDROOT
BRANCH   3   5
HETATM    5  C5  UNL     1      14.883  16.169  17.324  1.00  0.00     0.159 C 
BRANCH   5   6
HETATM    6  O1  UNL     1      14.853  15.372  16.171  1.00  0.00    -0.392 OA
ATOM      7  H1  UNL     1      14.049  15.564  15.703  1.00  0.00     0.210 HD
ENDBRANCH   5   6
BRANCH   5   8
HETATM    8  C6  UNL     1      13.544  16.759  17.545  1.00  0.00     0.153 C 
BRANCH   8   9
HETATM    9  C7  UNL     1      12.950  16.058  18.782  1.00  0.00     0.147 C 
HETATM   10  C8  UNL     1      13.097  16.898  20.003  1.00  0.00     0.036 C 
HETATM   11  C9  UNL     1      13.860  16.040  20.972  1.00  0.00     0.029 C 
HETATM   12  C10 UNL     1      13.869  14.692  20.296  1.00  0.00     0.168 C 
HETATM   13  O2  UNL     1      13.692  14.901  18.954  1.00  0.00    -0.384 OA
ENDBRANCH   8   9
BRANCH   8  14
HETATM   14  N1  UNL     1      12.623  16.665  16.444  1.00  0.00    -0.299 N 
HETATM   15  C11 UNL     1      12.109  17.720  15.743  1.00  0.00     0.144 A 
HETATM   16  C12 UNL     1      11.265  17.284  14.773  1.00  0.00     0.060 A 
HETATM   17  C13 UNL     1      11.227  15.930  14.843  1.00  0.00     0.060 A 
HETATM   18  C14 UNL     1      12.079  15.574  15.889  1.00  0.00     0.144 A 
BRANCH  15  19
HETATM   19  O3  UNL     1      12.394  19.054  15.973  1.00  0.00    -0.346 OA
ATOM     20  H3  UNL     1      12.010  19.788  15.510  1.00  0.00     0.219 HD
ENDBRANCH  15  19
BRANCH  18  21
HETATM   21  O4  UNL     1      12.274  14.268  16.236  1.00  0.00    -0.346 OA
ATOM     22  H4  UNL     1      11.671  13.685  16.684  1.00  0.00     0.219 HD
ENDBRANCH  18  21
ENDBRANCH   8  14
ENDBRANCH   5   8
ENDBRANCH   3   5
TORSDOF 7
ENDMDL
MODEL 4
REMARK VINA RESULT: -5.863041726      2.208      5.565
REMARK  7 active torsions:
REMARK  status: ('A' for Active; 'I' for Inactive)
REMARK    1  A    between atoms: C3_3  and  C5_5 
REMARK    2  A    between atoms: C5_5  and  O1_6 
REMARK    3  A    between atoms: C5_5  and  C6_8 
REMARK    4  A    between atoms: C6_8  and  C7_9 
REMARK    5  A    between atoms: C6_8  and  N1_14 
REMARK    6  A    between atoms: C11_15  and  O3_16 
REMARK    7  A    between atoms: C14_20  and  O4_21 
ROOT
HETATM    1  C1  UNL     1      11.735  14.828  15.678  1.00  0.00     0.012 C 
HETATM    2  C2  UNL     1      12.412  15.131  16.615  1.00  0.00    -0.110 C 
HETATM    3  C3  UNL     1      13.242  15.501  17.723  1.00  0.00     0.091 C 
HETATM    4  C4  UNL     1      13.243  14.323  18.704  1.00  0.00     0.026 C 
ENDROOT
BRANCH   3   5
HETATM    5  C5  UNL     1      14.640  15.873  17.416  1.00  0.00     0.159 C 
BRANCH   5   6
HETATM    6  O1  UNL     1      15.482  15.070  18.198  1.00  0.00    -0.392 OA
ATOM      7  H1  UNL     1      15.044  14.241  18.345  1.00  0.00     0.210 HD
ENDBRANCH   5   6
BRANCH   5   8
HETATM    8  C6  UNL     1      15.040  17.290  17.564  1.00  0.00     0.153 C 
BRANCH   8   9
HETATM    9  C7  UNL     1      15.238  17.844  16.139  1.00  0.00     0.147 C 
HETATM   10  C8  UNL     1      14.017  18.545  15.655  1.00  0.00     0.036 C 
HETATM   11  C9  UNL     1      13.644  17.839  14.383  1.00  0.00     0.029 C 
HETATM   12  C10 UNL     1      14.834  16.948  14.130  1.00  0.00     0.168 C 
HETATM   13  O2  UNL     1      15.459  16.740  15.331  1.00  0.00    -0.384 OA
ENDBRANCH   8   9
BRANCH   8  14
HETATM   14  N1  UNL     1      16.221  17.534  18.349  1.00  0.00    -0.299 N 
HETATM   15  C11 UNL     1      16.301  17.455  19.711  1.00  0.00     0.144 A 
HETATM   16  C12 UNL     1      17.556  17.752  20.134  1.00  0.00     0.060 A 
HETATM   17  C13 UNL     1      18.302  18.030  19.036  1.00  0.00     0.060 A 
HETATM   18  C14 UNL     1      17.446  17.887  17.943  1.00  0.00     0.144 A 
BRANCH  15  19
HETATM   19  O3  UNL     1      15.261  17.120  20.560  1.00  0.00    -0.346 OA
ATOM     20  H3  UNL     1      15.238  17.283  21.495  1.00  0.00     0.219 HD
ENDBRANCH  15  19
BRANCH  18  21
HETATM   21  O4  UNL     1      17.881  18.099  16.666  1.00  0.00    -0.346 OA
ATOM     22  H4  UNL     1      17.937  17.471  15.954  1.00  0.00     0.219 HD
ENDBRANCH  18  21
ENDBRANCH   8  14
ENDBRANCH   5   8
ENDBRANCH   3   5
TORSDOF 7
ENDMDL
MODEL 5
REMARK VINA RESULT: -5.768902001      2.012      5.252
REMARK  7 active torsions:
REMARK  status: ('A' for Active; 'I' for Inactive)
REMARK    1  A    between atoms: C3_3  and  C5_5 
REMARK    2  A    between atoms: C5_5  and  O1_6 
REMARK    3  A    between atoms: C5_5  and  C6_8 
REMARK    4  A    between atoms: C6_8  and  C7_9 
REMARK    5  A    between atoms: C6_8  and  N1_14 
REMARK    6  A    between atoms: C11_15  and  O3_16 
REMARK    7  A    between atoms: C14_20  and  O4_21 
ROOT
HETATM    1  C1  UNL     1      12.432  17.243  20.141  1.00  0.00     0.012 C 
HETATM    2  C2  UNL     1      12.938  16.396  19.466  1.00  0.00    -0.110 C 
HETATM    3  C3  UNL     1      13.563  15.396  18.652  1.00  0.00     0.091 C 
HETATM    4  C4  UNL     1      12.512  14.899  17.654  1.00  0.00     0.026 C 
ENDROOT
BRANCH   3   5
HETATM    5  C5  UNL     1      14.777  15.800  17.912  1.00  0.00     0.159 C 
BRANCH   5   6
HETATM    6  O1  UNL     1      15.866  15.102  18.453  1.00  0.00    -0.392 OA
ATOM      7  H1  UNL     1      16.472  14.914  17.747  1.00  0.00     0.210 HD
ENDBRANCH   5   6
BRANCH   5   8
HETATM    8  C6  UNL     1      15.109  17.241  17.836  1.00  0.00     0.153 C 
BRANCH   8   9
HETATM    9  C7  UNL     1      14.950  17.654  16.360  1.00  0.00     0.147 C 
HETATM   10  C8  UNL     1      13.594  18.209  16.095  1.00  0.00     0.036 C 
HETATM   11  C9  UNL     1      13.031  17.348  15.001  1.00  0.00     0.029 C 
HETATM   12  C10 UNL     1      14.220  16.524  14.574  1.00  0.00     0.168 C 
HETATM   13  O2  UNL     1      15.099  16.491  15.623  1.00  0.00    -0.384 OA
ENDBRANCH   8   9
BRANCH   8  14
HETATM   14  N1  UNL     1      16.416  17.613  18.308  1.00  0.00    -0.299 N 
HETATM   15  C11 UNL     1      16.810  17.648  19.616  1.00  0.00     0.144 A 
HETATM   16  C12 UNL     1      18.103  18.049  19.715  1.00  0.00     0.060 A 
HETATM   17  C13 UNL     1      18.557  18.278  18.458  1.00  0.00     0.060 A 
HETATM   18  C14 UNL     1      17.488  18.000  17.606  1.00  0.00     0.144 A 
BRANCH  15  19
HETATM   19  O3  UNL     1      16.018  17.326  20.704  1.00  0.00    -0.346 OA
ATOM     20  H3  UNL     1      15.068  17.350  20.722  1.00  0.00     0.219 HD
ENDBRANCH  15  19
BRANCH  18  21
HETATM   21  O4  UNL     1      17.604  18.132  16.251  1.00  0.00    -0.346 OA
ATOM     22  H4  UNL     1      18.241  18.644  15.766  1.00  0.00     0.219 HD
ENDBRANCH  18  21
ENDBRANCH   8  14
ENDBRANCH   5   8
ENDBRANCH   3   5
TORSDOF 7
ENDMDL
