MODEL 1
REMARK VINA RESULT: -9.498843004      0.000      0.000
REMARK  13 active torsions:
REMARK  status: ('A' for Active; 'I' for Inactive)
REMARK    1  A    between atoms: O1_2  and  C2_3 
REMARK    2  A    between atoms: N1_7  and  C6_8 
REMARK    3  A    between atoms: C6_8  and  C7_9 
REMARK    4  A    between atoms: C11_15  and  C12_16 
REMARK       I    between atoms: C12_16  and  N3_18 
REMARK    5  A    between atoms: N3_18  and  C13_20 
REMARK    6  A    between atoms: C13_20  and  C14_21 
REMARK    7  A    between atoms: C13_20  and  C18_31 
REMARK    8  A    between atoms: C14_21  and  C15_22 
REMARK    9  A    between atoms: C15_22  and  C16_23 
REMARK   10  A    between atoms: C16_23  and  N4_24 
REMARK       I    between atoms: N4_24  and  C17_26 
REMARK   11  A    between atoms: C26_41  and  C27_42 
REMARK   12  A    between atoms: C27_42  and  O4_43 
REMARK   13  A    between atoms: C27_42  and  N8_45 
ROOT
HETATM    1  C7  UNL     1       5.082  -1.999  14.855  1.00  0.00     0.107 C 
HETATM    2  N2  UNL     1       5.507  -0.740  15.319  1.00  0.00    -0.411 N 
ATOM      3  H2  UNL     1       6.081  -0.682  16.159  1.00  0.00     0.154 HD
HETATM    4  C8  UNL     1       5.153   0.429  14.646  1.00  0.00     0.081 C 
HETATM    5  C9  UNL     1       6.322   0.938  13.804  1.00  0.00     0.026 C 
HETATM    6  C10 UNL     1       5.703   1.403  12.516  1.00  0.00     0.016 C 
HETATM    7  C11 UNL     1       4.218   1.582  12.864  1.00  0.00     0.084 C 
HETATM    8  C19 UNL     1       3.976   0.357  13.728  1.00  0.00     0.021 C 
HETATM    9  C20 UNL     1       3.884  -0.882  12.927  1.00  0.00     0.014 C 
HETATM   10  C21 UNL     1       4.638  -2.063  13.413  1.00  0.00     0.006 C 
HETATM   11  C22 UNL     1       5.786  -2.451  12.473  1.00  0.00     0.012 C 
ENDROOT
BRANCH   1  12
HETATM   12  C6  UNL     1       4.036  -2.667  15.697  1.00  0.00     0.268 C 
BRANCH  12  13
HETATM   13  N1  UNL     1       4.189  -4.076  15.895  1.00  0.00    -0.045 N 
HETATM   14  C5  UNL     1       5.508  -4.425  15.347  1.00  0.00     0.243 C 
HETATM   15  C4  UNL     1       6.342  -4.960  16.477  1.00  0.00     0.037 C 
HETATM   16  C3  UNL     1       5.296  -5.466  17.447  1.00  0.00     0.043 C 
HETATM   17  C2  UNL     1       4.976  -6.906  17.225  1.00  0.00     0.138 C 
HETATM   18  C33 UNL     1       4.254  -4.446  17.293  1.00  0.00     0.250 C 
HETATM   19  C26 UNL     1       3.578  -7.235  16.930  1.00  0.00     0.093 C 
HETATM   20  C25 UNL     1       3.385  -7.381  15.427  1.00  0.00     0.044 C 
HETATM   21  C24 UNL     1       2.893  -6.051  14.916  1.00  0.00    -0.001 C 
HETATM   22  C23 UNL     1       3.246  -4.787  15.134  1.00  0.00     0.198 C 
BRANCH  17  23
HETATM   23  O1  UNL     1       5.408  -7.603  18.359  1.00  0.00    -0.389 OA
HETATM   24  C1  UNL     1       6.575  -8.298  18.181  1.00  0.00     0.202 C 
ENDBRANCH  17  23
BRANCH  19  25
HETATM   25  C27 UNL     1       3.014  -8.445  17.564  1.00  0.00     0.120 C 
BRANCH  25  26
HETATM   26  O4  UNL     1       2.316  -8.223  18.648  1.00  0.00    -0.349 OA
ATOM     27  H4  UNL     1       2.342  -8.923  19.290  1.00  0.00     0.219 HD
ENDBRANCH  25  26
BRANCH  25  28
HETATM   28  N8  UNL     1       3.101  -9.779  17.207  1.00  0.00    -0.365 N 
HETATM   29  C28 UNL     1       4.070 -10.470  16.405  1.00  0.00     0.124 C 
HETATM   30  C29 UNL     1       3.386 -11.129  15.193  1.00  0.00     0.020 C 
HETATM   31  C30 UNL     1       2.482 -12.213  15.786  1.00  0.00     0.003 C 
HETATM   32  C31 UNL     1       1.415 -11.459  16.576  1.00  0.00     0.020 C 
HETATM   33  C32 UNL     1       2.037 -10.686  17.711  1.00  0.00     0.124 C 
ENDBRANCH  25  28
ENDBRANCH  19  25
ENDBRANCH  12  13
ENDBRANCH   1  12
BRANCH   7  34
HETATM   34  C12 UNL     1       3.358   1.680  11.693  1.00  0.00     0.223 C 
HETATM   35  O2  UNL     1       2.739   0.679  11.270  1.00  0.00    -0.273 OA
HETATM   36  N3  UNL     1       3.210   2.910  11.022  1.00  0.00    -0.348 N 
ATOM     37  H3  UNL     1       3.718   3.722  11.373  1.00  0.00     0.163 HD
BRANCH  36  38
HETATM   38  C13 UNL     1       2.362   3.071   9.849  1.00  0.00     0.173 C 
BRANCH  38  39
HETATM   39  C14 UNL     1       1.052   3.708  10.213  1.00  0.00     0.036 C 
BRANCH  39  40
HETATM   40  C15 UNL     1      -0.054   2.700  10.202  1.00  0.00     0.022 C 
BRANCH  40  41
HETATM   41  C16 UNL     1      -0.454   2.362  11.613  1.00  0.00     0.122 C 
BRANCH  41  42
HETATM   42  N4  UNL     1      -0.202   0.952  11.891  1.00  0.00    -0.365 N 
HETATM   43  C17 UNL     1      -0.458   0.446  13.191  1.00  0.00     0.181 C 
HETATM   44  N5  UNL     1      -1.487   0.839  13.827  1.00  0.00    -0.374 N 
HETATM   45  N6  UNL     1       0.457  -0.491  13.737  1.00  0.00    -0.064 NA
ATOM     46  H52 UNL     1      -2.144   1.512  13.434  1.00  0.00     0.158 HD
ATOM     47  H51 UNL     1      -1.671   0.475  14.762  1.00  0.00     0.158 HD
ATOM     48  H4  UNL     1       0.153   0.337  11.159  1.00  0.00     0.162 HD
ENDBRANCH  41  42
ENDBRANCH  40  41
ENDBRANCH  39  40
ENDBRANCH  38  39
BRANCH  38  49
HETATM   49  C18 UNL     1       3.043   4.042   8.919  1.00  0.00     0.254 C 
HETATM   50  N7  UNL     1       4.447   4.210   8.998  1.00  0.00    -0.060 NA
HETATM   51  O3  UNL     1       2.349   4.670   8.108  1.00  0.00    -0.275 OA
ENDBRANCH  38  49
ENDBRANCH  36  38
ENDBRANCH   7  34
TORSDOF 13
ENDMDL
MODEL 2
REMARK VINA RESULT: -9.487920976      2.791     11.013
REMARK  13 active torsions:
REMARK  status: ('A' for Active; 'I' for Inactive)
REMARK    1  A    between atoms: O1_2  and  C2_3 
REMARK    2  A    between atoms: N1_7  and  C6_8 
REMARK    3  A    between atoms: C6_8  and  C7_9 
REMARK    4  A    between atoms: C11_15  and  C12_16 
REMARK       I    between atoms: C12_16  and  N3_18 
REMARK    5  A    between atoms: N3_18  and  C13_20 
REMARK    6  A    between atoms: C13_20  and  C14_21 
REMARK    7  A    between atoms: C13_20  and  C18_31 
REMARK    8  A    between atoms: C14_21  and  C15_22 
REMARK    9  A    between atoms: C15_22  and  C16_23 
REMARK   10  A    between atoms: C16_23  and  N4_24 
REMARK       I    between atoms: N4_24  and  C17_26 
REMARK   11  A    between atoms: C26_41  and  C27_42 
REMARK   12  A    between atoms: C27_42  and  O4_43 
REMARK   13  A    between atoms: C27_42  and  N8_45 
ROOT
HETATM    1  C7  UNL     1       4.019  -3.801  15.613  1.00  0.00     0.107 C 
HETATM    2  N2  UNL     1       4.573  -4.034  16.886  1.00  0.00    -0.411 N 
ATOM      3  H2  UNL     1       4.978  -3.258  17.408  1.00  0.00     0.154 HD
HETATM    4  C8  UNL     1       4.578  -5.313  17.443  1.00  0.00     0.081 C 
HETATM    5  C9  UNL     1       3.470  -5.447  18.488  1.00  0.00     0.026 C 
HETATM    6  C10 UNL     1       2.892  -6.817  18.271  1.00  0.00     0.016 C 
HETATM    7  C11 UNL     1       3.977  -7.553  17.472  1.00  0.00     0.084 C 
HETATM    8  C19 UNL     1       4.410  -6.465  16.505  1.00  0.00     0.021 C 
HETATM    9  C20 UNL     1       3.423  -6.253  15.426  1.00  0.00     0.014 C 
HETATM   10  C21 UNL     1       3.062  -4.851  15.100  1.00  0.00     0.006 C 
HETATM   11  C22 UNL     1       1.606  -4.525  15.451  1.00  0.00     0.012 C 
ENDROOT
BRANCH   1  12
HETATM   12  C6  UNL     1       5.014  -3.505  14.532  1.00  0.00     0.268 C 
BRANCH  12  13
HETATM   13  N1  UNL     1       5.003  -2.172  14.010  1.00  0.00    -0.045 N 
HETATM   14  C5  UNL     1       6.017  -1.426  14.770  1.00  0.00     0.243 C 
HETATM   15  C4  UNL     1       7.068  -0.969  13.797  1.00  0.00     0.037 C 
HETATM   16  C3  UNL     1       6.309  -0.929  12.488  1.00  0.00     0.043 C 
HETATM   17  C2  UNL     1       5.719   0.415  12.223  1.00  0.00     0.138 C 
HETATM   18  C33 UNL     1       5.441  -2.102  12.631  1.00  0.00     0.250 C 
HETATM   19  C26 UNL     1       4.265   0.475  12.042  1.00  0.00     0.093 C 
HETATM   20  C25 UNL     1       3.596   0.888  13.345  1.00  0.00     0.044 C 
HETATM   21  C24 UNL     1       3.180  -0.379  14.047  1.00  0.00    -0.001 C 
HETATM   22  C23 UNL     1       3.773  -1.548  14.277  1.00  0.00     0.198 C 
BRANCH  17  23
HETATM   23  O1  UNL     1       6.369   0.935  11.098  1.00  0.00    -0.389 OA
HETATM   24  C1  UNL     1       7.717   0.691  11.064  1.00  0.00     0.202 C 
ENDBRANCH  17  23
BRANCH  19  25
HETATM   25  C27 UNL     1       3.747   1.365  10.982  1.00  0.00     0.120 C 
BRANCH  25  26
HETATM   26  O4  UNL     1       4.665   1.999  10.299  1.00  0.00    -0.349 OA
ATOM     27  H4  UNL     1       4.338   2.698   9.744  1.00  0.00     0.219 HD
ENDBRANCH  25  26
BRANCH  25  28
HETATM   28  N8  UNL     1       2.451   1.645  10.588  1.00  0.00    -0.365 N 
HETATM   29  C28 UNL     1       1.821   2.895  10.268  1.00  0.00     0.124 C 
HETATM   30  C29 UNL     1       0.624   3.143  11.205  1.00  0.00     0.020 C 
HETATM   31  C30 UNL     1      -0.394   2.057  10.848  1.00  0.00     0.003 C 
HETATM   32  C31 UNL     1       0.261   0.741  11.261  1.00  0.00     0.020 C 
HETATM   33  C32 UNL     1       1.516   0.495  10.464  1.00  0.00     0.124 C 
ENDBRANCH  25  28
ENDBRANCH  19  25
ENDBRANCH  12  13
ENDBRANCH   1  12
BRANCH   7  34
HETATM   34  C12 UNL     1       3.500  -8.774  16.838  1.00  0.00     0.223 C 
HETATM   35  O2  UNL     1       2.385  -9.255  17.137  1.00  0.00    -0.273 OA
HETATM   36  N3  UNL     1       4.292  -9.429  15.874  1.00  0.00    -0.348 N 
ATOM     37  H3  UNL     1       5.200  -9.031  15.635  1.00  0.00     0.163 HD
BRANCH  36  38
HETATM   38  C13 UNL     1       3.868 -10.650  15.203  1.00  0.00     0.173 C 
BRANCH  38  39
HETATM   39  C14 UNL     1       4.001 -10.522  13.713  1.00  0.00     0.036 C 
BRANCH  39  40
HETATM   40  C15 UNL     1       2.918 -11.282  13.012  1.00  0.00     0.022 C 
BRANCH  40  41
HETATM   41  C16 UNL     1       2.992 -11.029  11.530  1.00  0.00     0.122 C 
BRANCH  41  42
HETATM   42  N4  UNL     1       1.746 -11.425  10.882  1.00  0.00    -0.365 N 
HETATM   43  C17 UNL     1       0.921 -10.430  10.300  1.00  0.00     0.181 C 
HETATM   44  N5  UNL     1       1.454  -9.463   9.667  1.00  0.00    -0.374 N 
HETATM   45  N6  UNL     1      -0.485 -10.553  10.448  1.00  0.00    -0.064 NA
ATOM     46  H52 UNL     1       2.464  -9.375   9.560  1.00  0.00     0.158 HD
ATOM     47  H51 UNL     1       0.860  -8.747   9.248  1.00  0.00     0.158 HD
ATOM     48  H4  UNL     1       1.472 -12.407  10.848  1.00  0.00     0.162 HD
ENDBRANCH  41  42
ENDBRANCH  40  41
ENDBRANCH  39  40
ENDBRANCH  38  39
BRANCH  38  49
HETATM   49  C18 UNL     1       4.819 -11.749  15.604  1.00  0.00     0.254 C 
HETATM   50  N7  UNL     1       6.191 -11.449  15.783  1.00  0.00    -0.060 NA
HETATM   51  O3  UNL     1       4.367 -12.892  15.764  1.00  0.00    -0.275 OA
ENDBRANCH  38  49
ENDBRANCH  36  38
ENDBRANCH   7  34
TORSDOF 13
ENDMDL
MODEL 3
REMARK VINA RESULT: -9.370101837      2.441     11.848
REMARK  13 active torsions:
REMARK  status: ('A' for Active; 'I' for Inactive)
REMARK    1  A    between atoms: O1_2  and  C2_3 
REMARK    2  A    between atoms: N1_7  and  C6_8 
REMARK    3  A    between atoms: C6_8  and  C7_9 
REMARK    4  A    between atoms: C11_15  and  C12_16 
REMARK       I    between atoms: C12_16  and  N3_18 
REMARK    5  A    between atoms: N3_18  and  C13_20 
REMARK    6  A    between atoms: C13_20  and  C14_21 
REMARK    7  A    between atoms: C13_20  and  C18_31 
REMARK    8  A    between atoms: C14_21  and  C15_22 
REMARK    9  A    between atoms: C15_22  and  C16_23 
REMARK   10  A    between atoms: C16_23  and  N4_24 
REMARK       I    between atoms: N4_24  and  C17_26 
REMARK   11  A    between atoms: C26_41  and  C27_42 
REMARK   12  A    between atoms: C27_42  and  O4_43 
REMARK   13  A    between atoms: C27_42  and  N8_45 
ROOT
HETATM    1  C7  UNL     1       3.878  -3.950  15.715  1.00  0.00     0.107 C 
HETATM    2  N2  UNL     1       4.056  -3.934  17.112  1.00  0.00    -0.411 N 
ATOM      3  H2  UNL     1       4.003  -3.049  17.614  1.00  0.00     0.154 HD
HETATM    4  C8  UNL     1       4.303  -5.111  17.817  1.00  0.00     0.081 C 
HETATM    5  C9  UNL     1       3.033  -5.593  18.519  1.00  0.00     0.026 C 
HETATM    6  C10 UNL     1       3.030  -7.085  18.339  1.00  0.00     0.016 C 
HETATM    7  C11 UNL     1       4.486  -7.418  17.983  1.00  0.00     0.084 C 
HETATM    8  C19 UNL     1       4.818  -6.277  17.036  1.00  0.00     0.021 C 
HETATM    9  C20 UNL     1       4.201  -6.460  15.706  1.00  0.00     0.014 C 
HETATM   10  C21 UNL     1       3.524  -5.285  15.104  1.00  0.00     0.006 C 
HETATM   11  C22 UNL     1       2.008  -5.481  14.987  1.00  0.00     0.012 C 
ENDROOT
BRANCH   1  12
HETATM   12  C6  UNL     1       5.006  -3.358  14.925  1.00  0.00     0.268 C 
BRANCH  12  13
HETATM   13  N1  UNL     1       4.726  -2.127  14.250  1.00  0.00    -0.045 N 
HETATM   14  C5  UNL     1       5.649  -1.131  14.815  1.00  0.00     0.243 C 
HETATM   15  C4  UNL     1       6.531  -0.644  13.699  1.00  0.00     0.037 C 
HETATM   16  C3  UNL     1       5.682  -0.905  12.472  1.00  0.00     0.043 C 
HETATM   17  C2  UNL     1       4.851   0.278  12.105  1.00  0.00     0.138 C 
HETATM   18  C33 UNL     1       5.043  -2.173  12.837  1.00  0.00     0.250 C 
HETATM   19  C26 UNL     1       3.399   0.076  12.056  1.00  0.00     0.093 C 
HETATM   20  C25 UNL     1       2.766   0.547  13.357  1.00  0.00     0.044 C 
HETATM   21  C24 UNL     1       2.627  -0.665  14.243  1.00  0.00    -0.001 C 
HETATM   22  C23 UNL     1       3.429  -1.680  14.555  1.00  0.00     0.198 C 
BRANCH  17  23
HETATM   23  O1  UNL     1       5.317   0.740  10.869  1.00  0.00    -0.389 OA
HETATM   24  C1  UNL     1       6.291   1.700  10.958  1.00  0.00     0.202 C 
ENDBRANCH  17  23
BRANCH  19  25
HETATM   25  C27 UNL     1       2.659   0.719  10.950  1.00  0.00     0.120 C 
BRANCH  25  26
HETATM   26  O4  UNL     1       2.516  -0.022   9.880  1.00  0.00    -0.349 OA
ATOM     27  H4  UNL     1       2.008   0.377   9.184  1.00  0.00     0.219 HD
ENDBRANCH  25  26
BRANCH  25  28
HETATM   28  N8  UNL     1       2.090   1.975  10.851  1.00  0.00    -0.365 N 
HETATM   29  C28 UNL     1       0.752   2.420  11.125  1.00  0.00     0.124 C 
HETATM   30  C29 UNL     1       0.124   3.032   9.859  1.00  0.00     0.020 C 
HETATM   31  C30 UNL     1       0.939   4.298   9.582  1.00  0.00     0.003 C 
HETATM   32  C31 UNL     1       2.338   3.804   9.221  1.00  0.00     0.020 C 
HETATM   33  C32 UNL     1       2.967   3.082  10.385  1.00  0.00     0.124 C 
ENDBRANCH  25  28
ENDBRANCH  19  25
ENDBRANCH  12  13
ENDBRANCH   1  12
BRANCH   7  34
HETATM   34  C12 UNL     1       4.653  -8.747  17.415  1.00  0.00     0.223 C 
HETATM   35  O2  UNL     1       3.772  -9.242  16.678  1.00  0.00    -0.273 OA
HETATM   36  N3  UNL     1       5.816  -9.495  17.688  1.00  0.00    -0.348 N 
ATOM     37  H3  UNL     1       6.530  -9.085  18.289  1.00  0.00     0.163 HD
BRANCH  36  38
HETATM   38  C13 UNL     1       6.042 -10.828  17.146  1.00  0.00     0.173 C 
BRANCH  38  39
HETATM   39  C14 UNL     1       7.501 -11.063  16.882  1.00  0.00     0.036 C 
BRANCH  39  40
HETATM   40  C15 UNL     1       8.336 -10.590  18.031  1.00  0.00     0.022 C 
BRANCH  40  41
HETATM   41  C16 UNL     1       9.240  -9.474  17.581  1.00  0.00     0.122 C 
BRANCH  41  42
HETATM   42  N4  UNL     1       9.104  -8.319  18.463  1.00  0.00    -0.365 N 
HETATM   43  C17 UNL     1       8.929  -7.032  17.896  1.00  0.00     0.181 C 
HETATM   44  N5  UNL     1       8.184  -6.891  16.875  1.00  0.00    -0.374 N 
HETATM   45  N6  UNL     1       9.602  -5.937  18.499  1.00  0.00    -0.064 NA
ATOM     46  H52 UNL     1       7.701  -7.678  16.443  1.00  0.00     0.158 HD
ATOM     47  H51 UNL     1       8.058  -5.964  16.467  1.00  0.00     0.158 HD
ATOM     48  H4  UNL     1       9.134  -8.437  19.476  1.00  0.00     0.162 HD
ENDBRANCH  41  42
ENDBRANCH  40  41
ENDBRANCH  39  40
ENDBRANCH  38  39
BRANCH  38  49
HETATM   49  C18 UNL     1       5.653 -11.827  18.205  1.00  0.00     0.254 C 
HETATM   50  N7  UNL     1       5.123 -11.364  19.434  1.00  0.00    -0.060 NA
HETATM   51  O3  UNL     1       5.811 -13.032  17.968  1.00  0.00    -0.275 OA
ENDBRANCH  38  49
ENDBRANCH  36  38
ENDBRANCH   7  34
TORSDOF 13
ENDMDL
MODEL 4
REMARK VINA RESULT: -9.347868294      2.562     11.324
REMARK  13 active torsions:
REMARK  status: ('A' for Active; 'I' for Inactive)
REMARK    1  A    between atoms: O1_2  and  C2_3 
REMARK    2  A    between atoms: N1_7  and  C6_8 
REMARK    3  A    between atoms: C6_8  and  C7_9 
REMARK    4  A    between atoms: C11_15  and  C12_16 
REMARK       I    between atoms: C12_16  and  N3_18 
REMARK    5  A    between atoms: N3_18  and  C13_20 
REMARK    6  A    between atoms: C13_20  and  C14_21 
REMARK    7  A    between atoms: C13_20  and  C18_31 
REMARK    8  A    between atoms: C14_21  and  C15_22 
REMARK    9  A    between atoms: C15_22  and  C16_23 
REMARK   10  A    between atoms: C16_23  and  N4_24 
REMARK       I    between atoms: N4_24  and  C17_26 
REMARK   11  A    between atoms: C26_41  and  C27_42 
REMARK   12  A    between atoms: C27_42  and  O4_43 
REMARK   13  A    between atoms: C27_42  and  N8_45 
ROOT
HETATM    1  C7  UNL     1       3.756  -3.358  15.981  1.00  0.00     0.107 C 
HETATM    2  N2  UNL     1       3.533  -3.410  17.370  1.00  0.00    -0.411 N 
ATOM      3  H2  UNL     1       3.074  -2.627  17.834  1.00  0.00     0.154 HD
HETATM    4  C8  UNL     1       3.929  -4.517  18.120  1.00  0.00     0.081 C 
HETATM    5  C9  UNL     1       2.730  -5.412  18.430  1.00  0.00     0.026 C 
HETATM    6  C10 UNL     1       3.236  -6.817  18.260  1.00  0.00     0.016 C 
HETATM    7  C11 UNL     1       4.763  -6.671  18.336  1.00  0.00     0.084 C 
HETATM    8  C19 UNL     1       4.971  -5.407  17.521  1.00  0.00     0.021 C 
HETATM    9  C20 UNL     1       4.828  -5.649  16.070  1.00  0.00     0.014 C 
HETATM   10  C21 UNL     1       4.012  -4.680  15.297  1.00  0.00     0.006 C 
HETATM   11  C22 UNL     1       2.723  -5.305  14.752  1.00  0.00     0.012 C 
ENDROOT
BRANCH   1  12
HETATM   12  C6  UNL     1       4.817  -2.392  15.544  1.00  0.00     0.268 C 
BRANCH  12  13
HETATM   13  N1  UNL     1       4.405  -1.376  14.623  1.00  0.00    -0.045 N 
HETATM   14  C5  UNL     1       4.934  -0.109  15.149  1.00  0.00     0.243 C 
HETATM   15  C4  UNL     1       5.891   0.442  14.129  1.00  0.00     0.037 C 
HETATM   16  C3  UNL     1       5.400  -0.190  12.843  1.00  0.00     0.043 C 
HETATM   17  C2  UNL     1       4.413   0.676  12.136  1.00  0.00     0.138 C 
HETATM   18  C33 UNL     1       5.011  -1.521  13.316  1.00  0.00     0.250 C 
HETATM   19  C26 UNL     1       3.090   0.097  11.880  1.00  0.00     0.093 C 
HETATM   20  C25 UNL     1       2.108   0.551  12.951  1.00  0.00     0.044 C 
HETATM   21  C24 UNL     1       2.074  -0.528  14.003  1.00  0.00    -0.001 C 
HETATM   22  C23 UNL     1       3.006  -1.248  14.621  1.00  0.00     0.198 C 
BRANCH  17  23
HETATM   23  O1  UNL     1       5.004   1.079  10.934  1.00  0.00    -0.389 OA
HETATM   24  C1  UNL     1       5.639   2.291  10.998  1.00  0.00     0.202 C 
ENDBRANCH  17  23
BRANCH  19  25
HETATM   25  C27 UNL     1       2.466   0.373  10.569  1.00  0.00     0.120 C 
BRANCH  25  26
HETATM   26  O4  UNL     1       2.561  -0.600   9.699  1.00  0.00    -0.349 OA
ATOM     27  H4  UNL     1       1.803  -0.708   9.137  1.00  0.00     0.219 HD
ENDBRANCH  25  26
BRANCH  25  28
HETATM   28  N8  UNL     1       1.799   1.490  10.101  1.00  0.00    -0.365 N 
HETATM   29  C28 UNL     1       2.300   2.690   9.491  1.00  0.00     0.124 C 
HETATM   30  C29 UNL     1       1.896   3.920  10.326  1.00  0.00     0.020 C 
HETATM   31  C30 UNL     1       0.372   3.996  10.212  1.00  0.00     0.003 C 
HETATM   32  C31 UNL     1      -0.147   2.751  10.928  1.00  0.00     0.020 C 
HETATM   33  C32 UNL     1       0.318   1.499  10.228  1.00  0.00     0.124 C 
ENDBRANCH  25  28
ENDBRANCH  19  25
ENDBRANCH  12  13
ENDBRANCH   1  12
BRANCH   7  34
HETATM   34  C12 UNL     1       5.480  -7.838  17.843  1.00  0.00     0.223 C 
HETATM   35  O2  UNL     1       4.884  -8.729  17.200  1.00  0.00    -0.273 OA
HETATM   36  N3  UNL     1       6.862  -7.974  18.082  1.00  0.00    -0.348 N 
ATOM     37  H3  UNL     1       7.342  -7.243  18.606  1.00  0.00     0.163 HD
BRANCH  36  38
HETATM   38  C13 UNL     1       7.635  -9.115  17.610  1.00  0.00     0.173 C 
BRANCH  38  39
HETATM   39  C14 UNL     1       9.049  -8.718  17.299  1.00  0.00     0.036 C 
BRANCH  39  40
HETATM   40  C15 UNL     1       9.248  -7.248  17.498  1.00  0.00     0.022 C 
BRANCH  40  41
HETATM   41  C16 UNL     1      10.024  -6.675  16.343  1.00  0.00     0.122 C 
BRANCH  41  42
HETATM   42  N4  UNL     1       9.127  -6.326  15.247  1.00  0.00    -0.365 N 
HETATM   43  C17 UNL     1       9.085  -4.986  14.785  1.00  0.00     0.181 C 
HETATM   44  N5  UNL     1      10.165  -4.319  14.693  1.00  0.00    -0.374 N 
HETATM   45  N6  UNL     1       7.824  -4.435  14.439  1.00  0.00    -0.064 NA
ATOM     46  H52 UNL     1      11.070  -4.716  14.942  1.00  0.00     0.158 HD
ATOM     47  H51 UNL     1      10.135  -3.355  14.361  1.00  0.00     0.158 HD
ATOM     48  H4  UNL     1       8.536  -7.038  14.818  1.00  0.00     0.162 HD
ENDBRANCH  41  42
ENDBRANCH  40  41
ENDBRANCH  39  40
ENDBRANCH  38  39
BRANCH  38  49
HETATM   49  C18 UNL     1       7.729 -10.106  18.742  1.00  0.00     0.254 C 
HETATM   50  N7  UNL     1       8.705  -9.917  19.750  1.00  0.00    -0.060 NA
HETATM   51  O3  UNL     1       6.945 -11.065  18.755  1.00  0.00    -0.275 OA
ENDBRANCH  38  49
ENDBRANCH  36  38
ENDBRANCH   7  34
TORSDOF 13
ENDMDL
MODEL 5
REMARK VINA RESULT: -9.347261355      2.874     11.287
REMARK  13 active torsions:
REMARK  status: ('A' for Active; 'I' for Inactive)
REMARK    1  A    between atoms: O1_2  and  C2_3 
REMARK    2  A    between atoms: N1_7  and  C6_8 
REMARK    3  A    between atoms: C6_8  and  C7_9 
REMARK    4  A    between atoms: C11_15  and  C12_16 
REMARK       I    between atoms: C12_16  and  N3_18 
REMARK    5  A    between atoms: N3_18  and  C13_20 
REMARK    6  A    between atoms: C13_20  and  C14_21 
REMARK    7  A    between atoms: C13_20  and  C18_31 
REMARK    8  A    between atoms: C14_21  and  C15_22 
REMARK    9  A    between atoms: C15_22  and  C16_23 
REMARK   10  A    between atoms: C16_23  and  N4_24 
REMARK       I    between atoms: N4_24  and  C17_26 
REMARK   11  A    between atoms: C26_41  and  C27_42 
REMARK   12  A    between atoms: C27_42  and  O4_43 
REMARK   13  A    between atoms: C27_42  and  N8_45 
ROOT
HETATM    1  C7  UNL     1       3.989  -3.957  16.002  1.00  0.00     0.107 C 
HETATM    2  N2  UNL     1       4.577  -4.324  17.227  1.00  0.00    -0.411 N 
ATOM      3  H2  UNL     1       5.014  -3.610  17.808  1.00  0.00     0.154 HD
HETATM    4  C8  UNL     1       4.569  -5.651  17.657  1.00  0.00     0.081 C 
HETATM    5  C9  UNL     1       3.490  -5.864  18.719  1.00  0.00     0.026 C 
HETATM    6  C10 UNL     1       2.875  -7.195  18.389  1.00  0.00     0.016 C 
HETATM    7  C11 UNL     1       3.918  -7.871  17.488  1.00  0.00     0.084 C 
HETATM    8  C19 UNL     1       4.346  -6.702  16.618  1.00  0.00     0.021 C 
HETATM    9  C20 UNL     1       3.332  -6.366  15.596  1.00  0.00     0.014 C 
HETATM   10  C21 UNL     1       2.994  -4.932  15.420  1.00  0.00     0.006 C 
HETATM   11  C22 UNL     1       1.557  -4.613  15.848  1.00  0.00     0.012 C 
ENDROOT
BRANCH   1  12
HETATM   12  C6  UNL     1       4.958  -3.576  14.922  1.00  0.00     0.268 C 
BRANCH  12  13
HETATM   13  N1  UNL     1       4.718  -2.325  14.270  1.00  0.00    -0.045 N 
HETATM   14  C5  UNL     1       5.689  -1.376  14.836  1.00  0.00     0.243 C 
HETATM   15  C4  UNL     1       6.573  -0.908  13.713  1.00  0.00     0.037 C 
HETATM   16  C3  UNL     1       5.696  -1.115  12.496  1.00  0.00     0.043 C 
HETATM   17  C2  UNL     1       4.909   0.106  12.160  1.00  0.00     0.138 C 
HETATM   18  C33 UNL     1       5.012  -2.361  12.852  1.00  0.00     0.250 C 
HETATM   19  C26 UNL     1       3.449  -0.036  12.131  1.00  0.00     0.093 C 
HETATM   20  C25 UNL     1       2.855   0.439  13.449  1.00  0.00     0.044 C 
HETATM   21  C24 UNL     1       2.681  -0.779  14.318  1.00  0.00    -0.001 C 
HETATM   22  C23 UNL     1       3.445  -1.831  14.602  1.00  0.00     0.198 C 
BRANCH  17  23
HETATM   23  O1  UNL     1       5.373   0.568  10.924  1.00  0.00    -0.389 OA
HETATM   24  C1  UNL     1       6.377   1.497  11.012  1.00  0.00     0.202 C 
ENDBRANCH  17  23
BRANCH  19  25
HETATM   25  C27 UNL     1       2.718   0.653  11.047  1.00  0.00     0.120 C 
BRANCH  25  26
HETATM   26  O4  UNL     1       2.591  -0.039   9.943  1.00  0.00    -0.349 OA
ATOM     27  H4  UNL     1       2.768  -0.968  10.032  1.00  0.00     0.219 HD
ENDBRANCH  25  26
BRANCH  25  28
HETATM   28  N8  UNL     1       2.145   1.911  10.997  1.00  0.00    -0.365 N 
HETATM   29  C28 UNL     1       0.792   2.330  11.231  1.00  0.00     0.124 C 
HETATM   30  C29 UNL     1       0.224   3.019   9.975  1.00  0.00     0.020 C 
HETATM   31  C30 UNL     1       1.042   4.303   9.820  1.00  0.00     0.003 C 
HETATM   32  C31 UNL     1       2.462   3.840   9.501  1.00  0.00     0.020 C 
HETATM   33  C32 UNL     1       3.036   3.048  10.648  1.00  0.00     0.124 C 
ENDBRANCH  25  28
ENDBRANCH  19  25
ENDBRANCH  12  13
ENDBRANCH   1  12
BRANCH   7  34
HETATM   34  C12 UNL     1       3.394  -9.014  16.755  1.00  0.00     0.223 C 
HETATM   35  O2  UNL     1       2.268  -9.485  17.025  1.00  0.00    -0.273 OA
HETATM   36  N3  UNL     1       4.153  -9.605  15.724  1.00  0.00    -0.348 N 
ATOM     37  H3  UNL     1       5.071  -9.216  15.509  1.00  0.00     0.163 HD
BRANCH  36  38
HETATM   38  C13 UNL     1       3.682 -10.747  14.953  1.00  0.00     0.173 C 
BRANCH  38  39
HETATM   39  C14 UNL     1       4.053 -10.610  13.505  1.00  0.00     0.036 C 
BRANCH  39  40
HETATM   40  C15 UNL     1       2.948 -11.101  12.621  1.00  0.00     0.022 C 
BRANCH  40  41
HETATM   41  C16 UNL     1       3.344 -10.956  11.177  1.00  0.00     0.122 C 
BRANCH  41  42
HETATM   42  N4  UNL     1       2.405 -10.087  10.474  1.00  0.00    -0.365 N 
HETATM   43  C17 UNL     1       1.675 -10.603   9.373  1.00  0.00     0.181 C 
HETATM   44  N5  UNL     1       1.219 -11.790   9.423  1.00  0.00    -0.374 N 
HETATM   45  N6  UNL     1       1.480  -9.765   8.245  1.00  0.00    -0.064 NA
ATOM     46  H52 UNL     1       1.359 -12.392  10.233  1.00  0.00     0.158 HD
ATOM     47  H51 UNL     1       0.694 -12.161   8.631  1.00  0.00     0.158 HD
ATOM     48  H4  UNL     1       2.275  -9.120  10.771  1.00  0.00     0.162 HD
ENDBRANCH  41  42
ENDBRANCH  40  41
ENDBRANCH  39  40
ENDBRANCH  38  39
BRANCH  38  49
HETATM   49  C18 UNL     1       4.413 -11.969  15.447  1.00  0.00     0.254 C 
HETATM   50  N7  UNL     1       3.746 -13.217  15.464  1.00  0.00    -0.060 NA
HETATM   51  O3  UNL     1       5.585 -11.843  15.829  1.00  0.00    -0.275 OA
ENDBRANCH  38  49
ENDBRANCH  36  38
ENDBRANCH   7  34
TORSDOF 13
ENDMDL
