MODEL 1
REMARK VINA RESULT: -4.957151323      0.000      0.000
REMARK  14 active torsions:
REMARK  status: ('A' for Active; 'I' for Inactive)
REMARK    1  A    between atoms: C3_3  and  N1_4 
REMARK    2  A    between atoms: C4_5  and  O1_6 
REMARK    3  A    between atoms: N2_8  and  C5_9 
REMARK    4  A    between atoms: C5_9  and  C6_10 
REMARK    5  A    between atoms: C9_13  and  O2_14 
REMARK    6  A    between atoms: C10_16  and  C11_17 
REMARK    7  A    between atoms: C11_17  and  C12_18 
REMARK    8  A    between atoms: C16_25  and  C17_26 
REMARK    9  A    between atoms: C17_26  and  C18_27 
REMARK   10  A    between atoms: C24_38  and  O5_39 
REMARK   11  A    between atoms: C25_41  and  C26_42 
REMARK   12  A    between atoms: C26_42  and  C27_43 
REMARK   13  A    between atoms: C29_50  and  C30_51 
REMARK   14  A    between atoms: C30_51  and  C31_52 
ROOT
HETATM    1  C1  UNL     1       4.083 -11.015  14.688  1.00  0.00     0.098 C 
HETATM    2  C2  UNL     1       4.491 -10.363  15.640  1.00  0.00    -0.168 C 
HETATM    3  C3  UNL     1       4.959  -9.578  16.801  1.00  0.00     0.207 C 
ENDROOT
BRANCH   3   4
HETATM    4  N1  UNL     1       5.240 -10.510  17.954  1.00  0.00    -0.324 N 
HETATM    5  C4  UNL     1       4.227 -11.379  18.381  1.00  0.00     0.224 C 
HETATM    6  N2  UNL     1       3.872 -12.772  18.237  1.00  0.00    -0.295 N 
HETATM    7  C9  UNL     1       4.658 -13.888  18.053  1.00  0.00     0.144 C 
HETATM    8  C10 UNL     1       5.719 -14.624  18.844  1.00  0.00     0.160 C 
HETATM    9  N3  UNL     1       5.743 -16.022  18.378  1.00  0.00    -0.347 N 
HETATM   10  C15 UNL     1       6.731 -16.691  17.695  1.00  0.00     0.241 C 
ATOM     11  H3  UNL     1       4.909 -16.571  18.591  1.00  0.00     0.163 HD
HETATM   12  O3  UNL     1       6.723 -17.976  17.770  1.00  0.00    -0.271 OA
HETATM   13  C16 UNL     1       7.835 -16.152  16.863  1.00  0.00     0.177 C 
HETATM   14  N4  UNL     1       9.102 -16.789  17.118  1.00  0.00    -0.346 N 
HETATM   15  C21 UNL     1      10.347 -16.189  17.319  1.00  0.00     0.240 C 
ATOM     16  H4  UNL     1       9.089 -17.808  17.156  1.00  0.00     0.163 HD
HETATM   17  O4  UNL     1      11.327 -16.581  16.635  1.00  0.00    -0.271 OA
HETATM   18  C22 UNL     1      10.636 -15.080  18.312  1.00  0.00     0.171 C 
HETATM   19  C23 UNL     1       9.796 -15.245  19.530  1.00  0.00     0.042 C 
HETATM   20  N5  UNL     1      10.604 -13.800  17.663  1.00  0.00    -0.360 N 
HETATM   21  C24 UNL     1       9.805 -12.685  17.749  1.00  0.00     0.136 C 
ATOM     22  H5  UNL     1      11.350 -13.694  16.975  1.00  0.00     0.162 HD
HETATM   23  C25 UNL     1       9.552 -11.699  18.826  1.00  0.00     0.167 C 
HETATM   24  N7  UNL     1       8.313 -11.813  19.513  1.00  0.00    -0.347 N 
HETATM   25  C28 UNL     1       7.137 -11.076  19.462  1.00  0.00     0.241 C 
ATOM     26  H7  UNL     1       8.282 -12.590  20.174  1.00  0.00     0.163 HD
HETATM   27  O7  UNL     1       6.391 -11.085  20.515  1.00  0.00    -0.271 OA
HETATM   28  C29 UNL     1       6.597 -10.267  18.373  1.00  0.00     0.181 C 
BRANCH   5  29
HETATM   29  O1  UNL     1       3.346 -10.755  19.122  1.00  0.00    -0.332 OA
ATOM     30  H1  UNL     1       2.648 -11.340  19.394  1.00  0.00     0.221 HD
ENDBRANCH   5  29
BRANCH   6  31
HETATM   31  C5  UNL     1       2.386 -13.031  18.227  1.00  0.00     0.138 C 
BRANCH  31  32
HETATM   32  C6  UNL     1       1.595 -12.300  17.265  1.00  0.00    -0.004 C 
HETATM   33  C7  UNL     1       0.214 -11.857  17.692  1.00  0.00     0.011 C 
HETATM   34  C8  UNL     1       1.352 -13.268  16.085  1.00  0.00     0.011 C 
ENDBRANCH  31  32
ENDBRANCH   6  31
BRANCH   7  35
HETATM   35  O2  UNL     1       4.462 -14.492  16.913  1.00  0.00    -0.348 OA
ATOM     36  H2  UNL     1       5.193 -14.422  16.309  1.00  0.00     0.219 HD
ENDBRANCH   7  35
BRANCH   8  37
HETATM   37  C11 UNL     1       5.417 -14.642  20.290  1.00  0.00     0.037 C 
BRANCH  37  38
HETATM   38  C12 UNL     1       6.475 -14.676  21.296  1.00  0.00    -0.020 C 
HETATM   39  C13 UNL     1       5.894 -13.949  22.544  1.00  0.00     0.009 C 
HETATM   40  C14 UNL     1       6.894 -16.018  21.829  1.00  0.00     0.009 C 
ENDBRANCH  37  38
ENDBRANCH   8  37
BRANCH  13  41
HETATM   41  C17 UNL     1       7.463 -16.062  15.412  1.00  0.00     0.038 C 
BRANCH  41  42
HETATM   42  C18 UNL     1       7.931 -17.155  14.532  1.00  0.00    -0.020 C 
HETATM   43  C19 UNL     1       6.771 -17.482  13.570  1.00  0.00     0.009 C 
HETATM   44  C20 UNL     1       9.088 -16.773  13.633  1.00  0.00     0.009 C 
ENDBRANCH  41  42
ENDBRANCH  13  41
BRANCH  21  45
HETATM   45  O5  UNL     1       9.123 -12.424  16.671  1.00  0.00    -0.348 OA
ATOM     46  H5  UNL     1       8.290 -12.878  16.611  1.00  0.00     0.219 HD
ENDBRANCH  21  45
BRANCH  23  47
HETATM   47  C26 UNL     1      10.762 -11.550  19.733  1.00  0.00     0.133 C 
BRANCH  47  48
HETATM   48  C27 UNL     1      10.500 -11.607  21.157  1.00  0.00     0.233 C 
HETATM   49  N6  UNL     1      10.084 -10.410  21.806  1.00  0.00    -0.062 NA
HETATM   50  O6  UNL     1      10.622 -12.645  21.820  1.00  0.00    -0.277 OA
ENDBRANCH  47  48
ENDBRANCH  23  47
BRANCH  28  51
HETATM   51  C30 UNL     1       7.034  -8.886  18.676  1.00  0.00     0.039 C 
BRANCH  51  52
HETATM   52  C31 UNL     1       8.420  -8.428  18.485  1.00  0.00    -0.020 C 
HETATM   53  C32 UNL     1       8.764  -8.819  16.993  1.00  0.00     0.009 C 
HETATM   54  C33 UNL     1       8.722  -6.964  18.499  1.00  0.00     0.009 C 
ENDBRANCH  51  52
ENDBRANCH  28  51
ENDBRANCH   3   4
TORSDOF 14
ENDMDL
MODEL 2
REMARK VINA RESULT: -4.868003877      0.977      1.184
REMARK  14 active torsions:
REMARK  status: ('A' for Active; 'I' for Inactive)
REMARK    1  A    between atoms: C3_3  and  N1_4 
REMARK    2  A    between atoms: C4_5  and  O1_6 
REMARK    3  A    between atoms: N2_8  and  C5_9 
REMARK    4  A    between atoms: C5_9  and  C6_10 
REMARK    5  A    between atoms: C9_13  and  O2_14 
REMARK    6  A    between atoms: C10_16  and  C11_17 
REMARK    7  A    between atoms: C11_17  and  C12_18 
REMARK    8  A    between atoms: C16_25  and  C17_26 
REMARK    9  A    between atoms: C17_26  and  C18_27 
REMARK   10  A    between atoms: C24_38  and  O5_39 
REMARK   11  A    between atoms: C25_41  and  C26_42 
REMARK   12  A    between atoms: C26_42  and  C27_43 
REMARK   13  A    between atoms: C29_50  and  C30_51 
REMARK   14  A    between atoms: C30_51  and  C31_52 
ROOT
HETATM    1  C1  UNL     1       3.820 -11.059  14.438  1.00  0.00     0.098 C 
HETATM    2  C2  UNL     1       4.154 -10.325  15.360  1.00  0.00    -0.168 C 
HETATM    3  C3  UNL     1       4.533  -9.445  16.483  1.00  0.00     0.207 C 
ENDROOT
BRANCH   3   4
HETATM    4  N1  UNL     1       4.923 -10.290  17.671  1.00  0.00    -0.324 N 
HETATM    5  C4  UNL     1       3.947 -11.090  18.280  1.00  0.00     0.224 C 
HETATM    6  N2  UNL     1       3.548 -12.478  18.293  1.00  0.00    -0.295 N 
HETATM    7  C9  UNL     1       4.282 -13.630  18.115  1.00  0.00     0.144 C 
HETATM    8  C10 UNL     1       5.411 -14.333  18.840  1.00  0.00     0.160 C 
HETATM    9  N3  UNL     1       5.350 -15.764  18.491  1.00  0.00    -0.347 N 
HETATM   10  C15 UNL     1       6.238 -16.515  17.760  1.00  0.00     0.241 C 
ATOM     11  H3  UNL     1       4.535 -16.267  18.842  1.00  0.00     0.163 HD
HETATM   12  O3  UNL     1       6.211 -17.790  17.941  1.00  0.00    -0.271 OA
HETATM   13  C16 UNL     1       7.251 -16.079  16.767  1.00  0.00     0.177 C 
HETATM   14  N4  UNL     1       8.525 -16.734  16.929  1.00  0.00    -0.346 N 
HETATM   15  C21 UNL     1       9.797 -16.159  16.939  1.00  0.00     0.240 C 
ATOM     16  H4  UNL     1       8.493 -17.746  17.053  1.00  0.00     0.163 HD
HETATM   17  O4  UNL     1      10.684 -16.635  16.184  1.00  0.00    -0.271 OA
HETATM   18  C22 UNL     1      10.223 -14.984  17.798  1.00  0.00     0.171 C 
HETATM   19  C23 UNL     1       9.525 -15.024  19.111  1.00  0.00     0.042 C 
HETATM   20  N5  UNL     1      10.144 -13.760  17.052  1.00  0.00    -0.360 N 
HETATM   21  C24 UNL     1       9.386 -12.617  17.135  1.00  0.00     0.136 C 
ATOM     22  H5  UNL     1      10.809 -13.732  16.278  1.00  0.00     0.162 HD
HETATM   23  C25 UNL     1       9.280 -11.541  18.147  1.00  0.00     0.167 C 
HETATM   24  N7  UNL     1       8.126 -11.560  18.977  1.00  0.00    -0.347 N 
HETATM   25  C28 UNL     1       6.968 -10.793  18.998  1.00  0.00     0.241 C 
ATOM     26  H7  UNL     1       8.154 -12.281  19.699  1.00  0.00     0.163 HD
HETATM   27  O7  UNL     1       6.348 -10.695  20.125  1.00  0.00    -0.271 OA
HETATM   28  C29 UNL     1       6.325 -10.057  17.913  1.00  0.00     0.181 C 
BRANCH   5  29
HETATM   29  O1  UNL     1       3.172 -10.382  19.062  1.00  0.00    -0.332 OA
ATOM     30  H1  UNL     1       2.701 -10.935  19.674  1.00  0.00     0.221 HD
ENDBRANCH   5  29
BRANCH   6  31
HETATM   31  C5  UNL     1       2.065 -12.691  18.472  1.00  0.00     0.138 C 
BRANCH  31  32
HETATM   32  C6  UNL     1       1.653 -13.682  19.439  1.00  0.00    -0.004 C 
HETATM   33  C7  UNL     1       0.237 -14.203  19.341  1.00  0.00     0.011 C 
HETATM   34  C8  UNL     1       1.724 -12.991  20.819  1.00  0.00     0.011 C 
ENDBRANCH  31  32
ENDBRANCH   6  31
BRANCH   7  35
HETATM   35  O2  UNL     1       3.944 -14.316  17.058  1.00  0.00    -0.348 OA
ATOM     36  H2  UNL     1       3.925 -15.256  17.197  1.00  0.00     0.219 HD
ENDBRANCH   7  35
BRANCH   8  37
HETATM   37  C11 UNL     1       5.276 -14.225  20.307  1.00  0.00     0.037 C 
BRANCH  37  38
HETATM   38  C12 UNL     1       6.443 -14.190  21.185  1.00  0.00    -0.020 C 
HETATM   39  C13 UNL     1       6.013 -13.350  22.423  1.00  0.00     0.009 C 
HETATM   40  C14 UNL     1       6.912 -15.488  21.781  1.00  0.00     0.009 C 
ENDBRANCH  37  38
ENDBRANCH   8  37
BRANCH  13  41
HETATM   41  C17 UNL     1       6.717 -16.095  15.365  1.00  0.00     0.038 C 
BRANCH  41  42
HETATM   42  C18 UNL     1       7.002 -17.297  14.552  1.00  0.00    -0.020 C 
HETATM   43  C19 UNL     1       5.689 -17.677  13.840  1.00  0.00     0.009 C 
HETATM   44  C20 UNL     1       8.000 -17.069  13.436  1.00  0.00     0.009 C 
ENDBRANCH  41  42
ENDBRANCH  13  41
BRANCH  21  45
HETATM   45  O5  UNL     1       8.590 -12.421  16.122  1.00  0.00    -0.348 OA
ATOM     46  H5  UNL     1       8.078 -11.622  16.171  1.00  0.00     0.219 HD
ENDBRANCH  21  45
BRANCH  23  47
HETATM   47  C26 UNL     1      10.589 -11.358  18.897  1.00  0.00     0.133 C 
BRANCH  47  48
HETATM   48  C27 UNL     1      10.526 -11.519  20.336  1.00  0.00     0.233 C 
HETATM   49  N6  UNL     1      11.276 -12.579  20.920  1.00  0.00    -0.062 NA
HETATM   50  O6  UNL     1       9.854 -10.778  21.065  1.00  0.00    -0.277 OA
ENDBRANCH  47  48
ENDBRANCH  23  47
BRANCH  28  51
HETATM   51  C30 UNL     1       6.824  -8.670  18.049  1.00  0.00     0.039 C 
BRANCH  51  52
HETATM   52  C31 UNL     1       8.241  -8.353  18.288  1.00  0.00    -0.020 C 
HETATM   53  C32 UNL     1       8.911  -8.430  16.859  1.00  0.00     0.009 C 
HETATM   54  C33 UNL     1       8.625  -6.979  18.736  1.00  0.00     0.009 C 
ENDBRANCH  51  52
ENDBRANCH  28  51
ENDBRANCH   3   4
TORSDOF 14
ENDMDL
MODEL 3
REMARK VINA RESULT: -4.842570880      2.065      6.829
REMARK  14 active torsions:
REMARK  status: ('A' for Active; 'I' for Inactive)
REMARK    1  A    between atoms: C3_3  and  N1_4 
REMARK    2  A    between atoms: C4_5  and  O1_6 
REMARK    3  A    between atoms: N2_8  and  C5_9 
REMARK    4  A    between atoms: C5_9  and  C6_10 
REMARK    5  A    between atoms: C9_13  and  O2_14 
REMARK    6  A    between atoms: C10_16  and  C11_17 
REMARK    7  A    between atoms: C11_17  and  C12_18 
REMARK    8  A    between atoms: C16_25  and  C17_26 
REMARK    9  A    between atoms: C17_26  and  C18_27 
REMARK   10  A    between atoms: C24_38  and  O5_39 
REMARK   11  A    between atoms: C25_41  and  C26_42 
REMARK   12  A    between atoms: C26_42  and  C27_43 
REMARK   13  A    between atoms: C29_50  and  C30_51 
REMARK   14  A    between atoms: C30_51  and  C31_52 
ROOT
HETATM    1  C1  UNL     1       8.448 -11.330  21.529  1.00  0.00     0.098 C 
HETATM    2  C2  UNL     1       8.860 -11.122  20.395  1.00  0.00    -0.168 C 
HETATM    3  C3  UNL     1       9.367 -10.895  19.027  1.00  0.00     0.207 C 
ENDROOT
BRANCH   3   4
HETATM    4  N1  UNL     1       8.464 -11.592  18.038  1.00  0.00    -0.324 N 
HETATM    5  C4  UNL     1       8.868 -12.824  17.507  1.00  0.00     0.224 C 
HETATM    6  N2  UNL     1       8.586 -14.227  17.709  1.00  0.00    -0.295 N 
HETATM    7  C9  UNL     1       7.444 -14.864  18.140  1.00  0.00     0.144 C 
HETATM    8  C10 UNL     1       6.025 -15.032  17.635  1.00  0.00     0.160 C 
HETATM    9  N3  UNL     1       5.480 -16.269  18.224  1.00  0.00    -0.347 N 
HETATM   10  C15 UNL     1       4.466 -16.418  19.139  1.00  0.00     0.241 C 
ATOM     11  H3  UNL     1       5.915 -17.135  17.907  1.00  0.00     0.163 HD
HETATM   12  O3  UNL     1       3.883 -17.565  19.183  1.00  0.00    -0.271 OA
HETATM   13  C16 UNL     1       3.920 -15.439  20.113  1.00  0.00     0.177 C 
HETATM   14  N4  UNL     1       2.480 -15.429  20.163  1.00  0.00    -0.346 N 
HETATM   15  C21 UNL     1       1.622 -14.327  20.146  1.00  0.00     0.240 C 
ATOM     16  H4  UNL     1       2.030 -16.342  20.216  1.00  0.00     0.163 HD
HETATM   17  O4  UNL     1       0.739 -14.233  21.037  1.00  0.00    -0.271 OA
HETATM   18  C22 UNL     1       1.656 -13.204  19.129  1.00  0.00     0.171 C 
HETATM   19  C23 UNL     1       2.057 -13.726  17.795  1.00  0.00     0.042 C 
HETATM   20  N5  UNL     1       2.392 -12.082  19.641  1.00  0.00    -0.360 N 
HETATM   21  C24 UNL     1       3.565 -11.452  19.303  1.00  0.00     0.136 C 
ATOM     22  H5  UNL     1       1.935 -11.650  20.445  1.00  0.00     0.162 HD
HETATM   23  C25 UNL     1       3.999 -10.684  18.112  1.00  0.00     0.167 C 
HETATM   24  N7  UNL     1       4.881 -11.346  17.216  1.00  0.00    -0.347 N 
HETATM   25  C28 UNL     1       6.244 -11.225  16.975  1.00  0.00     0.241 C 
ATOM     26  H7  UNL     1       4.423 -12.048  16.635  1.00  0.00     0.163 HD
HETATM   27  O7  UNL     1       6.666 -11.567  15.805  1.00  0.00    -0.271 OA
HETATM   28  C29 UNL     1       7.304 -10.755  17.863  1.00  0.00     0.181 C 
BRANCH   5  29
HETATM   29  O1  UNL     1       9.756 -12.666  16.559  1.00  0.00    -0.332 OA
ATOM     30  H1  UNL     1       9.474 -13.077  15.750  1.00  0.00     0.221 HD
ENDBRANCH   5  29
BRANCH   6  31
HETATM   31  C5  UNL     1       9.765 -15.134  17.460  1.00  0.00     0.138 C 
BRANCH  31  32
HETATM   32  C6  UNL     1       9.547 -16.282  16.612  1.00  0.00    -0.004 C 
HETATM   33  C7  UNL     1      10.336 -17.535  16.918  1.00  0.00     0.011 C 
HETATM   34  C8  UNL     1      10.004 -15.864  15.197  1.00  0.00     0.011 C 
ENDBRANCH  31  32
ENDBRANCH   6  31
BRANCH   7  35
HETATM   35  O2  UNL     1       7.584 -15.496  19.273  1.00  0.00    -0.348 OA
ATOM     36  H2  UNL     1       7.491 -14.942  20.039  1.00  0.00     0.219 HD
ENDBRANCH   7  35
BRANCH   8  37
HETATM   37  C11 UNL     1       5.976 -15.179  16.166  1.00  0.00     0.037 C 
BRANCH  37  38
HETATM   38  C12 UNL     1       5.585 -16.435  15.531  1.00  0.00    -0.020 C 
HETATM   39  C13 UNL     1       4.290 -16.117  14.729  1.00  0.00     0.009 C 
HETATM   40  C14 UNL     1       6.510 -17.017  14.498  1.00  0.00     0.009 C 
ENDBRANCH  37  38
ENDBRANCH   8  37
BRANCH  13  41
HETATM   41  C17 UNL     1       4.589 -15.536  21.452  1.00  0.00     0.038 C 
BRANCH  41  42
HETATM   42  C18 UNL     1       5.336 -14.347  21.917  1.00  0.00    -0.020 C 
HETATM   43  C19 UNL     1       4.469 -13.665  22.993  1.00  0.00     0.009 C 
HETATM   44  C20 UNL     1       6.642 -14.669  22.613  1.00  0.00     0.009 C 
ENDBRANCH  41  42
ENDBRANCH  13  41
BRANCH  21  45
HETATM   45  O5  UNL     1       4.503 -11.535  20.203  1.00  0.00    -0.348 OA
ATOM     46  H5  UNL     1       4.305 -11.094  21.021  1.00  0.00     0.219 HD
ENDBRANCH  21  45
BRANCH  23  47
HETATM   47  C26 UNL     1       2.822  -9.996  17.441  1.00  0.00     0.133 C 
BRANCH  47  48
HETATM   48  C27 UNL     1       2.177  -8.947  18.206  1.00  0.00     0.233 C 
HETATM   49  N6  UNL     1       0.962  -9.263  18.878  1.00  0.00    -0.062 NA
HETATM   50  O6  UNL     1       2.639  -7.802  18.296  1.00  0.00    -0.277 OA
ENDBRANCH  47  48
ENDBRANCH  23  47
BRANCH  28  51
HETATM   51  C30 UNL     1       7.476  -9.325  17.523  1.00  0.00     0.039 C 
BRANCH  51  52
HETATM   52  C31 UNL     1       7.038  -8.236  18.412  1.00  0.00    -0.020 C 
HETATM   53  C32 UNL     1       8.299  -7.293  18.534  1.00  0.00     0.009 C 
HETATM   54  C33 UNL     1       5.983  -7.284  17.948  1.00  0.00     0.009 C 
ENDBRANCH  51  52
ENDBRANCH  28  51
ENDBRANCH   3   4
TORSDOF 14
ENDMDL
MODEL 4
REMARK VINA RESULT: -4.815112137      2.641      5.561
REMARK  14 active torsions:
REMARK  status: ('A' for Active; 'I' for Inactive)
REMARK    1  A    between atoms: C3_3  and  N1_4 
REMARK    2  A    between atoms: C4_5  and  O1_6 
REMARK    3  A    between atoms: N2_8  and  C5_9 
REMARK    4  A    between atoms: C5_9  and  C6_10 
REMARK    5  A    between atoms: C9_13  and  O2_14 
REMARK    6  A    between atoms: C10_16  and  C11_17 
REMARK    7  A    between atoms: C11_17  and  C12_18 
REMARK    8  A    between atoms: C16_25  and  C17_26 
REMARK    9  A    between atoms: C17_26  and  C18_27 
REMARK   10  A    between atoms: C24_38  and  O5_39 
REMARK   11  A    between atoms: C25_41  and  C26_42 
REMARK   12  A    between atoms: C26_42  and  C27_43 
REMARK   13  A    between atoms: C29_50  and  C30_51 
REMARK   14  A    between atoms: C30_51  and  C31_52 
ROOT
HETATM    1  C1  UNL     1       9.382  -6.682  17.837  1.00  0.00     0.098 C 
HETATM    2  C2  UNL     1       9.007  -7.795  17.489  1.00  0.00    -0.168 C 
HETATM    3  C3  UNL     1       8.567  -9.147  17.091  1.00  0.00     0.207 C 
ENDROOT
BRANCH   3   4
HETATM    4  N1  UNL     1       7.404  -9.569  17.955  1.00  0.00    -0.324 N 
HETATM    5  C4  UNL     1       6.263  -8.757  17.995  1.00  0.00     0.224 C 
HETATM    6  N2  UNL     1       4.938  -8.734  17.418  1.00  0.00    -0.295 N 
HETATM    7  C9  UNL     1       4.111  -9.760  17.018  1.00  0.00     0.144 C 
HETATM    8  C10 UNL     1       3.397 -10.917  17.687  1.00  0.00     0.160 C 
HETATM    9  N3  UNL     1       2.241 -11.280  16.847  1.00  0.00    -0.347 N 
HETATM   10  C15 UNL     1       2.023 -12.429  16.125  1.00  0.00     0.241 C 
ATOM     11  H3  UNL     1       1.499 -10.582  16.796  1.00  0.00     0.163 HD
HETATM   12  O3  UNL     1       0.802 -12.708  15.828  1.00  0.00    -0.271 OA
HETATM   13  C16 UNL     1       2.998 -13.426  15.618  1.00  0.00     0.177 C 
HETATM   14  N4  UNL     1       2.580 -14.789  15.828  1.00  0.00    -0.346 N 
HETATM   15  C21 UNL     1       3.326 -15.853  16.339  1.00  0.00     0.240 C 
ATOM     16  H4  UNL     1       1.616 -15.004  15.573  1.00  0.00     0.163 HD
HETATM   17  O4  UNL     1       3.365 -16.932  15.692  1.00  0.00    -0.271 OA
HETATM   18  C22 UNL     1       4.115 -15.831  17.633  1.00  0.00     0.171 C 
HETATM   19  C23 UNL     1       3.424 -14.986  18.645  1.00  0.00     0.042 C 
HETATM   20  N5  UNL     1       5.498 -15.545  17.376  1.00  0.00    -0.360 N 
HETATM   21  C24 UNL     1       6.351 -14.512  17.681  1.00  0.00     0.136 C 
ATOM     22  H5  UNL     1       5.955 -16.284  16.841  1.00  0.00     0.162 HD
HETATM   23  C25 UNL     1       6.892 -13.985  18.957  1.00  0.00     0.167 C 
HETATM   24  N7  UNL     1       6.330 -12.769  19.431  1.00  0.00    -0.347 N 
HETATM   25  C28 UNL     1       6.797 -11.461  19.454  1.00  0.00     0.241 C 
ATOM     26  H7  UNL     1       5.399 -12.879  19.835  1.00  0.00     0.163 HD
HETATM   27  O7  UNL     1       6.319 -10.682  20.364  1.00  0.00    -0.271 OA
HETATM   28  C29 UNL     1       7.774 -10.811  18.584  1.00  0.00     0.181 C 
BRANCH   5  29
HETATM   29  O1  UNL     1       6.442  -7.720  18.773  1.00  0.00    -0.332 OA
ATOM     30  H1  UNL     1       6.280  -6.907  18.308  1.00  0.00     0.221 HD
ENDBRANCH   5  29
BRANCH   6  31
HETATM   31  C5  UNL     1       4.402  -7.348  17.159  1.00  0.00     0.138 C 
BRANCH  31  32
HETATM   32  C6  UNL     1       3.012  -7.109  17.468  1.00  0.00    -0.004 C 
HETATM   33  C7  UNL     1       2.072  -6.871  16.308  1.00  0.00     0.011 C 
HETATM   34  C8  UNL     1       2.972  -5.798  18.284  1.00  0.00     0.011 C 
ENDBRANCH  31  32
ENDBRANCH   6  31
BRANCH   7  35
HETATM   35  O2  UNL     1       3.856  -9.768  15.738  1.00  0.00    -0.348 OA
ATOM     36  H2  UNL     1       4.058 -10.591  15.309  1.00  0.00     0.219 HD
ENDBRANCH   7  35
BRANCH   8  37
HETATM   37  C11 UNL     1       2.881 -10.549  19.021  1.00  0.00     0.037 C 
BRANCH  37  38
HETATM   38  C12 UNL     1       1.488 -10.780  19.397  1.00  0.00    -0.020 C 
HETATM   39  C13 UNL     1       1.505 -11.062  20.927  1.00  0.00     0.009 C 
HETATM   40  C14 UNL     1       0.524  -9.633  19.257  1.00  0.00     0.009 C 
ENDBRANCH  37  38
ENDBRANCH   8  37
BRANCH  13  41
HETATM   41  C17 UNL     1       3.448 -13.121  14.219  1.00  0.00     0.038 C 
BRANCH  41  42
HETATM   42  C18 UNL     1       2.539 -12.306  13.385  1.00  0.00    -0.020 C 
HETATM   43  C19 UNL     1       3.396 -11.200  12.739  1.00  0.00     0.009 C 
HETATM   44  C20 UNL     1       1.926 -13.056  12.221  1.00  0.00     0.009 C 
ENDBRANCH  41  42
ENDBRANCH  13  41
BRANCH  21  45
HETATM   45  O5  UNL     1       6.786 -13.846  16.650  1.00  0.00    -0.348 OA
ATOM     46  H5  UNL     1       7.383 -13.138  16.860  1.00  0.00     0.219 HD
ENDBRANCH  21  45
BRANCH  23  47
HETATM   47  C26 UNL     1       6.997 -15.080  20.005  1.00  0.00     0.133 C 
BRANCH  47  48
HETATM   48  C27 UNL     1       6.496 -14.748  21.324  1.00  0.00     0.233 C 
HETATM   49  N6  UNL     1       7.393 -14.129  22.240  1.00  0.00    -0.062 NA
HETATM   50  O6  UNL     1       5.332 -14.978  21.677  1.00  0.00    -0.277 OA
ENDBRANCH  47  48
ENDBRANCH  23  47
BRANCH  28  51
HETATM   51  C30 UNL     1       9.056 -10.908  19.318  1.00  0.00     0.039 C 
BRANCH  51  52
HETATM   52  C31 UNL     1      10.152 -11.794  18.893  1.00  0.00    -0.020 C 
HETATM   53  C32 UNL     1      10.233 -12.895  20.024  1.00  0.00     0.009 C 
HETATM   54  C33 UNL     1       9.994 -12.626  17.662  1.00  0.00     0.009 C 
ENDBRANCH  51  52
ENDBRANCH  28  51
ENDBRANCH   3   4
TORSDOF 14
ENDMDL
MODEL 5
REMARK VINA RESULT: -4.810013338      2.541      5.640
REMARK  14 active torsions:
REMARK  status: ('A' for Active; 'I' for Inactive)
REMARK    1  A    between atoms: C3_3  and  N1_4 
REMARK    2  A    between atoms: C4_5  and  O1_6 
REMARK    3  A    between atoms: N2_8  and  C5_9 
REMARK    4  A    between atoms: C5_9  and  C6_10 
REMARK    5  A    between atoms: C9_13  and  O2_14 
REMARK    6  A    between atoms: C10_16  and  C11_17 
REMARK    7  A    between atoms: C11_17  and  C12_18 
REMARK    8  A    between atoms: C16_25  and  C17_26 
REMARK    9  A    between atoms: C17_26  and  C18_27 
REMARK   10  A    between atoms: C24_38  and  O5_39 
REMARK   11  A    between atoms: C25_41  and  C26_42 
REMARK   12  A    between atoms: C26_42  and  C27_43 
REMARK   13  A    between atoms: C29_50  and  C30_51 
REMARK   14  A    between atoms: C30_51  and  C31_52 
ROOT
HETATM    1  C1  UNL     1       2.469  -8.143  17.476  1.00  0.00     0.098 C 
HETATM    2  C2  UNL     1       2.053  -8.978  18.270  1.00  0.00    -0.168 C 
HETATM    3  C3  UNL     1       1.535  -9.995  19.206  1.00  0.00     0.207 C 
ENDROOT
BRANCH   3   4
HETATM    4  N1  UNL     1       2.235 -11.309  18.953  1.00  0.00    -0.324 N 
HETATM    5  C4  UNL     1       2.271 -11.814  17.647  1.00  0.00     0.224 C 
HETATM    6  N2  UNL     1       3.206 -11.890  16.548  1.00  0.00    -0.295 N 
HETATM    7  C9  UNL     1       4.582 -11.954  16.538  1.00  0.00     0.144 C 
HETATM    8  C10 UNL     1       5.638 -12.928  17.018  1.00  0.00     0.160 C 
HETATM    9  N3  UNL     1       6.852 -12.714  16.210  1.00  0.00    -0.347 N 
HETATM   10  C15 UNL     1       8.075 -12.224  16.599  1.00  0.00     0.241 C 
ATOM     11  H3  UNL     1       6.773 -12.965  15.224  1.00  0.00     0.163 HD
HETATM   12  O3  UNL     1       9.085 -12.519  15.857  1.00  0.00    -0.271 OA
HETATM   13  C16 UNL     1       8.428 -11.384  17.772  1.00  0.00     0.177 C 
HETATM   14  N4  UNL     1       9.619 -11.828  18.451  1.00  0.00    -0.346 N 
HETATM   15  C21 UNL     1       9.818 -12.003  19.822  1.00  0.00     0.240 C 
ATOM     16  H4  UNL     1      10.418 -12.041  17.855  1.00  0.00     0.163 HD
HETATM   17  O4  UNL     1      10.816 -11.463  20.364  1.00  0.00    -0.271 OA
HETATM   18  C22 UNL     1       8.920 -12.805  20.743  1.00  0.00     0.171 C 
HETATM   19  C23 UNL     1       8.351 -13.975  20.021  1.00  0.00     0.042 C 
HETATM   20  N5  UNL     1       7.995 -11.943  21.423  1.00  0.00    -0.360 N 
HETATM   21  C24 UNL     1       6.630 -11.782  21.417  1.00  0.00     0.136 C 
ATOM     22  H5  UNL     1       8.462 -11.298  22.061  1.00  0.00     0.162 HD
HETATM   23  C25 UNL     1       5.504 -12.653  21.830  1.00  0.00     0.167 C 
HETATM   24  N7  UNL     1       4.761 -13.267  20.786  1.00  0.00    -0.347 N 
HETATM   25  C28 UNL     1       3.506 -13.013  20.248  1.00  0.00     0.241 C 
ATOM     26  H7  UNL     1       5.246 -14.049  20.344  1.00  0.00     0.163 HD
HETATM   27  O7  UNL     1       2.897 -14.001  19.683  1.00  0.00    -0.271 OA
HETATM   28  C29 UNL     1       2.744 -11.767  20.221  1.00  0.00     0.181 C 
BRANCH   5  29
HETATM   29  O1  UNL     1       1.135 -12.376  17.322  1.00  0.00    -0.332 OA
ATOM     30  H1  UNL     1       1.162 -13.315  17.463  1.00  0.00     0.221 HD
ENDBRANCH   5  29
BRANCH   6  31
HETATM   31  C5  UNL     1       2.562 -11.829  15.185  1.00  0.00     0.138 C 
BRANCH  31  32
HETATM   32  C6  UNL     1       2.968 -12.822  14.218  1.00  0.00    -0.004 C 
HETATM   33  C7  UNL     1       2.574 -12.592  12.777  1.00  0.00     0.011 C 
HETATM   34  C8  UNL     1       2.252 -14.130  14.620  1.00  0.00     0.011 C 
ENDBRANCH  31  32
ENDBRANCH   6  31
BRANCH   7  35
HETATM   35  O2  UNL     1       5.156 -10.925  15.977  1.00  0.00    -0.348 OA
ATOM     36  H2  UNL     1       5.914 -11.147  15.448  1.00  0.00     0.219 HD
ENDBRANCH   7  35
BRANCH   8  37
HETATM   37  C11 UNL     1       5.219 -14.332  16.830  1.00  0.00     0.037 C 
BRANCH  37  38
HETATM   38  C12 UNL     1       6.084 -15.311  16.176  1.00  0.00    -0.020 C 
HETATM   39  C13 UNL     1       6.682 -16.178  17.322  1.00  0.00     0.009 C 
HETATM   40  C14 UNL     1       5.440 -16.320  15.265  1.00  0.00     0.009 C 
ENDBRANCH  37  38
ENDBRANCH   8  37
BRANCH  13  41
HETATM   41  C17 UNL     1       8.403  -9.919  17.450  1.00  0.00     0.038 C 
BRANCH  41  42
HETATM   42  C18 UNL     1       7.788  -9.023  18.454  1.00  0.00    -0.020 C 
HETATM   43  C19 UNL     1       8.643  -7.741  18.492  1.00  0.00     0.009 C 
HETATM   44  C20 UNL     1       6.394  -8.553  18.092  1.00  0.00     0.009 C 
ENDBRANCH  41  42
ENDBRANCH  13  41
BRANCH  21  45
HETATM   45  O5  UNL     1       6.223 -10.633  20.959  1.00  0.00    -0.348 OA
ATOM     46  H5  UNL     1       5.472 -10.683  20.379  1.00  0.00     0.219 HD
ENDBRANCH  21  45
BRANCH  23  47
HETATM   47  C26 UNL     1       5.917 -13.597  22.946  1.00  0.00     0.133 C 
BRANCH  47  48
HETATM   48  C27 UNL     1       5.396 -14.947  22.863  1.00  0.00     0.233 C 
HETATM   49  N6  UNL     1       6.233 -15.950  22.296  1.00  0.00    -0.062 NA
HETATM   50  O6  UNL     1       4.266 -15.255  23.262  1.00  0.00    -0.277 OA
ENDBRANCH  47  48
ENDBRANCH  23  47
BRANCH  28  51
HETATM   51  C30 UNL     1       1.837 -11.854  21.387  1.00  0.00     0.039 C 
BRANCH  51  52
HETATM   52  C31 UNL     1       2.177 -11.292  22.705  1.00  0.00    -0.020 C 
HETATM   53  C32 UNL     1       0.949 -10.369  23.071  1.00  0.00     0.009 C 
HETATM   54  C33 UNL     1       2.252 -12.195  23.894  1.00  0.00     0.009 C 
ENDBRANCH  51  52
ENDBRANCH  28  51
ENDBRANCH   3   4
TORSDOF 14
ENDMDL
