MODEL 1
REMARK VINA RESULT: -9.402093240      0.000      0.000
REMARK  12 active torsions:
REMARK  status: ('A' for Active; 'I' for Inactive)
REMARK    1  A    between atoms: C2_2  and  C3_6 
REMARK    2  A    between atoms: C3_6  and  N2_8 
REMARK       I    between atoms: N2_8  and  C5_10 
REMARK    3  A    between atoms: C5_10  and  C6_12 
REMARK    4  A    between atoms: C6_12  and  C7_13 
REMARK    5  A    between atoms: C6_12  and  N9_41 
REMARK       I    between atoms: N3_18  and  C12_19 
REMARK    6  A    between atoms: C12_19  and  C13_21 
REMARK    7  A    between atoms: C13_21  and  N4_23 
REMARK       I    between atoms: N4_23  and  C15_25 
REMARK    8  A    between atoms: C15_25  and  C16_27 
REMARK    9  A    between atoms: C16_27  and  C17_28 
REMARK   10  A    between atoms: C16_27  and  N5_32 
REMARK   11  A    between atoms: C17_28  and  C18_29 
REMARK       I    between atoms: N5_32  and  C21_34 
REMARK       I    between atoms: C21_34  and  N6_36 
REMARK   12  A    between atoms: C31_52  and  O5_53 
ROOT
HETATM    1  C7  UNL     1       4.548  -5.425  15.687  1.00  0.00     0.024 C 
HETATM    2  C8  UNL     1       3.449  -4.630  15.015  1.00  0.00     0.055 C 
HETATM    3  C9  UNL     1       2.185  -4.696  15.907  1.00  0.00     0.007 C 
HETATM    4  C10 UNL     1       2.520  -4.044  17.238  1.00  0.00     0.021 C 
HETATM    5  C11 UNL     1       3.421  -5.028  17.928  1.00  0.00     0.131 C 
HETATM    6  N3  UNL     1       4.077  -5.871  16.951  1.00  0.00    -0.321 N 
HETATM    7  C12 UNL     1       4.178  -7.250  17.376  1.00  0.00     0.246 C 
HETATM    8  O2  UNL     1       3.792  -7.514  18.560  1.00  0.00    -0.271 OA
ENDROOT
BRANCH   1   9
HETATM    9  C6  UNL     1       5.917  -4.892  15.555  1.00  0.00     0.222 C 
BRANCH   9  10
HETATM   10  C5  UNL     1       6.777  -5.387  16.646  1.00  0.00     0.246 C 
HETATM   11  N2  UNL     1       7.814  -6.372  16.476  1.00  0.00    -0.350 N 
ATOM     12  H2  UNL     1       7.961  -6.739  15.536  1.00  0.00     0.163 HD
HETATM   13  O1  UNL     1       6.693  -4.997  17.862  1.00  0.00    -0.271 OA
BRANCH  11  14
HETATM   14  C3  UNL     1       8.653  -6.880  17.516  1.00  0.00     0.125 C 
HETATM   15  C4  UNL     1       8.801  -8.386  17.475  1.00  0.00     0.038 C 
BRANCH  14  16
HETATM   16  C2  UNL     1      10.024  -6.299  17.540  1.00  0.00    -0.002 C 
HETATM   17  C1  UNL     1      10.269  -4.866  17.864  1.00  0.00     0.065 C 
HETATM   18  N1  UNL     1      11.081  -7.015  17.276  1.00  0.00    -0.404 N 
ATOM     19  H12 UNL     1      12.020  -6.617  17.292  1.00  0.00     0.155 HD
ATOM     20  H11 UNL     1      10.913  -7.996  17.054  1.00  0.00     0.155 HD
ENDBRANCH  14  16
ENDBRANCH  11  14
ENDBRANCH   9  10
BRANCH   9  21
HETATM   21  N9  UNL     1       6.063  -3.479  15.324  1.00  0.00    -0.368 N 
HETATM   22  C23 UNL     1       7.008  -3.225  14.240  1.00  0.00     0.123 C 
HETATM   23  C24 UNL     1       6.553  -2.425  13.100  1.00  0.00     0.020 C 
HETATM   24  C25 UNL     1       6.986  -0.990  13.076  1.00  0.00     0.002 C 
HETATM   25  C26 UNL     1       6.106  -0.250  12.104  1.00  0.00     0.000 C 
HETATM   26  C27 UNL     1       5.057   0.597  12.793  1.00  0.00     0.000 C 
HETATM   27  C28 UNL     1       3.693  -0.056  12.755  1.00  0.00     0.002 C 
HETATM   28  C29 UNL     1       3.029  -0.122  14.087  1.00  0.00     0.020 C 
HETATM   29  C30 UNL     1       2.958  -1.486  14.718  1.00  0.00     0.121 C 
HETATM   30  N10 UNL     1       3.543  -1.567  16.040  1.00  0.00    -0.370 N 
HETATM   31  C31 UNL     1       4.861  -1.598  16.461  1.00  0.00     0.151 C 
ATOM     32  H10 UNL     1       2.862  -1.609  16.797  1.00  0.00     0.161 HD
HETATM   33  C32 UNL     1       5.983  -2.521  16.282  1.00  0.00     0.142 C 
BRANCH  31  34
HETATM   34  O5  UNL     1       5.191  -0.567  17.195  1.00  0.00    -0.345 OA
ATOM     35  H5  UNL     1       6.017  -0.681  17.650  1.00  0.00     0.219 HD
ENDBRANCH  31  34
ENDBRANCH   9  21
ENDBRANCH   1   9
BRANCH   7  36
HETATM   36  C13 UNL     1       4.678  -8.371  16.581  1.00  0.00     0.173 C 
HETATM   37  C14 UNL     1       3.515  -8.880  15.739  1.00  0.00     0.042 C 
BRANCH  36  38
HETATM   38  N4  UNL     1       5.052  -9.442  17.527  1.00  0.00    -0.346 N 
HETATM   39  C15 UNL     1       5.726 -10.571  17.008  1.00  0.00     0.241 C 
HETATM   40  O3  UNL     1       6.005 -10.663  15.795  1.00  0.00    -0.271 OA
ATOM     41  H4  UNL     1       4.832  -9.369  18.520  1.00  0.00     0.163 HD
BRANCH  39  42
HETATM   42  C16 UNL     1       6.085 -11.640  17.989  1.00  0.00     0.178 C 
BRANCH  42  43
HETATM   43  C17 UNL     1       6.427 -12.862  17.183  1.00  0.00     0.038 C 
BRANCH  43  44
HETATM   44  C18 UNL     1       7.780 -13.441  17.425  1.00  0.00    -0.020 C 
HETATM   45  C19 UNL     1       8.739 -12.723  16.450  1.00  0.00     0.009 C 
HETATM   46  C20 UNL     1       7.830 -14.911  17.024  1.00  0.00     0.009 C 
ENDBRANCH  43  44
ENDBRANCH  42  43
BRANCH  42  47
HETATM   47  N5  UNL     1       7.079 -11.233  18.916  1.00  0.00    -0.330 N 
HETATM   48  C21 UNL     1       6.794 -11.174  20.318  1.00  0.00     0.323 C 
HETATM   49  O4  UNL     1       5.641 -11.494  20.692  1.00  0.00    -0.247 OA
HETATM   50  N6  UNL     1       7.737 -10.778  21.282  1.00  0.00    -0.285 N 
HETATM   51  C22 UNL     1       7.816 -11.467  22.389  1.00  0.00     0.204 C 
ATOM     52  H6  UNL     1       8.345  -9.974  21.121  1.00  0.00     0.172 HD
HETATM   53  N7  UNL     1       6.973 -12.583  22.613  1.00  0.00    -0.066 NA
HETATM   54  N8  UNL     1       8.768 -11.064  23.360  1.00  0.00    -0.066 NA
ATOM     55  H5  UNL     1       8.008 -10.979  18.579  1.00  0.00     0.165 HD
ENDBRANCH  42  47
ENDBRANCH  39  42
ENDBRANCH  36  38
ENDBRANCH   7  36
TORSDOF 12
ENDMDL
MODEL 2
REMARK VINA RESULT: -9.359254888      1.129      1.235
REMARK  12 active torsions:
REMARK  status: ('A' for Active; 'I' for Inactive)
REMARK    1  A    between atoms: C2_2  and  C3_6 
REMARK    2  A    between atoms: C3_6  and  N2_8 
REMARK       I    between atoms: N2_8  and  C5_10 
REMARK    3  A    between atoms: C5_10  and  C6_12 
REMARK    4  A    between atoms: C6_12  and  C7_13 
REMARK    5  A    between atoms: C6_12  and  N9_41 
REMARK       I    between atoms: N3_18  and  C12_19 
REMARK    6  A    between atoms: C12_19  and  C13_21 
REMARK    7  A    between atoms: C13_21  and  N4_23 
REMARK       I    between atoms: N4_23  and  C15_25 
REMARK    8  A    between atoms: C15_25  and  C16_27 
REMARK    9  A    between atoms: C16_27  and  C17_28 
REMARK   10  A    between atoms: C16_27  and  N5_32 
REMARK   11  A    between atoms: C17_28  and  C18_29 
REMARK       I    between atoms: N5_32  and  C21_34 
REMARK       I    between atoms: C21_34  and  N6_36 
REMARK   12  A    between atoms: C31_52  and  O5_53 
ROOT
HETATM    1  C7  UNL     1       4.602  -5.430  15.642  1.00  0.00     0.024 C 
HETATM    2  C8  UNL     1       3.502  -4.703  14.899  1.00  0.00     0.055 C 
HETATM    3  C9  UNL     1       2.225  -4.729  15.774  1.00  0.00     0.007 C 
HETATM    4  C10 UNL     1       2.526  -3.979  17.061  1.00  0.00     0.021 C 
HETATM    5  C11 UNL     1       3.432  -4.896  17.832  1.00  0.00     0.131 C 
HETATM    6  N3  UNL     1       4.118  -5.794  16.928  1.00  0.00    -0.321 N 
HETATM    7  C12 UNL     1       4.234  -7.138  17.450  1.00  0.00     0.246 C 
HETATM    8  O2  UNL     1       3.833  -7.325  18.644  1.00  0.00    -0.271 OA
ENDROOT
BRANCH   1   9
HETATM    9  C6  UNL     1       5.965  -4.883  15.494  1.00  0.00     0.222 C 
BRANCH   9  10
HETATM   10  C5  UNL     1       6.850  -5.395  16.556  1.00  0.00     0.246 C 
HETATM   11  N2  UNL     1       7.980  -6.258  16.323  1.00  0.00    -0.350 N 
ATOM     12  H2  UNL     1       8.177  -6.519  15.357  1.00  0.00     0.163 HD
HETATM   13  O1  UNL     1       6.709  -5.131  17.801  1.00  0.00    -0.271 OA
BRANCH  11  14
HETATM   14  C3  UNL     1       8.847  -6.779  17.332  1.00  0.00     0.125 C 
HETATM   15  C4  UNL     1       9.090  -8.267  17.193  1.00  0.00     0.038 C 
BRANCH  14  16
HETATM   16  C2  UNL     1      10.179  -6.117  17.403  1.00  0.00    -0.002 C 
HETATM   17  C1  UNL     1      10.324  -4.668  17.715  1.00  0.00     0.065 C 
HETATM   18  N1  UNL     1      11.286  -6.770  17.192  1.00  0.00    -0.404 N 
ATOM     19  H12 UNL     1      12.198  -6.316  17.241  1.00  0.00     0.155 HD
ATOM     20  H11 UNL     1      11.187  -7.763  16.979  1.00  0.00     0.155 HD
ENDBRANCH  14  16
ENDBRANCH  11  14
ENDBRANCH   9  10
BRANCH   9  21
HETATM   21  N9  UNL     1       6.095  -3.464  15.292  1.00  0.00    -0.368 N 
HETATM   22  C23 UNL     1       7.045  -3.178  14.220  1.00  0.00     0.123 C 
HETATM   23  C24 UNL     1       6.589  -2.362  13.093  1.00  0.00     0.020 C 
HETATM   24  C25 UNL     1       7.005  -0.922  13.098  1.00  0.00     0.002 C 
HETATM   25  C26 UNL     1       6.123  -0.174  12.135  1.00  0.00     0.000 C 
HETATM   26  C27 UNL     1       5.060   0.647  12.831  1.00  0.00     0.000 C 
HETATM   27  C28 UNL     1       3.704  -0.021  12.770  1.00  0.00     0.002 C 
HETATM   28  C29 UNL     1       3.031  -0.120  14.096  1.00  0.00     0.020 C 
HETATM   29  C30 UNL     1       2.971  -1.497  14.700  1.00  0.00     0.121 C 
HETATM   30  N10 UNL     1       3.547  -1.597  16.025  1.00  0.00    -0.370 N 
HETATM   31  C31 UNL     1       4.863  -1.620  16.455  1.00  0.00     0.151 C 
ATOM     32  H10 UNL     1       2.861  -1.662  16.776  1.00  0.00     0.161 HD
HETATM   33  C32 UNL     1       5.997  -2.526  16.267  1.00  0.00     0.142 C 
BRANCH  31  34
HETATM   34  O5  UNL     1       5.175  -0.599  17.211  1.00  0.00    -0.345 OA
ATOM     35  H5  UNL     1       6.077  -0.616  17.508  1.00  0.00     0.219 HD
ENDBRANCH  31  34
ENDBRANCH   9  21
ENDBRANCH   1   9
BRANCH   7  36
HETATM   36  C13 UNL     1       4.767  -8.303  16.744  1.00  0.00     0.173 C 
HETATM   37  C14 UNL     1       3.595  -8.974  16.038  1.00  0.00     0.042 C 
BRANCH  36  38
HETATM   38  N4  UNL     1       5.272  -9.239  17.768  1.00  0.00    -0.346 N 
HETATM   39  C15 UNL     1       6.078 -10.315  17.335  1.00  0.00     0.241 C 
HETATM   40  O3  UNL     1       6.363 -10.472  16.129  1.00  0.00    -0.271 OA
ATOM     41  H4  UNL     1       5.047  -9.112  18.755  1.00  0.00     0.163 HD
BRANCH  39  42
HETATM   42  C16 UNL     1       6.569 -11.249  18.394  1.00  0.00     0.178 C 
BRANCH  42  43
HETATM   43  C17 UNL     1       5.882 -12.565  18.155  1.00  0.00     0.038 C 
BRANCH  43  44
HETATM   44  C18 UNL     1       6.762 -13.681  17.701  1.00  0.00    -0.020 C 
HETATM   45  C19 UNL     1       6.040 -14.346  16.509  1.00  0.00     0.009 C 
HETATM   46  C20 UNL     1       6.864 -14.768  18.764  1.00  0.00     0.009 C 
ENDBRANCH  43  44
ENDBRANCH  42  43
BRANCH  42  47
HETATM   47  N5  UNL     1       7.983 -11.312  18.467  1.00  0.00    -0.330 N 
HETATM   48  C21 UNL     1       8.669 -11.007  19.686  1.00  0.00     0.323 C 
HETATM   49  O4  UNL     1       7.975 -10.684  20.680  1.00  0.00    -0.247 OA
HETATM   50  N6  UNL     1      10.068 -11.052  19.818  1.00  0.00    -0.285 N 
HETATM   51  C22 UNL     1      10.571 -11.598  20.894  1.00  0.00     0.204 C 
ATOM     52  H6  UNL     1      10.675 -10.668  19.094  1.00  0.00     0.172 HD
HETATM   53  N7  UNL     1       9.729 -12.131  21.900  1.00  0.00    -0.066 NA
HETATM   54  N8  UNL     1      11.982 -11.639  21.024  1.00  0.00    -0.066 NA
ATOM     55  H5  UNL     1       8.519 -11.577  17.640  1.00  0.00     0.165 HD
ENDBRANCH  42  47
ENDBRANCH  39  42
ENDBRANCH  36  38
ENDBRANCH   7  36
TORSDOF 12
ENDMDL
MODEL 3
REMARK VINA RESULT: -9.334153323      1.585      2.232
REMARK  12 active torsions:
REMARK  status: ('A' for Active; 'I' for Inactive)
REMARK    1  A    between atoms: C2_2  and  C3_6 
REMARK    2  A    between atoms: C3_6  and  N2_8 
REMARK       I    between atoms: N2_8  and  C5_10 
REMARK    3  A    between atoms: C5_10  and  C6_12 
REMARK    4  A    between atoms: C6_12  and  C7_13 
REMARK    5  A    between atoms: C6_12  and  N9_41 
REMARK       I    between atoms: N3_18  and  C12_19 
REMARK    6  A    between atoms: C12_19  and  C13_21 
REMARK    7  A    between atoms: C13_21  and  N4_23 
REMARK       I    between atoms: N4_23  and  C15_25 
REMARK    8  A    between atoms: C15_25  and  C16_27 
REMARK    9  A    between atoms: C16_27  and  C17_28 
REMARK   10  A    between atoms: C16_27  and  N5_32 
REMARK   11  A    between atoms: C17_28  and  C18_29 
REMARK       I    between atoms: N5_32  and  C21_34 
REMARK       I    between atoms: C21_34  and  N6_36 
REMARK   12  A    between atoms: C31_52  and  O5_53 
ROOT
HETATM    1  C7  UNL     1       4.575  -5.390  15.664  1.00  0.00     0.024 C 
HETATM    2  C8  UNL     1       3.480  -4.642  14.935  1.00  0.00     0.055 C 
HETATM    3  C9  UNL     1       2.206  -4.665  15.815  1.00  0.00     0.007 C 
HETATM    4  C10 UNL     1       2.521  -3.935  17.109  1.00  0.00     0.021 C 
HETATM    5  C11 UNL     1       3.419  -4.872  17.865  1.00  0.00     0.131 C 
HETATM    6  N3  UNL     1       4.092  -5.765  16.946  1.00  0.00    -0.321 N 
HETATM    7  C12 UNL     1       4.196  -7.117  17.451  1.00  0.00     0.246 C 
HETATM    8  O2  UNL     1       3.797  -7.315  18.644  1.00  0.00    -0.271 OA
ENDROOT
BRANCH   1   9
HETATM    9  C6  UNL     1       5.943  -4.856  15.517  1.00  0.00     0.222 C 
BRANCH   9  10
HETATM   10  C5  UNL     1       6.822  -5.374  16.582  1.00  0.00     0.246 C 
HETATM   11  N2  UNL     1       7.928  -6.268  16.356  1.00  0.00    -0.350 N 
ATOM     12  H2  UNL     1       8.113  -6.549  15.394  1.00  0.00     0.163 HD
HETATM   13  O1  UNL     1       6.694  -5.087  17.823  1.00  0.00    -0.271 OA
BRANCH  11  14
HETATM   14  C3  UNL     1       8.787  -6.795  17.369  1.00  0.00     0.125 C 
HETATM   15  C4  UNL     1       8.997  -8.289  17.248  1.00  0.00     0.038 C 
BRANCH  14  16
HETATM   16  C2  UNL     1      10.134  -6.161  17.426  1.00  0.00    -0.002 C 
HETATM   17  C1  UNL     1      10.309  -4.704  17.682  1.00  0.00     0.065 C 
HETATM   18  N1  UNL     1      11.227  -6.848  17.253  1.00  0.00    -0.404 N 
ATOM     19  H12 UNL     1      12.149  -6.413  17.292  1.00  0.00     0.155 HD
ATOM     20  H11 UNL     1      11.107  -7.845  17.079  1.00  0.00     0.155 HD
ENDBRANCH  14  16
ENDBRANCH  11  14
ENDBRANCH   9  10
BRANCH   9  21
HETATM   21  N9  UNL     1       6.087  -3.439  15.311  1.00  0.00    -0.368 N 
HETATM   22  C23 UNL     1       7.051  -3.164  14.250  1.00  0.00     0.123 C 
HETATM   23  C24 UNL     1       6.616  -2.348  13.114  1.00  0.00     0.020 C 
HETATM   24  C25 UNL     1       7.043  -0.911  13.121  1.00  0.00     0.002 C 
HETATM   25  C26 UNL     1       6.179  -0.160  12.144  1.00  0.00     0.000 C 
HETATM   26  C27 UNL     1       5.113   0.672  12.825  1.00  0.00     0.000 C 
HETATM   27  C28 UNL     1       3.753   0.014  12.750  1.00  0.00     0.002 C 
HETATM   28  C29 UNL     1       3.063  -0.075  14.068  1.00  0.00     0.020 C 
HETATM   29  C30 UNL     1       2.986  -1.450  14.676  1.00  0.00     0.121 C 
HETATM   30  N10 UNL     1       3.545  -1.549  16.008  1.00  0.00    -0.370 N 
HETATM   31  C31 UNL     1       4.855  -1.581  16.454  1.00  0.00     0.151 C 
ATOM     32  H10 UNL     1       2.849  -1.606  16.751  1.00  0.00     0.161 HD
HETATM   33  C32 UNL     1       5.984  -2.497  16.282  1.00  0.00     0.142 C 
BRANCH  31  34
HETATM   34  O5  UNL     1       5.166  -0.560  17.210  1.00  0.00    -0.345 OA
ATOM     35  H5  UNL     1       6.085  -0.323  17.158  1.00  0.00     0.219 HD
ENDBRANCH  31  34
ENDBRANCH   9  21
ENDBRANCH   1   9
BRANCH   7  36
HETATM   36  C13 UNL     1       4.712  -8.279  16.727  1.00  0.00     0.173 C 
HETATM   37  C14 UNL     1       3.545  -8.883  15.955  1.00  0.00     0.042 C 
BRANCH  36  38
HETATM   38  N4  UNL     1       5.142  -9.265  17.739  1.00  0.00    -0.346 N 
HETATM   39  C15 UNL     1       5.953 -10.338  17.307  1.00  0.00     0.241 C 
HETATM   40  O3  UNL     1       6.303 -10.452  16.114  1.00  0.00    -0.271 OA
ATOM     41  H4  UNL     1       4.863  -9.174  18.716  1.00  0.00     0.163 HD
BRANCH  39  42
HETATM   42  C16 UNL     1       6.366 -11.324  18.353  1.00  0.00     0.178 C 
BRANCH  42  43
HETATM   43  C17 UNL     1       5.109 -11.751  19.058  1.00  0.00     0.038 C 
BRANCH  43  44
HETATM   44  C18 UNL     1       4.224 -12.680  18.298  1.00  0.00    -0.020 C 
HETATM   45  C19 UNL     1       2.814 -12.051  18.320  1.00  0.00     0.009 C 
HETATM   46  C20 UNL     1       4.077 -14.014  19.019  1.00  0.00     0.009 C 
ENDBRANCH  43  44
ENDBRANCH  42  43
BRANCH  42  47
HETATM   47  N5  UNL     1       7.157 -12.382  17.837  1.00  0.00    -0.330 N 
HETATM   48  C21 UNL     1       8.576 -12.398  18.028  1.00  0.00     0.323 C 
HETATM   49  O4  UNL     1       9.089 -11.446  18.665  1.00  0.00    -0.247 OA
HETATM   50  N6  UNL     1       9.410 -13.418  17.540  1.00  0.00    -0.285 N 
HETATM   51  C22 UNL     1      10.349 -13.878  18.325  1.00  0.00     0.204 C 
ATOM     52  H6  UNL     1       9.286 -13.791  16.599  1.00  0.00     0.172 HD
HETATM   53  N7  UNL     1      10.522 -13.361  19.632  1.00  0.00    -0.066 NA
HETATM   54  N8  UNL     1      11.190 -14.906  17.828  1.00  0.00    -0.066 NA
ATOM     55  H5  UNL     1       6.709 -13.141  17.323  1.00  0.00     0.165 HD
ENDBRANCH  42  47
ENDBRANCH  39  42
ENDBRANCH  36  38
ENDBRANCH   7  36
TORSDOF 12
ENDMDL
MODEL 4
REMARK VINA RESULT: -9.047356083      0.814      1.006
REMARK  12 active torsions:
REMARK  status: ('A' for Active; 'I' for Inactive)
REMARK    1  A    between atoms: C2_2  and  C3_6 
REMARK    2  A    between atoms: C3_6  and  N2_8 
REMARK       I    between atoms: N2_8  and  C5_10 
REMARK    3  A    between atoms: C5_10  and  C6_12 
REMARK    4  A    between atoms: C6_12  and  C7_13 
REMARK    5  A    between atoms: C6_12  and  N9_41 
REMARK       I    between atoms: N3_18  and  C12_19 
REMARK    6  A    between atoms: C12_19  and  C13_21 
REMARK    7  A    between atoms: C13_21  and  N4_23 
REMARK       I    between atoms: N4_23  and  C15_25 
REMARK    8  A    between atoms: C15_25  and  C16_27 
REMARK    9  A    between atoms: C16_27  and  C17_28 
REMARK   10  A    between atoms: C16_27  and  N5_32 
REMARK   11  A    between atoms: C17_28  and  C18_29 
REMARK       I    between atoms: N5_32  and  C21_34 
REMARK       I    between atoms: C21_34  and  N6_36 
REMARK   12  A    between atoms: C31_52  and  O5_53 
ROOT
HETATM    1  C7  UNL     1       4.468  -5.596  15.750  1.00  0.00     0.024 C 
HETATM    2  C8  UNL     1       3.426  -4.733  15.071  1.00  0.00     0.055 C 
HETATM    3  C9  UNL     1       2.109  -4.833  15.880  1.00  0.00     0.007 C 
HETATM    4  C10 UNL     1       2.374  -4.282  17.270  1.00  0.00     0.021 C 
HETATM    5  C11 UNL     1       3.214  -5.329  17.942  1.00  0.00     0.131 C 
HETATM    6  N3  UNL     1       3.914  -6.117  16.950  1.00  0.00    -0.321 N 
HETATM    7  C12 UNL     1       3.964  -7.525  17.282  1.00  0.00     0.246 C 
HETATM    8  O2  UNL     1       3.502  -7.861  18.420  1.00  0.00    -0.271 OA
ENDROOT
BRANCH   1   9
HETATM    9  C6  UNL     1       5.852  -5.085  15.737  1.00  0.00     0.222 C 
BRANCH   9  10
HETATM   10  C5  UNL     1       6.602  -5.582  16.905  1.00  0.00     0.246 C 
HETATM   11  N2  UNL     1       7.418  -6.769  16.898  1.00  0.00    -0.350 N 
ATOM     12  H2  UNL     1       7.482  -7.288  16.022  1.00  0.00     0.163 HD
HETATM   13  O1  UNL     1       6.607  -5.015  18.052  1.00  0.00    -0.271 OA
BRANCH  11  14
HETATM   14  C3  UNL     1       8.145  -7.282  18.017  1.00  0.00     0.125 C 
HETATM   15  C4  UNL     1       7.318  -8.202  18.888  1.00  0.00     0.038 C 
BRANCH  14  16
HETATM   16  C2  UNL     1       9.393  -8.012  17.658  1.00  0.00    -0.002 C 
HETATM   17  C1  UNL     1       9.461  -9.500  17.647  1.00  0.00     0.065 C 
HETATM   18  N1  UNL     1      10.491  -7.386  17.338  1.00  0.00    -0.404 N 
ATOM     19  H12 UNL     1      11.345  -7.887  17.093  1.00  0.00     0.155 HD
ATOM     20  H11 UNL     1      10.444  -6.368  17.345  1.00  0.00     0.155 HD
ENDBRANCH  14  16
ENDBRANCH  11  14
ENDBRANCH   9  10
BRANCH   9  21
HETATM   21  N9  UNL     1       6.040  -3.677  15.509  1.00  0.00    -0.368 N 
HETATM   22  C23 UNL     1       7.016  -3.449  14.446  1.00  0.00     0.123 C 
HETATM   23  C24 UNL     1       6.609  -2.639  13.296  1.00  0.00     0.020 C 
HETATM   24  C25 UNL     1       7.081  -1.216  13.280  1.00  0.00     0.002 C 
HETATM   25  C26 UNL     1       6.243  -0.455  12.288  1.00  0.00     0.000 C 
HETATM   26  C27 UNL     1       5.201   0.421  12.951  1.00  0.00     0.000 C 
HETATM   27  C28 UNL     1       3.822  -0.196  12.882  1.00  0.00     0.002 C 
HETATM   28  C29 UNL     1       3.126  -0.242  14.199  1.00  0.00     0.020 C 
HETATM   29  C30 UNL     1       3.004  -1.604  14.829  1.00  0.00     0.121 C 
HETATM   30  N10 UNL     1       3.556  -1.698  16.164  1.00  0.00    -0.370 N 
HETATM   31  C31 UNL     1       4.862  -1.763  16.616  1.00  0.00     0.151 C 
ATOM     32  H10 UNL     1       2.856  -1.721  16.906  1.00  0.00     0.161 HD
HETATM   33  C32 UNL     1       5.964  -2.716  16.464  1.00  0.00     0.142 C 
BRANCH  31  34
HETATM   34  O5  UNL     1       5.202  -0.740  17.356  1.00  0.00    -0.345 OA
ATOM     35  H5  UNL     1       5.997  -0.887  17.856  1.00  0.00     0.219 HD
ENDBRANCH  31  34
ENDBRANCH   9  21
ENDBRANCH   1   9
BRANCH   7  36
HETATM   36  C13 UNL     1       4.492  -8.599  16.442  1.00  0.00     0.173 C 
HETATM   37  C14 UNL     1       3.426  -8.922  15.402  1.00  0.00     0.042 C 
BRANCH  36  38
HETATM   38  N4  UNL     1       4.654  -9.786  17.306  1.00  0.00    -0.346 N 
HETATM   39  C15 UNL     1       5.573 -10.777  16.893  1.00  0.00     0.241 C 
HETATM   40  O3  UNL     1       6.233 -10.658  15.840  1.00  0.00    -0.271 OA
ATOM     41  H4  UNL     1       4.122  -9.886  18.170  1.00  0.00     0.163 HD
BRANCH  39  42
HETATM   42  C16 UNL     1       5.710 -11.970  17.784  1.00  0.00     0.178 C 
BRANCH  42  43
HETATM   43  C17 UNL     1       6.153 -13.109  16.909  1.00  0.00     0.038 C 
BRANCH  43  44
HETATM   44  C18 UNL     1       7.405 -13.801  17.331  1.00  0.00    -0.020 C 
HETATM   45  C19 UNL     1       8.549 -13.168  16.510  1.00  0.00     0.009 C 
HETATM   46  C20 UNL     1       7.386 -15.270  16.923  1.00  0.00     0.009 C 
ENDBRANCH  43  44
ENDBRANCH  42  43
BRANCH  42  47
HETATM   47  N5  UNL     1       6.529 -11.726  18.916  1.00  0.00    -0.330 N 
HETATM   48  C21 UNL     1       5.950 -11.400  20.184  1.00  0.00     0.323 C 
HETATM   49  O4  UNL     1       4.699 -11.340  20.255  1.00  0.00    -0.247 OA
HETATM   50  N6  UNL     1       6.710 -11.149  21.339  1.00  0.00    -0.285 N 
HETATM   51  C22 UNL     1       6.314 -11.675  22.468  1.00  0.00     0.204 C 
ATOM     52  H6  UNL     1       7.549 -10.570  21.298  1.00  0.00     0.172 HD
HETATM   53  N7  UNL     1       5.148 -12.478  22.526  1.00  0.00    -0.066 NA
HETATM   54  N8  UNL     1       7.082 -11.417  23.631  1.00  0.00    -0.066 NA
ATOM     55  H5  UNL     1       7.544 -11.783  18.825  1.00  0.00     0.165 HD
ENDBRANCH  42  47
ENDBRANCH  39  42
ENDBRANCH  36  38
ENDBRANCH   7  36
TORSDOF 12
ENDMDL
MODEL 5
REMARK VINA RESULT: -9.029849436      1.592      2.119
REMARK  12 active torsions:
REMARK  status: ('A' for Active; 'I' for Inactive)
REMARK    1  A    between atoms: C2_2  and  C3_6 
REMARK    2  A    between atoms: C3_6  and  N2_8 
REMARK       I    between atoms: N2_8  and  C5_10 
REMARK    3  A    between atoms: C5_10  and  C6_12 
REMARK    4  A    between atoms: C6_12  and  C7_13 
REMARK    5  A    between atoms: C6_12  and  N9_41 
REMARK       I    between atoms: N3_18  and  C12_19 
REMARK    6  A    between atoms: C12_19  and  C13_21 
REMARK    7  A    between atoms: C13_21  and  N4_23 
REMARK       I    between atoms: N4_23  and  C15_25 
REMARK    8  A    between atoms: C15_25  and  C16_27 
REMARK    9  A    between atoms: C16_27  and  C17_28 
REMARK   10  A    between atoms: C16_27  and  N5_32 
REMARK   11  A    between atoms: C17_28  and  C18_29 
REMARK       I    between atoms: N5_32  and  C21_34 
REMARK       I    between atoms: C21_34  and  N6_36 
REMARK   12  A    between atoms: C31_52  and  O5_53 
ROOT
HETATM    1  C7  UNL     1       4.269  -5.353  15.672  1.00  0.00     0.024 C 
HETATM    2  C8  UNL     1       3.266  -4.411  15.042  1.00  0.00     0.055 C 
HETATM    3  C9  UNL     1       1.962  -4.460  15.876  1.00  0.00     0.007 C 
HETATM    4  C10 UNL     1       2.287  -3.967  17.276  1.00  0.00     0.021 C 
HETATM    5  C11 UNL     1       3.078  -5.081  17.898  1.00  0.00     0.131 C 
HETATM    6  N3  UNL     1       3.711  -5.877  16.868  1.00  0.00    -0.321 N 
HETATM    7  C12 UNL     1       3.687  -7.295  17.158  1.00  0.00     0.246 C 
HETATM    8  O2  UNL     1       3.230  -7.639  18.296  1.00  0.00    -0.271 OA
ENDROOT
BRANCH   1   9
HETATM    9  C6  UNL     1       5.680  -4.921  15.643  1.00  0.00     0.222 C 
BRANCH   9  10
HETATM   10  C5  UNL     1       6.415  -5.464  16.800  1.00  0.00     0.246 C 
HETATM   11  N2  UNL     1       7.194  -6.675  16.770  1.00  0.00    -0.350 N 
ATOM     12  H2  UNL     1       7.242  -7.178  15.884  1.00  0.00     0.163 HD
HETATM   13  O1  UNL     1       6.438  -4.919  17.958  1.00  0.00    -0.271 OA
BRANCH  11  14
HETATM   14  C3  UNL     1       7.906  -7.231  17.877  1.00  0.00     0.125 C 
HETATM   15  C4  UNL     1       7.200  -8.419  18.497  1.00  0.00     0.038 C 
BRANCH  14  16
HETATM   16  C2  UNL     1       9.299  -7.656  17.565  1.00  0.00    -0.002 C 
HETATM   17  C1  UNL     1      10.314  -6.703  17.038  1.00  0.00     0.065 C 
HETATM   18  N1  UNL     1       9.699  -8.884  17.733  1.00  0.00    -0.404 N 
ATOM     19  H12 UNL     1      10.653  -9.174  17.519  1.00  0.00     0.155 HD
ATOM     20  H11 UNL     1       9.004  -9.537  18.094  1.00  0.00     0.155 HD
ENDBRANCH  14  16
ENDBRANCH  11  14
ENDBRANCH   9  10
BRANCH   9  21
HETATM   21  N9  UNL     1       5.946  -3.525  15.415  1.00  0.00    -0.368 N 
HETATM   22  C23 UNL     1       6.956  -3.352  14.375  1.00  0.00     0.123 C 
HETATM   23  C24 UNL     1       6.619  -2.526  13.214  1.00  0.00     0.020 C 
HETATM   24  C25 UNL     1       7.163  -1.129  13.205  1.00  0.00     0.002 C 
HETATM   25  C26 UNL     1       6.388  -0.330  12.192  1.00  0.00     0.000 C 
HETATM   26  C27 UNL     1       5.378   0.600  12.828  1.00  0.00     0.000 C 
HETATM   27  C28 UNL     1       3.970   0.054  12.729  1.00  0.00     0.002 C 
HETATM   28  C29 UNL     1       3.243   0.049  14.029  1.00  0.00     0.020 C 
HETATM   29  C30 UNL     1       3.036  -1.302  14.659  1.00  0.00     0.121 C 
HETATM   30  N10 UNL     1       3.552  -1.419  16.008  1.00  0.00    -0.370 N 
HETATM   31  C31 UNL     1       4.842  -1.550  16.490  1.00  0.00     0.151 C 
ATOM     32  H10 UNL     1       2.834  -1.404  16.732  1.00  0.00     0.161 HD
HETATM   33  C32 UNL     1       5.897  -2.558  16.366  1.00  0.00     0.142 C 
BRANCH  31  34
HETATM   34  O5  UNL     1       5.217  -0.542  17.235  1.00  0.00    -0.345 OA
ATOM     35  H5  UNL     1       5.777   0.074  16.777  1.00  0.00     0.219 HD
ENDBRANCH  31  34
ENDBRANCH   9  21
ENDBRANCH   1   9
BRANCH   7  36
HETATM   36  C13 UNL     1       4.134  -8.371  16.275  1.00  0.00     0.173 C 
HETATM   37  C14 UNL     1       3.375  -8.221  14.963  1.00  0.00     0.042 C 
BRANCH  36  38
HETATM   38  N4  UNL     1       3.716  -9.644  16.896  1.00  0.00    -0.346 N 
HETATM   39  C15 UNL     1       4.437 -10.810  16.554  1.00  0.00     0.241 C 
HETATM   40  O3  UNL     1       5.401 -10.772  15.760  1.00  0.00    -0.271 OA
ATOM     41  H4  UNL     1       2.933  -9.680  17.549  1.00  0.00     0.163 HD
BRANCH  39  42
HETATM   42  C16 UNL     1       3.985 -12.084  17.193  1.00  0.00     0.178 C 
BRANCH  42  43
HETATM   43  C17 UNL     1       3.556 -12.994  16.076  1.00  0.00     0.038 C 
BRANCH  43  44
HETATM   44  C18 UNL     1       2.432 -12.497  15.231  1.00  0.00    -0.020 C 
HETATM   45  C19 UNL     1       1.243 -13.448  15.487  1.00  0.00     0.009 C 
HETATM   46  C20 UNL     1       2.751 -12.646  13.748  1.00  0.00     0.009 C 
ENDBRANCH  43  44
ENDBRANCH  42  43
BRANCH  42  47
HETATM   47  N5  UNL     1       4.947 -12.632  18.080  1.00  0.00    -0.330 N 
HETATM   48  C21 UNL     1       5.333 -11.930  19.267  1.00  0.00     0.323 C 
HETATM   49  O4  UNL     1       4.792 -10.821  19.490  1.00  0.00    -0.247 OA
HETATM   50  N6  UNL     1       6.280 -12.422  20.182  1.00  0.00    -0.285 N 
HETATM   51  C22 UNL     1       6.020 -12.315  21.458  1.00  0.00     0.204 C 
ATOM     52  H6  UNL     1       7.147 -12.851  19.858  1.00  0.00     0.172 HD
HETATM   53  N7  UNL     1       4.817 -11.719  21.908  1.00  0.00    -0.066 NA
HETATM   54  N8  UNL     1       6.979 -12.811  22.378  1.00  0.00    -0.066 NA
ATOM     55  H5  UNL     1       5.369 -13.536  17.870  1.00  0.00     0.165 HD
ENDBRANCH  42  47
ENDBRANCH  39  42
ENDBRANCH  36  38
ENDBRANCH   7  36
TORSDOF 12
ENDMDL
