MODEL 1
REMARK VINA RESULT: -6.206991497      0.000      0.000
REMARK  11 active torsions:
REMARK  status: ('A' for Active; 'I' for Inactive)
REMARK    1  A    between atoms: C2_2  and  C3_3 
REMARK    2  A    between atoms: C3_3  and  C4_4 
REMARK    3  A    between atoms: C4_4  and  C5_5 
REMARK    4  A    between atoms: C7_10  and  C8_11 
REMARK    5  A    between atoms: C8_11  and  C9_12 
REMARK    6  A    between atoms: C18_26  and  C19_27 
REMARK    7  A    between atoms: C19_27  and  C20_28 
REMARK    8  A    between atoms: C20_28  and  C21_29 
REMARK    9  A    between atoms: C26_40  and  C27_41 
REMARK   10  A    between atoms: C27_41  and  N6_42 
REMARK   11  A    between atoms: N6_42  and  C28_43 
ROOT
HETATM    1  C5  UNL     1       7.043  -9.365  18.466  1.00  0.00     0.176 C 
HETATM    2  N1  UNL     1       6.637 -10.213  19.563  1.00  0.00    -0.346 N 
ATOM      3  H1  UNL     1       6.272  -9.721  20.378  1.00  0.00     0.163 HD
HETATM    4  C6  UNL     1       6.668 -11.591  19.679  1.00  0.00     0.241 C 
HETATM    5  O1  UNL     1       5.600 -12.205  19.939  1.00  0.00    -0.271 OA
HETATM    6  C7  UNL     1       7.901 -12.474  19.521  1.00  0.00     0.177 C 
HETATM    7  N2  UNL     1       7.409 -13.836  19.484  1.00  0.00    -0.346 N 
ATOM      8  H2  UNL     1       7.075 -14.213  20.372  1.00  0.00     0.163 HD
HETATM    9  C12 UNL     1       7.335 -14.693  18.392  1.00  0.00     0.241 C 
HETATM   10  O2  UNL     1       7.259 -15.955  18.599  1.00  0.00    -0.271 OA
HETATM   11  C13 UNL     1       7.334 -14.311  16.958  1.00  0.00     0.179 C 
HETATM   12  C14 UNL     1       8.803 -14.244  16.531  1.00  0.00     0.037 C 
HETATM   13  C15 UNL     1       9.048 -15.683  16.112  1.00  0.00     0.022 C 
HETATM   14  C16 UNL     1       7.791 -16.024  15.390  1.00  0.00     0.127 C 
HETATM   15  N3  UNL     1       6.753 -15.330  16.113  1.00  0.00    -0.337 N 
HETATM   16  C17 UNL     1       5.351 -15.559  16.047  1.00  0.00     0.243 C 
HETATM   17  O3  UNL     1       4.920 -16.664  15.641  1.00  0.00    -0.271 OA
HETATM   18  C18 UNL     1       4.334 -14.533  16.443  1.00  0.00     0.176 C 
HETATM   19  N4  UNL     1       3.818 -13.843  15.279  1.00  0.00    -0.346 N 
ATOM     20  H4  UNL     1       3.779 -14.388  14.418  1.00  0.00     0.163 HD
HETATM   21  C23 UNL     1       3.370 -12.529  15.191  1.00  0.00     0.236 C 
HETATM   22  O4  UNL     1       3.734 -11.865  14.157  1.00  0.00    -0.272 OA
HETATM   23  C24 UNL     1       2.516 -11.806  16.161  1.00  0.00     0.225 C 
HETATM   24  N5  UNL     1       3.174 -11.388  17.354  1.00  0.00    -0.350 N 
ATOM     25  H5  UNL     1       3.424 -12.142  17.993  1.00  0.00     0.163 HD
HETATM   26  C25 UNL     1       3.535 -10.094  17.791  1.00  0.00     0.242 C 
HETATM   27  O5  UNL     1       3.191  -9.768  18.999  1.00  0.00    -0.271 OA
HETATM   28  C26 UNL     1       4.263  -9.067  17.039  1.00  0.00     0.202 C 
HETATM   29  N7  UNL     1       5.484  -9.638  16.425  1.00  0.00    -0.344 N 
ATOM     30  H7  UNL     1       5.457  -9.889  15.436  1.00  0.00     0.163 HD
HETATM   31  C34 UNL     1       6.676  -9.850  17.136  1.00  0.00     0.241 C 
HETATM   32  O6  UNL     1       7.545 -10.566  16.517  1.00  0.00    -0.271 OA
ENDROOT
BRANCH  28  33
HETATM   33  C27 UNL     1       3.485  -8.397  15.997  1.00  0.00     0.272 C 
BRANCH  33  34
HETATM   34  N6  UNL     1       3.249  -7.017  15.930  1.00  0.00    -0.065 N 
HETATM   35  C30 UNL     1       2.521  -6.528  17.116  1.00  0.00     0.237 C 
HETATM   36  C31 UNL     1       3.529  -6.112  18.127  1.00  0.00     0.029 C 
HETATM   37  C32 UNL     1       4.742  -5.757  17.325  1.00  0.00     0.029 C 
HETATM   38  C33 UNL     1       4.559  -6.364  15.979  1.00  0.00     0.237 C 
BRANCH  34  39
HETATM   39  C28 UNL     1       2.535  -6.487  14.807  1.00  0.00     0.233 C 
HETATM   40  C29 UNL     1       1.444  -5.510  15.277  1.00  0.00     0.035 C 
ENDBRANCH  34  39
ENDBRANCH  33  34
ENDBRANCH  28  33
BRANCH   1  41
HETATM   41  C4  UNL     1       8.539  -9.029  18.570  1.00  0.00     0.035 C 
BRANCH  41  42
HETATM   42  C3  UNL     1       8.799  -7.575  18.263  1.00  0.00     0.002 C 
BRANCH  42  43
HETATM   43  C2  UNL     1       9.434  -7.440  16.873  1.00  0.00    -0.004 C 
HETATM   44  C1  UNL     1      10.583  -6.444  16.997  1.00  0.00     0.005 C 
ENDBRANCH  42  43
ENDBRANCH  41  42
ENDBRANCH   1  41
BRANCH  18  45
HETATM   45  C19 UNL     1       3.185 -15.294  17.056  1.00  0.00     0.035 C 
BRANCH  45  46
HETATM   46  C20 UNL     1       2.872 -14.811  18.467  1.00  0.00     0.002 C 
BRANCH  46  47
HETATM   47  C21 UNL     1       3.836 -15.407  19.468  1.00  0.00    -0.004 C 
HETATM   48  C22 UNL     1       3.854 -16.898  19.284  1.00  0.00     0.005 C 
ENDBRANCH  46  47
ENDBRANCH  45  46
ENDBRANCH  18  45
BRANCH   6  49
HETATM   49  C8  UNL     1       8.763 -12.297  20.736  1.00  0.00     0.038 C 
BRANCH  49  50
HETATM   50  C9  UNL     1      10.215 -12.363  20.436  1.00  0.00    -0.020 C 
HETATM   51  C10 UNL     1      11.156 -11.561  21.248  1.00  0.00     0.009 C 
HETATM   52  C11 UNL     1      10.425 -11.986  18.954  1.00  0.00     0.009 C 
ENDBRANCH  49  50
ENDBRANCH   6  49
TORSDOF 11
ENDMDL
MODEL 2
REMARK VINA RESULT: -5.644141020      0.776      1.416
REMARK  11 active torsions:
REMARK  status: ('A' for Active; 'I' for Inactive)
REMARK    1  A    between atoms: C2_2  and  C3_3 
REMARK    2  A    between atoms: C3_3  and  C4_4 
REMARK    3  A    between atoms: C4_4  and  C5_5 
REMARK    4  A    between atoms: C7_10  and  C8_11 
REMARK    5  A    between atoms: C8_11  and  C9_12 
REMARK    6  A    between atoms: C18_26  and  C19_27 
REMARK    7  A    between atoms: C19_27  and  C20_28 
REMARK    8  A    between atoms: C20_28  and  C21_29 
REMARK    9  A    between atoms: C26_40  and  C27_41 
REMARK   10  A    between atoms: C27_41  and  N6_42 
REMARK   11  A    between atoms: N6_42  and  C28_43 
ROOT
HETATM    1  C5  UNL     1       7.195  -9.987  18.574  1.00  0.00     0.176 C 
HETATM    2  N1  UNL     1       6.699 -10.867  19.608  1.00  0.00    -0.346 N 
ATOM      3  H1  UNL     1       6.406 -10.402  20.467  1.00  0.00     0.163 HD
HETATM    4  C6  UNL     1       6.561 -12.243  19.613  1.00  0.00     0.241 C 
HETATM    5  O1  UNL     1       5.429 -12.742  19.845  1.00  0.00    -0.271 OA
HETATM    6  C7  UNL     1       7.675 -13.254  19.359  1.00  0.00     0.177 C 
HETATM    7  N2  UNL     1       7.019 -14.538  19.224  1.00  0.00    -0.346 N 
ATOM      8  H2  UNL     1       6.650 -14.943  20.085  1.00  0.00     0.163 HD
HETATM    9  C12 UNL     1       6.828 -15.287  18.069  1.00  0.00     0.241 C 
HETATM   10  O2  UNL     1       6.600 -16.544  18.175  1.00  0.00    -0.271 OA
HETATM   11  C13 UNL     1       6.860 -14.792  16.670  1.00  0.00     0.179 C 
HETATM   12  C14 UNL     1       8.322 -14.869  16.220  1.00  0.00     0.037 C 
HETATM   13  C15 UNL     1       8.384 -16.288  15.682  1.00  0.00     0.022 C 
HETATM   14  C16 UNL     1       7.087 -16.413  14.961  1.00  0.00     0.127 C 
HETATM   15  N3  UNL     1       6.149 -15.660  15.758  1.00  0.00    -0.337 N 
HETATM   16  C17 UNL     1       4.729 -15.710  15.703  1.00  0.00     0.243 C 
HETATM   17  O3  UNL     1       4.161 -16.718  15.218  1.00  0.00    -0.271 OA
HETATM   18  C18 UNL     1       3.850 -14.604  16.200  1.00  0.00     0.176 C 
HETATM   19  N4  UNL     1       3.411 -13.764  15.105  1.00  0.00    -0.346 N 
ATOM     20  H4  UNL     1       3.296 -14.227  14.204  1.00  0.00     0.163 HD
HETATM   21  C23 UNL     1       3.127 -12.402  15.132  1.00  0.00     0.236 C 
HETATM   22  O4  UNL     1       3.560 -11.705  14.148  1.00  0.00    -0.272 OA
HETATM   23  C24 UNL     1       2.378 -11.663  16.174  1.00  0.00     0.225 C 
HETATM   24  N5  UNL     1       3.096 -11.426  17.383  1.00  0.00    -0.350 N 
ATOM     25  H5  UNL     1       3.258 -12.255  17.954  1.00  0.00     0.163 HD
HETATM   26  C25 UNL     1       3.617 -10.226  17.915  1.00  0.00     0.242 C 
HETATM   27  O5  UNL     1       3.328  -9.960  19.152  1.00  0.00    -0.271 OA
HETATM   28  C26 UNL     1       4.458  -9.238  17.232  1.00  0.00     0.202 C 
HETATM   29  N7  UNL     1       5.593  -9.900  16.550  1.00  0.00    -0.344 N 
ATOM     30  H7  UNL     1       5.525 -10.065  15.545  1.00  0.00     0.163 HD
HETATM   31  C34 UNL     1       6.757 -10.313  17.218  1.00  0.00     0.241 C 
HETATM   32  O6  UNL     1       7.525 -11.077  16.526  1.00  0.00    -0.271 OA
ENDROOT
BRANCH  28  33
HETATM   33  C27 UNL     1       3.757  -8.395  16.263  1.00  0.00     0.272 C 
BRANCH  33  34
HETATM   34  N6  UNL     1       3.633  -7.001  16.349  1.00  0.00    -0.065 N 
HETATM   35  C30 UNL     1       3.796  -6.355  15.032  1.00  0.00     0.237 C 
HETATM   36  C31 UNL     1       2.449  -6.242  14.414  1.00  0.00     0.029 C 
HETATM   37  C32 UNL     1       1.503  -6.213  15.574  1.00  0.00     0.029 C 
HETATM   38  C33 UNL     1       2.253  -6.726  16.752  1.00  0.00     0.237 C 
BRANCH  34  39
HETATM   39  C28 UNL     1       4.502  -6.279  17.230  1.00  0.00     0.233 C 
HETATM   40  C29 UNL     1       5.437  -5.359  16.428  1.00  0.00     0.035 C 
ENDBRANCH  34  39
ENDBRANCH  33  34
ENDBRANCH  28  33
BRANCH   1  41
HETATM   41  C4  UNL     1       8.722  -9.845  18.675  1.00  0.00     0.035 C 
BRANCH  41  42
HETATM   42  C3  UNL     1       9.205  -8.594  17.985  1.00  0.00     0.002 C 
BRANCH  42  43
HETATM   43  C2  UNL     1       8.532  -7.363  18.605  1.00  0.00    -0.004 C 
HETATM   44  C1  UNL     1       9.300  -6.137  18.121  1.00  0.00     0.005 C 
ENDBRANCH  42  43
ENDBRANCH  41  42
ENDBRANCH   1  41
BRANCH  18  45
HETATM   45  C19 UNL     1       2.622 -15.267  16.774  1.00  0.00     0.035 C 
BRANCH  45  46
HETATM   46  C20 UNL     1       2.408 -14.897  18.235  1.00  0.00     0.002 C 
BRANCH  46  47
HETATM   47  C21 UNL     1       3.245 -15.769  19.143  1.00  0.00    -0.004 C 
HETATM   48  C22 UNL     1       3.045 -17.204  18.742  1.00  0.00     0.005 C 
ENDBRANCH  46  47
ENDBRANCH  45  46
ENDBRANCH  18  45
BRANCH   6  49
HETATM   49  C8  UNL     1       8.564 -13.283  20.567  1.00  0.00     0.038 C 
BRANCH  49  50
HETATM   50  C9  UNL     1      10.005 -13.145  20.235  1.00  0.00    -0.020 C 
HETATM   51  C10 UNL     1      10.776 -12.027  20.819  1.00  0.00     0.009 C 
HETATM   52  C11 UNL     1      10.146 -13.071  18.699  1.00  0.00     0.009 C 
ENDBRANCH  49  50
ENDBRANCH   6  49
TORSDOF 11
ENDMDL
MODEL 3
REMARK VINA RESULT: -5.441314883      1.620      2.489
REMARK  11 active torsions:
REMARK  status: ('A' for Active; 'I' for Inactive)
REMARK    1  A    between atoms: C2_2  and  C3_3 
REMARK    2  A    between atoms: C3_3  and  C4_4 
REMARK    3  A    between atoms: C4_4  and  C5_5 
REMARK    4  A    between atoms: C7_10  and  C8_11 
REMARK    5  A    between atoms: C8_11  and  C9_12 
REMARK    6  A    between atoms: C18_26  and  C19_27 
REMARK    7  A    between atoms: C19_27  and  C20_28 
REMARK    8  A    between atoms: C20_28  and  C21_29 
REMARK    9  A    between atoms: C26_40  and  C27_41 
REMARK   10  A    between atoms: C27_41  and  N6_42 
REMARK   11  A    between atoms: N6_42  and  C28_43 
ROOT
HETATM    1  C5  UNL     1       7.448 -10.858  18.499  1.00  0.00     0.176 C 
HETATM    2  N1  UNL     1       6.863 -11.758  19.466  1.00  0.00    -0.346 N 
ATOM      3  H1  UNL     1       6.636 -11.336  20.366  1.00  0.00     0.163 HD
HETATM    4  C6  UNL     1       6.565 -13.105  19.360  1.00  0.00     0.241 C 
HETATM    5  O1  UNL     1       5.384 -13.486  19.573  1.00  0.00    -0.271 OA
HETATM    6  C7  UNL     1       7.549 -14.213  19.001  1.00  0.00     0.177 C 
HETATM    7  N2  UNL     1       6.745 -15.396  18.774  1.00  0.00    -0.346 N 
ATOM      8  H2  UNL     1       6.340 -15.826  19.606  1.00  0.00     0.163 HD
HETATM    9  C12 UNL     1       6.456 -16.018  17.565  1.00  0.00     0.241 C 
HETATM   10  O2  UNL     1       6.082 -17.243  17.572  1.00  0.00    -0.271 OA
HETATM   11  C13 UNL     1       6.531 -15.413  16.211  1.00  0.00     0.179 C 
HETATM   12  C14 UNL     1       7.968 -15.622  15.727  1.00  0.00     0.037 C 
HETATM   13  C15 UNL     1       7.857 -16.988  15.073  1.00  0.00     0.022 C 
HETATM   14  C16 UNL     1       6.547 -16.900  14.370  1.00  0.00     0.127 C 
HETATM   15  N3  UNL     1       5.713 -16.112  15.245  1.00  0.00    -0.337 N 
HETATM   16  C17 UNL     1       4.296 -15.993  15.216  1.00  0.00     0.243 C 
HETATM   17  O3  UNL     1       3.609 -16.883  14.661  1.00  0.00    -0.271 OA
HETATM   18  C18 UNL     1       3.559 -14.838  15.820  1.00  0.00     0.176 C 
HETATM   19  N4  UNL     1       3.210 -13.863  14.808  1.00  0.00    -0.346 N 
ATOM     20  H4  UNL     1       3.032 -14.232  13.874  1.00  0.00     0.163 HD
HETATM   21  C23 UNL     1       3.088 -12.485  14.953  1.00  0.00     0.236 C 
HETATM   22  O4  UNL     1       3.590 -11.762  14.020  1.00  0.00    -0.272 OA
HETATM   23  C24 UNL     1       2.443 -11.753  16.067  1.00  0.00     0.225 C 
HETATM   24  N5  UNL     1       3.196 -11.705  17.277  1.00  0.00    -0.350 N 
ATOM     25  H5  UNL     1       3.265 -12.592  17.774  1.00  0.00     0.163 HD
HETATM   26  C25 UNL     1       3.861 -10.623  17.895  1.00  0.00     0.242 C 
HETATM   27  O5  UNL     1       3.618 -10.430  19.155  1.00  0.00    -0.271 OA
HETATM   28  C26 UNL     1       4.804  -9.685  17.279  1.00  0.00     0.202 C 
HETATM   29  N7  UNL     1       5.846 -10.415  16.521  1.00  0.00    -0.344 N 
ATOM     30  H7  UNL     1       5.749 -10.485  15.508  1.00  0.00     0.163 HD
HETATM   31  C34 UNL     1       6.961 -11.016  17.129  1.00  0.00     0.241 C 
HETATM   32  O6  UNL     1       7.626 -11.802  16.361  1.00  0.00    -0.271 OA
ENDROOT
BRANCH  28  33
HETATM   33  C27 UNL     1       4.197  -8.687  16.397  1.00  0.00     0.272 C 
BRANCH  33  34
HETATM   34  N6  UNL     1       3.914  -7.362  16.756  1.00  0.00    -0.065 N 
HETATM   35  C30 UNL     1       4.221  -6.422  15.660  1.00  0.00     0.237 C 
HETATM   36  C31 UNL     1       2.989  -6.260  14.843  1.00  0.00     0.029 C 
HETATM   37  C32 UNL     1       1.868  -6.562  15.789  1.00  0.00     0.029 C 
HETATM   38  C33 UNL     1       2.464  -7.280  16.947  1.00  0.00     0.237 C 
BRANCH  34  39
HETATM   39  C28 UNL     1       4.544  -6.805  17.915  1.00  0.00     0.233 C 
HETATM   40  C29 UNL     1       5.769  -5.968  17.511  1.00  0.00     0.035 C 
ENDBRANCH  34  39
ENDBRANCH  33  34
ENDBRANCH  28  33
BRANCH   1  41
HETATM   41  C4  UNL     1       8.983 -10.904  18.579  1.00  0.00     0.035 C 
BRANCH  41  42
HETATM   42  C3  UNL     1       9.458 -10.913  20.010  1.00  0.00     0.002 C 
BRANCH  42  43
HETATM   43  C2  UNL     1      10.888 -11.465  20.082  1.00  0.00    -0.004 C 
HETATM   44  C1  UNL     1      11.293 -11.477  21.553  1.00  0.00     0.005 C 
ENDBRANCH  42  43
ENDBRANCH  41  42
ENDBRANCH   1  41
BRANCH  18  45
HETATM   45  C19 UNL     1       2.268 -15.399  16.362  1.00  0.00     0.035 C 
BRANCH  45  46
HETATM   46  C20 UNL     1       2.159 -15.218  17.870  1.00  0.00     0.002 C 
BRANCH  46  47
HETATM   47  C21 UNL     1       0.922 -14.428  18.232  1.00  0.00    -0.004 C 
HETATM   48  C22 UNL     1       0.000 -14.414  17.045  1.00  0.00     0.005 C 
ENDBRANCH  46  47
ENDBRANCH  45  46
ENDBRANCH  18  45
BRANCH   6  49
HETATM   49  C8  UNL     1       8.441 -14.447  20.184  1.00  0.00     0.038 C 
BRANCH  49  50
HETATM   50  C9  UNL     1       9.695 -15.164  19.838  1.00  0.00    -0.020 C 
HETATM   51  C10 UNL     1      10.823 -15.148  20.793  1.00  0.00     0.009 C 
HETATM   52  C11 UNL     1      10.208 -14.621  18.486  1.00  0.00     0.009 C 
ENDBRANCH  49  50
ENDBRANCH   6  49
TORSDOF 11
ENDMDL
MODEL 4
REMARK VINA RESULT: -5.333862649      2.021      6.847
REMARK  11 active torsions:
REMARK  status: ('A' for Active; 'I' for Inactive)
REMARK    1  A    between atoms: C2_2  and  C3_3 
REMARK    2  A    between atoms: C3_3  and  C4_4 
REMARK    3  A    between atoms: C4_4  and  C5_5 
REMARK    4  A    between atoms: C7_10  and  C8_11 
REMARK    5  A    between atoms: C8_11  and  C9_12 
REMARK    6  A    between atoms: C18_26  and  C19_27 
REMARK    7  A    between atoms: C19_27  and  C20_28 
REMARK    8  A    between atoms: C20_28  and  C21_29 
REMARK    9  A    between atoms: C26_40  and  C27_41 
REMARK   10  A    between atoms: C27_41  and  N6_42 
REMARK   11  A    between atoms: N6_42  and  C28_43 
ROOT
HETATM    1  C5  UNL     1       6.778  -9.856  17.978  1.00  0.00     0.176 C 
HETATM    2  N1  UNL     1       6.457 -10.148  16.599  1.00  0.00    -0.346 N 
ATOM      3  H1  UNL     1       7.189  -9.917  15.928  1.00  0.00     0.163 HD
HETATM    4  C6  UNL     1       5.311 -10.693  16.050  1.00  0.00     0.241 C 
HETATM    5  O1  UNL     1       5.406 -11.735  15.350  1.00  0.00    -0.271 OA
HETATM    6  C7  UNL     1       3.896 -10.146  16.209  1.00  0.00     0.177 C 
HETATM    7  N2  UNL     1       3.017 -11.166  15.676  1.00  0.00    -0.346 N 
ATOM      8  H2  UNL     1       3.019 -11.269  14.661  1.00  0.00     0.163 HD
HETATM    9  C12 UNL     1       2.172 -12.021  16.373  1.00  0.00     0.241 C 
HETATM   10  O2  UNL     1       1.192 -12.567  15.753  1.00  0.00    -0.271 OA
HETATM   11  C13 UNL     1       2.267 -12.394  17.807  1.00  0.00     0.179 C 
HETATM   12  C14 UNL     1       1.476 -11.334  18.580  1.00  0.00     0.037 C 
HETATM   13  C15 UNL     1       0.082 -11.934  18.551  1.00  0.00     0.022 C 
HETATM   14  C16 UNL     1       0.352 -13.379  18.790  1.00  0.00     0.127 C 
HETATM   15  N3  UNL     1       1.594 -13.639  18.102  1.00  0.00    -0.337 N 
HETATM   16  C17 UNL     1       2.137 -14.904  17.742  1.00  0.00     0.243 C 
HETATM   17  O3  UNL     1       1.381 -15.900  17.646  1.00  0.00    -0.271 OA
HETATM   18  C18 UNL     1       3.592 -15.122  17.467  1.00  0.00     0.176 C 
HETATM   19  N4  UNL     1       4.259 -15.673  18.628  1.00  0.00    -0.346 N 
ATOM     20  H4  UNL     1       3.692 -16.274  19.226  1.00  0.00     0.163 HD
HETATM   21  C23 UNL     1       5.578 -15.485  19.028  1.00  0.00     0.236 C 
HETATM   22  O4  UNL     1       5.777 -15.284  20.278  1.00  0.00    -0.272 OA
HETATM   23  C24 UNL     1       6.785 -15.489  18.170  1.00  0.00     0.225 C 
HETATM   24  N5  UNL     1       6.970 -14.316  17.380  1.00  0.00    -0.350 N 
ATOM     25  H5  UNL     1       6.309 -14.208  16.612  1.00  0.00     0.163 HD
HETATM   26  C25 UNL     1       7.925 -13.282  17.493  1.00  0.00     0.242 C 
HETATM   27  O5  UNL     1       8.569 -12.959  16.414  1.00  0.00    -0.271 OA
HETATM   28  C26 UNL     1       8.277 -12.519  18.695  1.00  0.00     0.202 C 
HETATM   29  N7  UNL     1       7.059 -12.015  19.368  1.00  0.00    -0.344 N 
ATOM     30  H7  UNL     1       6.709 -12.522  20.181  1.00  0.00     0.163 HD
HETATM   31  C34 UNL     1       6.361 -10.873  18.942  1.00  0.00     0.241 C 
HETATM   32  O6  UNL     1       5.206 -10.721  19.487  1.00  0.00    -0.271 OA
ENDROOT
BRANCH  28  33
HETATM   33  C27 UNL     1       9.086 -13.246  19.674  1.00  0.00     0.272 C 
BRANCH  33  34
HETATM   34  N6  UNL     1       9.806 -12.654  20.721  1.00  0.00    -0.065 N 
HETATM   35  C30 UNL     1       9.000 -12.558  21.953  1.00  0.00     0.237 C 
HETATM   36  C31 UNL     1       9.237 -13.794  22.747  1.00  0.00     0.029 C 
HETATM   37  C32 UNL     1      10.595 -14.260  22.322  1.00  0.00     0.029 C 
HETATM   38  C33 UNL     1      10.906 -13.567  21.043  1.00  0.00     0.237 C 
BRANCH  34  39
HETATM   39  C28 UNL     1      10.360 -11.347  20.533  1.00  0.00     0.233 C 
HETATM   40  C29 UNL     1       9.619 -10.319  21.405  1.00  0.00     0.035 C 
ENDBRANCH  34  39
ENDBRANCH  33  34
ENDBRANCH  28  33
BRANCH   1  41
HETATM   41  C4  UNL     1       6.280  -8.452  18.361  1.00  0.00     0.035 C 
BRANCH  41  42
HETATM   42  C3  UNL     1       7.289  -7.393  17.994  1.00  0.00     0.002 C 
BRANCH  42  43
HETATM   43  C2  UNL     1       6.745  -6.005  18.359  1.00  0.00    -0.004 C 
HETATM   44  C1  UNL     1       6.250  -5.361  17.067  1.00  0.00     0.005 C 
ENDBRANCH  42  43
ENDBRANCH  41  42
ENDBRANCH   1  41
BRANCH  18  45
HETATM   45  C19 UNL     1       3.664 -16.161  16.376  1.00  0.00     0.035 C 
BRANCH  45  46
HETATM   46  C20 UNL     1       3.968 -15.541  15.019  1.00  0.00     0.002 C 
BRANCH  46  47
HETATM   47  C21 UNL     1       2.802 -15.713  14.072  1.00  0.00    -0.004 C 
HETATM   48  C22 UNL     1       2.649 -14.451  13.271  1.00  0.00     0.005 C 
ENDBRANCH  46  47
ENDBRANCH  45  46
ENDBRANCH  18  45
BRANCH   6  49
HETATM   49  C8  UNL     1       3.776  -8.909  15.370  1.00  0.00     0.038 C 
BRANCH  49  50
HETATM   50  C9  UNL     1       3.472  -7.691  16.164  1.00  0.00    -0.020 C 
HETATM   51  C10 UNL     1       2.656  -7.815  17.390  1.00  0.00     0.009 C 
HETATM   52  C11 UNL     1       2.786  -6.665  15.236  1.00  0.00     0.009 C 
ENDBRANCH  49  50
ENDBRANCH   6  49
TORSDOF 11
ENDMDL
MODEL 5
REMARK VINA RESULT: -5.323246430      2.082      6.224
REMARK  11 active torsions:
REMARK  status: ('A' for Active; 'I' for Inactive)
REMARK    1  A    between atoms: C2_2  and  C3_3 
REMARK    2  A    between atoms: C3_3  and  C4_4 
REMARK    3  A    between atoms: C4_4  and  C5_5 
REMARK    4  A    between atoms: C7_10  and  C8_11 
REMARK    5  A    between atoms: C8_11  and  C9_12 
REMARK    6  A    between atoms: C18_26  and  C19_27 
REMARK    7  A    between atoms: C19_27  and  C20_28 
REMARK    8  A    between atoms: C20_28  and  C21_29 
REMARK    9  A    between atoms: C26_40  and  C27_41 
REMARK   10  A    between atoms: C27_41  and  N6_42 
REMARK   11  A    between atoms: N6_42  and  C28_43 
ROOT
HETATM    1  C5  UNL     1       5.167 -10.357  16.469  1.00  0.00     0.176 C 
HETATM    2  N1  UNL     1       5.645 -11.609  15.928  1.00  0.00    -0.346 N 
ATOM      3  H1  UNL     1       6.077 -11.544  15.007  1.00  0.00     0.163 HD
HETATM    4  C6  UNL     1       5.607 -12.882  16.468  1.00  0.00     0.241 C 
HETATM    5  O1  UNL     1       6.683 -13.519  16.603  1.00  0.00    -0.271 OA
HETATM    6  C7  UNL     1       4.354 -13.619  16.930  1.00  0.00     0.177 C 
HETATM    7  N2  UNL     1       4.826 -14.794  17.634  1.00  0.00    -0.346 N 
ATOM      8  H2  UNL     1       5.223 -15.533  17.053  1.00  0.00     0.163 HD
HETATM    9  C12 UNL     1       4.807 -15.040  19.002  1.00  0.00     0.241 C 
HETATM   10  O2  UNL     1       4.884 -16.250  19.416  1.00  0.00    -0.271 OA
HETATM   11  C13 UNL     1       4.703 -14.033  20.087  1.00  0.00     0.179 C 
HETATM   12  C14 UNL     1       3.207 -13.811  20.326  1.00  0.00     0.037 C 
HETATM   13  C15 UNL     1       2.913 -14.894  21.349  1.00  0.00     0.022 C 
HETATM   14  C16 UNL     1       4.108 -14.827  22.236  1.00  0.00     0.127 C 
HETATM   15  N3  UNL     1       5.206 -14.524  21.350  1.00  0.00    -0.337 N 
HETATM   16  C17 UNL     1       6.597 -14.661  21.617  1.00  0.00     0.243 C 
HETATM   17  O3  UNL     1       6.982 -15.438  22.523  1.00  0.00    -0.271 OA
HETATM   18  C18 UNL     1       7.652 -13.913  20.863  1.00  0.00     0.176 C 
HETATM   19  N4  UNL     1       8.086 -12.747  21.604  1.00  0.00    -0.346 N 
ATOM     20  H4  UNL     1       8.054 -12.826  22.620  1.00  0.00     0.163 HD
HETATM   21  C23 UNL     1       8.542 -11.534  21.100  1.00  0.00     0.236 C 
HETATM   22  O4  UNL     1       8.108 -10.473  21.674  1.00  0.00    -0.272 OA
HETATM   23  C24 UNL     1       9.476 -11.326  19.970  1.00  0.00     0.225 C 
HETATM   24  N5  UNL     1       8.915 -11.529  18.675  1.00  0.00    -0.350 N 
ATOM     25  H5  UNL     1       8.706 -12.500  18.446  1.00  0.00     0.163 HD
HETATM   26  C25 UNL     1       8.604 -10.598  17.659  1.00  0.00     0.242 C 
HETATM   27  O5  UNL     1       9.043 -10.865  16.468  1.00  0.00    -0.271 OA
HETATM   28  C26 UNL     1       7.833  -9.358  17.790  1.00  0.00     0.202 C 
HETATM   29  N7  UNL     1       6.563  -9.606  18.509  1.00  0.00    -0.344 N 
ATOM     30  H7  UNL     1       6.511  -9.367  19.499  1.00  0.00     0.163 HD
HETATM   31  C34 UNL     1       5.426 -10.156  17.894  1.00  0.00     0.241 C 
HETATM   32  O6  UNL     1       4.504 -10.522  18.711  1.00  0.00    -0.271 OA
ENDROOT
BRANCH  28  33
HETATM   33  C27 UNL     1       8.538  -8.259  18.452  1.00  0.00     0.272 C 
BRANCH  33  34
HETATM   34  N6  UNL     1       8.452  -6.910  18.083  1.00  0.00    -0.065 N 
HETATM   35  C30 UNL     1       9.689  -6.174  18.409  1.00  0.00     0.237 C 
HETATM   36  C31 UNL     1      10.582  -6.241  17.222  1.00  0.00     0.029 C 
HETATM   37  C32 UNL     1       9.653  -6.426  16.062  1.00  0.00     0.029 C 
HETATM   38  C33 UNL     1       8.351  -6.878  16.622  1.00  0.00     0.237 C 
BRANCH  34  39
HETATM   39  C28 UNL     1       7.389  -6.110  18.615  1.00  0.00     0.233 C 
HETATM   40  C29 UNL     1       6.250  -5.979  17.590  1.00  0.00     0.035 C 
ENDBRANCH  34  39
ENDBRANCH  33  34
ENDBRANCH  28  33
BRANCH   1  41
HETATM   41  C4  UNL     1       3.687 -10.146  16.111  1.00  0.00     0.035 C 
BRANCH  41  42
HETATM   42  C3  UNL     1       3.451  -8.775  15.529  1.00  0.00     0.002 C 
BRANCH  42  43
HETATM   43  C2  UNL     1       2.853  -7.849  16.596  1.00  0.00    -0.004 C 
HETATM   44  C1  UNL     1       2.350  -6.600  15.879  1.00  0.00     0.005 C 
ENDBRANCH  42  43
ENDBRANCH  41  42
ENDBRANCH   1  41
BRANCH  18  45
HETATM   45  C19 UNL     1       8.836 -14.843  20.762  1.00  0.00     0.035 C 
BRANCH  45  46
HETATM   46  C20 UNL     1       8.970 -15.443  19.368  1.00  0.00     0.002 C 
BRANCH  46  47
HETATM   47  C21 UNL     1      10.232 -14.960  18.690  1.00  0.00    -0.004 C 
HETATM   48  C22 UNL     1       9.940 -14.751  17.231  1.00  0.00     0.005 C 
ENDBRANCH  46  47
ENDBRANCH  45  46
ENDBRANCH  18  45
BRANCH   6  49
HETATM   49  C8  UNL     1       3.590 -14.052  15.714  1.00  0.00     0.038 C 
BRANCH  49  50
HETATM   50  C9  UNL     1       2.156 -13.670  15.759  1.00  0.00    -0.020 C 
HETATM   51  C10 UNL     1       1.591 -12.855  14.662  1.00  0.00     0.009 C 
HETATM   52  C11 UNL     1       1.891 -12.930  17.088  1.00  0.00     0.009 C 
ENDBRANCH  49  50
ENDBRANCH   6  49
TORSDOF 11
ENDMDL
