MODEL 1
REMARK VINA RESULT: -9.983955823      0.000      0.000
REMARK  14 active torsions:
REMARK  status: ('A' for Active; 'I' for Inactive)
REMARK    1  A    between atoms: C2_2  and  C3_3 
REMARK    2  A    between atoms: C3_3  and  N1_5 
REMARK    3  A    between atoms: C3_3  and  C8_15 
REMARK       I    between atoms: N1_5  and  C5_7 
REMARK    4  A    between atoms: C5_7  and  C6_9 
REMARK    5  A    between atoms: C6_9  and  C7_10 
REMARK    6  A    between atoms: C7_10  and  S1_11 
REMARK    7  A    between atoms: N2_18  and  C11_19 
REMARK    8  A    between atoms: C15_23  and  C16_24 
REMARK    9  A    between atoms: C16_24  and  N3_25 
REMARK   10  A    between atoms: C16_24  and  C24_35 
REMARK       I    between atoms: N3_25  and  C17_27 
REMARK   11  A    between atoms: C17_27  and  C18_29 
REMARK   12  A    between atoms: C24_35  and  O6_36 
REMARK   13  A    between atoms: C24_35  and  N4_38 
REMARK       I    between atoms: N4_38  and  C25_40 
REMARK       I    between atoms: C25_40  and  N6_42 
REMARK   14  A    between atoms: N6_42  and  C26_44 
ROOT
HETATM    1  C11 UNL     1       4.057  -5.125  15.653  1.00  0.00     0.200 C 
HETATM    2  C12 UNL     1       3.191  -6.181  15.038  1.00  0.00     0.034 C 
HETATM    3  C13 UNL     1       2.476  -6.884  16.164  1.00  0.00     0.003 C 
HETATM    4  C14 UNL     1       3.110  -6.342  17.454  1.00  0.00     0.013 C 
HETATM    5  C15 UNL     1       4.399  -5.753  17.032  1.00  0.00     0.071 C 
ENDROOT
BRANCH   5   6
HETATM    6  C16 UNL     1       5.597  -6.586  16.916  1.00  0.00     0.069 C 
BRANCH   6   7
HETATM    7  N3  UNL     1       6.695  -5.815  16.272  1.00  0.00    -0.326 N 
HETATM    8  C17 UNL     1       7.552  -4.977  16.985  1.00  0.00     0.226 C 
HETATM    9  O5  UNL     1       7.384  -4.883  18.261  1.00  0.00    -0.273 OA
ATOM     10  H3  UNL     1       6.826  -5.903  15.264  1.00  0.00     0.168 HD
BRANCH   8  11
HETATM   11  C18 UNL     1       8.639  -4.184  16.375  1.00  0.00     0.078 C 
HETATM   12  C19 UNL     1       9.560  -4.953  15.503  1.00  0.00     0.014 C 
HETATM   13  C20 UNL     1      10.313  -4.069  14.526  1.00  0.00     0.001 C 
HETATM   14  C21 UNL     1      10.398  -2.649  15.014  1.00  0.00     0.000 C 
HETATM   15  C22 UNL     1       9.037  -2.044  15.110  1.00  0.00     0.001 C 
HETATM   16  C23 UNL     1       8.011  -2.988  15.679  1.00  0.00     0.014 C 
ENDBRANCH   8  11
ENDBRANCH   6   7
BRANCH   6  17
HETATM   17  C24 UNL     1       6.147  -7.480  17.872  1.00  0.00     0.166 C 
BRANCH  17  18
HETATM   18  O6  UNL     1       5.943  -7.214  19.129  1.00  0.00    -0.345 OA
ATOM     19  H6  UNL     1       5.806  -6.304  19.368  1.00  0.00     0.219 HD
ENDBRANCH  17  18
BRANCH  17  20
HETATM   20  N4  UNL     1       6.924  -8.669  17.720  1.00  0.00    -0.309 N 
HETATM   21  C25 UNL     1       6.455  -9.779  17.036  1.00  0.00     0.196 C 
HETATM   22  N5  UNL     1       8.107 -10.400  16.863  1.00  0.00    -0.063 NA
HETATM   23  N6  UNL     1       6.066 -10.700  16.469  1.00  0.00    -0.310 N 
ATOM     24  H6  UNL     1       6.871 -11.326  16.458  1.00  0.00     0.170 HD
ATOM     25  H4  UNL     1       7.858  -8.702  18.129  1.00  0.00     0.170 HD
BRANCH  23  26
HETATM   26  C26 UNL     1       5.118 -11.402  15.808  1.00  0.00     0.187 C 
HETATM   27  N7  UNL     1       4.936 -12.826  16.127  1.00  0.00    -0.070 NA
HETATM   28  S2  UNL     1       4.079 -10.845  14.637  1.00  0.00    -0.044 SA
ENDBRANCH  23  26
ENDBRANCH  17  20
ENDBRANCH   6  17
ENDBRANCH   5   6
BRANCH   1  29
HETATM   29  N2  UNL     1       3.651  -3.812  15.593  1.00  0.00    -0.061 N 
HETATM   30  C10 UNL     1       2.322  -3.400  15.338  1.00  0.00     0.239 C 
HETATM   31  C9  UNL     1       2.470  -1.868  15.106  1.00  0.00     0.042 C 
HETATM   32  C8  UNL     1       3.920  -1.757  14.746  1.00  0.00     0.016 C 
HETATM   33  C28 UNL     1       4.661  -1.661  16.062  1.00  0.00     0.042 C 
HETATM   34  C29 UNL     1       4.300  -3.183  14.408  1.00  0.00     0.250 C 
HETATM   35  C27 UNL     1       4.144  -2.975  16.682  1.00  0.00     0.239 C 
BRANCH  32  36
HETATM   36  C3  UNL     1       4.252  -0.785  13.695  1.00  0.00     0.056 C 
HETATM   37  C4  UNL     1       5.092  -1.423  12.618  1.00  0.00     0.044 C 
BRANCH  36  38
HETATM   38  C2  UNL     1       4.979   0.408  14.207  1.00  0.00    -0.006 C 
HETATM   39  C1  UNL     1       6.249   0.621  13.939  1.00  0.00     0.009 C 
ENDBRANCH  36  38
BRANCH  36  40
HETATM   40  N1  UNL     1       3.007  -0.385  13.047  1.00  0.00    -0.348 N 
HETATM   41  C5  UNL     1       2.955   0.353  11.827  1.00  0.00     0.219 C 
HETATM   42  O1  UNL     1       4.036   0.665  11.315  1.00  0.00    -0.274 OA
ATOM     43  H1  UNL     1       2.127  -0.646  13.490  1.00  0.00     0.163 HD
BRANCH  41  44
HETATM   44  C6  UNL     1       1.647   0.674  11.283  1.00  0.00     0.120 C 
BRANCH  44  45
HETATM   45  C7  UNL     1       1.592   1.677  10.203  1.00  0.00     0.174 C 
BRANCH  45  46
HETATM   46  S1  UNL     1       1.361   3.320  10.796  1.00  0.00     0.102 S 
HETATM   47  O2  UNL     1       0.786   4.277   9.836  1.00  0.00    -0.595 OA
HETATM   48  O3  UNL     1       0.426   3.278  11.996  1.00  0.00    -0.595 OA
HETATM   49  O4  UNL     1       2.835   3.878  11.406  1.00  0.00    -0.595 OA
ENDBRANCH  45  46
ENDBRANCH  44  45
ENDBRANCH  41  44
ENDBRANCH  36  40
ENDBRANCH  32  36
ENDBRANCH   1  29
TORSDOF 14
ENDMDL
MODEL 2
REMARK VINA RESULT: -9.828368819      0.828      1.001
REMARK  14 active torsions:
REMARK  status: ('A' for Active; 'I' for Inactive)
REMARK    1  A    between atoms: C2_2  and  C3_3 
REMARK    2  A    between atoms: C3_3  and  N1_5 
REMARK    3  A    between atoms: C3_3  and  C8_15 
REMARK       I    between atoms: N1_5  and  C5_7 
REMARK    4  A    between atoms: C5_7  and  C6_9 
REMARK    5  A    between atoms: C6_9  and  C7_10 
REMARK    6  A    between atoms: C7_10  and  S1_11 
REMARK    7  A    between atoms: N2_18  and  C11_19 
REMARK    8  A    between atoms: C15_23  and  C16_24 
REMARK    9  A    between atoms: C16_24  and  N3_25 
REMARK   10  A    between atoms: C16_24  and  C24_35 
REMARK       I    between atoms: N3_25  and  C17_27 
REMARK   11  A    between atoms: C17_27  and  C18_29 
REMARK   12  A    between atoms: C24_35  and  O6_36 
REMARK   13  A    between atoms: C24_35  and  N4_38 
REMARK       I    between atoms: N4_38  and  C25_40 
REMARK       I    between atoms: C25_40  and  N6_42 
REMARK   14  A    between atoms: N6_42  and  C26_44 
ROOT
HETATM    1  C11 UNL     1       4.127  -5.168  15.663  1.00  0.00     0.200 C 
HETATM    2  C12 UNL     1       3.221  -6.205  15.072  1.00  0.00     0.034 C 
HETATM    3  C13 UNL     1       2.488  -6.861  16.216  1.00  0.00     0.003 C 
HETATM    4  C14 UNL     1       3.148  -6.316  17.492  1.00  0.00     0.013 C 
HETATM    5  C15 UNL     1       4.454  -5.780  17.052  1.00  0.00     0.071 C 
ENDROOT
BRANCH   5   6
HETATM    6  C16 UNL     1       5.622  -6.657  16.946  1.00  0.00     0.069 C 
BRANCH   6   7
HETATM    7  N3  UNL     1       6.745  -5.934  16.291  1.00  0.00    -0.326 N 
HETATM    8  C17 UNL     1       7.574  -5.042  16.972  1.00  0.00     0.226 C 
HETATM    9  O5  UNL     1       7.354  -4.853  18.229  1.00  0.00    -0.273 OA
ATOM     10  H3  UNL     1       6.917  -6.098  15.299  1.00  0.00     0.168 HD
BRANCH   8  11
HETATM   11  C18 UNL     1       8.685  -4.295  16.348  1.00  0.00     0.078 C 
HETATM   12  C19 UNL     1       9.535  -5.091  15.430  1.00  0.00     0.014 C 
HETATM   13  C20 UNL     1      10.308  -4.225  14.452  1.00  0.00     0.001 C 
HETATM   14  C21 UNL     1      10.486  -2.825  14.971  1.00  0.00     0.000 C 
HETATM   15  C22 UNL     1       9.165  -2.149  15.123  1.00  0.00     0.001 C 
HETATM   16  C23 UNL     1       8.104  -3.049  15.700  1.00  0.00     0.014 C 
ENDBRANCH   8  11
ENDBRANCH   6   7
BRANCH   6  17
HETATM   17  C24 UNL     1       6.142  -7.555  17.915  1.00  0.00     0.166 C 
BRANCH  17  18
HETATM   18  O6  UNL     1       5.897  -7.297  19.165  1.00  0.00    -0.345 OA
ATOM     19  H6  UNL     1       5.234  -6.644  19.357  1.00  0.00     0.219 HD
ENDBRANCH  17  18
BRANCH  17  20
HETATM   20  N4  UNL     1       6.925  -8.743  17.781  1.00  0.00    -0.309 N 
HETATM   21  C25 UNL     1       6.452  -9.873  17.133  1.00  0.00     0.196 C 
HETATM   22  N5  UNL     1       8.107 -10.488  16.950  1.00  0.00    -0.063 NA
HETATM   23  N6  UNL     1       6.061 -10.811  16.595  1.00  0.00    -0.310 N 
ATOM     24  H6  UNL     1       6.871 -11.431  16.588  1.00  0.00     0.170 HD
ATOM     25  H4  UNL     1       7.865  -8.759  18.176  1.00  0.00     0.170 HD
BRANCH  23  26
HETATM   26  C26 UNL     1       5.108 -11.536  15.967  1.00  0.00     0.187 C 
HETATM   27  N7  UNL     1       4.410 -10.946  14.815  1.00  0.00    -0.070 NA
HETATM   28  S2  UNL     1       4.605 -13.076  16.332  1.00  0.00    -0.044 SA
ENDBRANCH  23  26
ENDBRANCH  17  20
ENDBRANCH   6  17
ENDBRANCH   5   6
BRANCH   1  29
HETATM   29  N2  UNL     1       3.766  -3.843  15.579  1.00  0.00    -0.061 N 
HETATM   30  C10 UNL     1       2.486  -3.389  15.182  1.00  0.00     0.239 C 
HETATM   31  C9  UNL     1       2.701  -1.859  14.993  1.00  0.00     0.042 C 
HETATM   32  C8  UNL     1       4.185  -1.786  14.801  1.00  0.00     0.016 C 
HETATM   33  C28 UNL     1       4.774  -1.729  16.194  1.00  0.00     0.042 C 
HETATM   34  C29 UNL     1       4.562  -3.218  14.485  1.00  0.00     0.250 C 
HETATM   35  C27 UNL     1       4.154  -3.035  16.730  1.00  0.00     0.239 C 
BRANCH  32  36
HETATM   36  C3  UNL     1       4.661  -0.810  13.811  1.00  0.00     0.056 C 
HETATM   37  C4  UNL     1       5.622  -1.451  12.842  1.00  0.00     0.044 C 
BRANCH  36  38
HETATM   38  C2  UNL     1       5.333   0.368  14.423  1.00  0.00    -0.006 C 
HETATM   39  C1  UNL     1       6.589   0.667  14.168  1.00  0.00     0.009 C 
ENDBRANCH  36  38
BRANCH  36  40
HETATM   40  N1  UNL     1       3.514  -0.386  13.015  1.00  0.00    -0.348 N 
HETATM   41  C5  UNL     1       3.628   0.326  11.783  1.00  0.00     0.219 C 
HETATM   42  O1  UNL     1       4.772   0.593  11.395  1.00  0.00    -0.274 OA
ATOM     43  H1  UNL     1       2.580  -0.610  13.357  1.00  0.00     0.163 HD
BRANCH  41  44
HETATM   44  C6  UNL     1       2.404   0.675  11.084  1.00  0.00     0.120 C 
BRANCH  44  45
HETATM   45  C7  UNL     1       1.265   1.129  11.903  1.00  0.00     0.174 C 
BRANCH  45  46
HETATM   46  S1  UNL     1       0.279   2.351  11.103  1.00  0.00     0.102 S 
HETATM   47  O2  UNL     1      -1.174   2.249  11.317  1.00  0.00    -0.595 OA
HETATM   48  O3  UNL     1       0.707   3.724  11.600  1.00  0.00    -0.595 OA
HETATM   49  O4  UNL     1       0.656   2.341   9.455  1.00  0.00    -0.595 OA
ENDBRANCH  45  46
ENDBRANCH  44  45
ENDBRANCH  41  44
ENDBRANCH  36  40
ENDBRANCH  32  36
ENDBRANCH   1  29
TORSDOF 14
ENDMDL
MODEL 3
REMARK VINA RESULT: -9.708377575      2.767      9.994
REMARK  14 active torsions:
REMARK  status: ('A' for Active; 'I' for Inactive)
REMARK    1  A    between atoms: C2_2  and  C3_3 
REMARK    2  A    between atoms: C3_3  and  N1_5 
REMARK    3  A    between atoms: C3_3  and  C8_15 
REMARK       I    between atoms: N1_5  and  C5_7 
REMARK    4  A    between atoms: C5_7  and  C6_9 
REMARK    5  A    between atoms: C6_9  and  C7_10 
REMARK    6  A    between atoms: C7_10  and  S1_11 
REMARK    7  A    between atoms: N2_18  and  C11_19 
REMARK    8  A    between atoms: C15_23  and  C16_24 
REMARK    9  A    between atoms: C16_24  and  N3_25 
REMARK   10  A    between atoms: C16_24  and  C24_35 
REMARK       I    between atoms: N3_25  and  C17_27 
REMARK   11  A    between atoms: C17_27  and  C18_29 
REMARK   12  A    between atoms: C24_35  and  O6_36 
REMARK   13  A    between atoms: C24_35  and  N4_38 
REMARK       I    between atoms: N4_38  and  C25_40 
REMARK       I    between atoms: C25_40  and  N6_42 
REMARK   14  A    between atoms: N6_42  and  C26_44 
ROOT
HETATM    1  C11 UNL     1       5.204  -2.563  14.581  1.00  0.00     0.200 C 
HETATM    2  C12 UNL     1       6.266  -3.241  13.770  1.00  0.00     0.034 C 
HETATM    3  C13 UNL     1       7.597  -2.853  14.365  1.00  0.00     0.003 C 
HETATM    4  C14 UNL     1       7.281  -1.772  15.410  1.00  0.00     0.013 C 
HETATM    5  C15 UNL     1       5.934  -1.276  15.054  1.00  0.00     0.071 C 
ENDROOT
BRANCH   5   6
HETATM    6  C16 UNL     1       5.768  -0.216  14.058  1.00  0.00     0.069 C 
BRANCH   6   7
HETATM    7  N3  UNL     1       4.347   0.220  14.007  1.00  0.00    -0.326 N 
HETATM    8  C17 UNL     1       3.568   0.135  12.853  1.00  0.00     0.226 C 
HETATM    9  O5  UNL     1       4.112  -0.356  11.791  1.00  0.00    -0.273 OA
ATOM     10  H3  UNL     1       3.922   0.597  14.854  1.00  0.00     0.168 HD
BRANCH   8  11
HETATM   11  C18 UNL     1       2.160   0.575  12.763  1.00  0.00     0.078 C 
HETATM   12  C19 UNL     1       1.639   0.727  11.383  1.00  0.00     0.014 C 
HETATM   13  C20 UNL     1       0.124   0.676  11.323  1.00  0.00     0.001 C 
HETATM   14  C21 UNL     1      -0.498   1.047  12.641  1.00  0.00     0.000 C 
HETATM   15  C22 UNL     1      -0.121   0.060  13.695  1.00  0.00     0.001 C 
HETATM   16  C23 UNL     1       1.324  -0.360  13.621  1.00  0.00     0.014 C 
ENDBRANCH   8  11
ENDBRANCH   6   7
BRANCH   6  17
HETATM   17  C24 UNL     1       6.611   0.899  13.806  1.00  0.00     0.166 C 
BRANCH  17  18
HETATM   18  O6  UNL     1       6.987   1.609  14.828  1.00  0.00    -0.345 OA
ATOM     19  H6  UNL     1       7.889   1.907  14.847  1.00  0.00     0.219 HD
ENDBRANCH  17  18
BRANCH  17  20
HETATM   20  N4  UNL     1       7.150   1.423  12.592  1.00  0.00    -0.309 N 
HETATM   21  C25 UNL     1       6.404   2.211  11.730  1.00  0.00     0.196 C 
HETATM   22  N5  UNL     1       7.885   2.808  10.957  1.00  0.00    -0.063 NA
HETATM   23  N6  UNL     1       5.786   2.866  11.015  1.00  0.00    -0.310 N 
ATOM     24  H6  UNL     1       6.466   3.149  10.309  1.00  0.00     0.170 HD
ATOM     25  H4  UNL     1       8.117   1.210  12.350  1.00  0.00     0.170 HD
BRANCH  23  26
HETATM   26  C26 UNL     1       4.645   3.464  10.603  1.00  0.00     0.187 C 
HETATM   27  N7  UNL     1       3.603   3.765  11.596  1.00  0.00    -0.070 NA
HETATM   28  S2  UNL     1       4.249   3.934   9.060  1.00  0.00    -0.044 SA
ENDBRANCH  23  26
ENDBRANCH  17  20
ENDBRANCH   6  17
ENDBRANCH   5   6
BRANCH   1  29
HETATM   29  N2  UNL     1       4.487  -3.304  15.492  1.00  0.00    -0.061 N 
HETATM   30  C10 UNL     1       4.689  -3.259  16.891  1.00  0.00     0.239 C 
HETATM   31  C9  UNL     1       3.840  -4.457  17.406  1.00  0.00     0.042 C 
HETATM   32  C8  UNL     1       3.727  -5.297  16.170  1.00  0.00     0.016 C 
HETATM   33  C28 UNL     1       2.542  -4.744  15.407  1.00  0.00     0.042 C 
HETATM   34  C29 UNL     1       4.815  -4.741  15.275  1.00  0.00     0.250 C 
HETATM   35  C27 UNL     1       3.044  -3.292  15.280  1.00  0.00     0.239 C 
BRANCH  32  36
HETATM   36  C3  UNL     1       3.801  -6.752  16.368  1.00  0.00     0.056 C 
HETATM   37  C4  UNL     1       3.372  -7.487  15.124  1.00  0.00     0.044 C 
BRANCH  36  38
HETATM   38  C2  UNL     1       2.969  -7.232  17.504  1.00  0.00    -0.006 C 
HETATM   39  C1  UNL     1       2.204  -8.298  17.409  1.00  0.00     0.009 C 
ENDBRANCH  36  38
BRANCH  36  40
HETATM   40  N1  UNL     1       5.202  -7.103  16.577  1.00  0.00    -0.348 N 
HETATM   41  C5  UNL     1       5.750  -7.435  17.852  1.00  0.00     0.219 C 
HETATM   42  O1  UNL     1       4.978  -7.407  18.818  1.00  0.00    -0.274 OA
ATOM     43  H1  UNL     1       5.823  -7.112  15.768  1.00  0.00     0.163 HD
BRANCH  41  44
HETATM   44  C6  UNL     1       7.160  -7.779  17.917  1.00  0.00     0.120 C 
BRANCH  44  45
HETATM   45  C7  UNL     1       8.037  -6.889  18.699  1.00  0.00     0.174 C 
BRANCH  45  46
HETATM   46  S1  UNL     1       8.897  -5.716  17.705  1.00  0.00     0.102 S 
HETATM   47  O2  UNL     1       8.102  -4.577  17.218  1.00  0.00    -0.595 OA
HETATM   48  O3  UNL     1      10.048  -5.139  18.517  1.00  0.00    -0.595 OA
HETATM   49  O4  UNL     1       9.631  -6.541  16.425  1.00  0.00    -0.595 OA
ENDBRANCH  45  46
ENDBRANCH  44  45
ENDBRANCH  41  44
ENDBRANCH  36  40
ENDBRANCH  32  36
ENDBRANCH   1  29
TORSDOF 14
ENDMDL
MODEL 4
REMARK VINA RESULT: -9.704099034      1.685      1.879
REMARK  14 active torsions:
REMARK  status: ('A' for Active; 'I' for Inactive)
REMARK    1  A    between atoms: C2_2  and  C3_3 
REMARK    2  A    between atoms: C3_3  and  N1_5 
REMARK    3  A    between atoms: C3_3  and  C8_15 
REMARK       I    between atoms: N1_5  and  C5_7 
REMARK    4  A    between atoms: C5_7  and  C6_9 
REMARK    5  A    between atoms: C6_9  and  C7_10 
REMARK    6  A    between atoms: C7_10  and  S1_11 
REMARK    7  A    between atoms: N2_18  and  C11_19 
REMARK    8  A    between atoms: C15_23  and  C16_24 
REMARK    9  A    between atoms: C16_24  and  N3_25 
REMARK   10  A    between atoms: C16_24  and  C24_35 
REMARK       I    between atoms: N3_25  and  C17_27 
REMARK   11  A    between atoms: C17_27  and  C18_29 
REMARK   12  A    between atoms: C24_35  and  O6_36 
REMARK   13  A    between atoms: C24_35  and  N4_38 
REMARK       I    between atoms: N4_38  and  C25_40 
REMARK       I    between atoms: C25_40  and  N6_42 
REMARK   14  A    between atoms: N6_42  and  C26_44 
ROOT
HETATM    1  C11 UNL     1       4.089  -5.312  15.721  1.00  0.00     0.200 C 
HETATM    2  C12 UNL     1       3.241  -6.383  15.104  1.00  0.00     0.034 C 
HETATM    3  C13 UNL     1       2.560  -7.118  16.231  1.00  0.00     0.003 C 
HETATM    4  C14 UNL     1       3.198  -6.575  17.519  1.00  0.00     0.013 C 
HETATM    5  C15 UNL     1       4.466  -5.949  17.086  1.00  0.00     0.071 C 
ENDROOT
BRANCH   5   6
HETATM    6  C16 UNL     1       5.683  -6.749  16.944  1.00  0.00     0.069 C 
BRANCH   6   7
HETATM    7  N3  UNL     1       6.754  -5.940  16.303  1.00  0.00    -0.326 N 
HETATM    8  C17 UNL     1       7.586  -5.079  17.020  1.00  0.00     0.226 C 
HETATM    9  O5  UNL     1       7.417  -5.000  18.297  1.00  0.00    -0.273 OA
ATOM     10  H3  UNL     1       6.886  -6.017  15.295  1.00  0.00     0.168 HD
BRANCH   8  11
HETATM   11  C18 UNL     1       8.646  -4.249  16.413  1.00  0.00     0.078 C 
HETATM   12  C19 UNL     1       9.593  -4.984  15.539  1.00  0.00     0.014 C 
HETATM   13  C20 UNL     1      10.317  -4.071  14.567  1.00  0.00     0.001 C 
HETATM   14  C21 UNL     1      10.354  -2.651  15.059  1.00  0.00     0.000 C 
HETATM   15  C22 UNL     1       8.973  -2.093  15.156  1.00  0.00     0.001 C 
HETATM   16  C23 UNL     1       7.979  -3.073  15.721  1.00  0.00     0.014 C 
ENDBRANCH   8  11
ENDBRANCH   6   7
BRANCH   6  17
HETATM   17  C24 UNL     1       6.264  -7.646  17.879  1.00  0.00     0.166 C 
BRANCH  17  18
HETATM   18  O6  UNL     1       5.894  -7.541  19.120  1.00  0.00    -0.345 OA
ATOM     19  H6  UNL     1       4.967  -7.424  19.293  1.00  0.00     0.219 HD
ENDBRANCH  17  18
BRANCH  17  20
HETATM   20  N4  UNL     1       7.229  -8.687  17.718  1.00  0.00    -0.309 N 
HETATM   21  C25 UNL     1       7.490  -9.616  18.712  1.00  0.00     0.196 C 
HETATM   22  N5  UNL     1       8.243 -10.704  17.530  1.00  0.00    -0.063 NA
HETATM   23  N6  UNL     1       7.707 -10.387  19.536  1.00  0.00    -0.310 N 
ATOM     24  H6  UNL     1       8.357 -11.033  19.088  1.00  0.00     0.170 HD
ATOM     25  H4  UNL     1       7.744  -8.749  16.840  1.00  0.00     0.170 HD
BRANCH  23  26
HETATM   26  C26 UNL     1       7.565 -10.901  20.779  1.00  0.00     0.187 C 
HETATM   27  N7  UNL     1       6.219 -11.261  21.251  1.00  0.00    -0.070 NA
HETATM   28  S2  UNL     1       8.762 -11.204  21.891  1.00  0.00    -0.044 SA
ENDBRANCH  23  26
ENDBRANCH  17  20
ENDBRANCH   6  17
ENDBRANCH   5   6
BRANCH   1  29
HETATM   29  N2  UNL     1       3.649  -4.010  15.683  1.00  0.00    -0.061 N 
HETATM   30  C10 UNL     1       2.330  -3.624  15.347  1.00  0.00     0.239 C 
HETATM   31  C9  UNL     1       2.447  -2.080  15.187  1.00  0.00     0.042 C 
HETATM   32  C8  UNL     1       3.916  -1.915  14.939  1.00  0.00     0.016 C 
HETATM   33  C28 UNL     1       4.556  -1.854  16.309  1.00  0.00     0.042 C 
HETATM   34  C29 UNL     1       4.363  -3.315  14.574  1.00  0.00     0.250 C 
HETATM   35  C27 UNL     1       4.035  -3.205  16.837  1.00  0.00     0.239 C 
BRANCH  32  36
HETATM   36  C3  UNL     1       4.294  -0.891  13.955  1.00  0.00     0.056 C 
HETATM   37  C4  UNL     1       5.089  -1.498  12.827  1.00  0.00     0.044 C 
BRANCH  36  38
HETATM   38  C2  UNL     1       5.090   0.221  14.540  1.00  0.00    -0.006 C 
HETATM   39  C1  UNL     1       6.292   0.528  14.102  1.00  0.00     0.009 C 
ENDBRANCH  36  38
BRANCH  36  40
HETATM   40  N1  UNL     1       3.069  -0.379  13.350  1.00  0.00    -0.348 N 
HETATM   41  C5  UNL     1       3.040   0.356  12.127  1.00  0.00     0.219 C 
HETATM   42  O1  UNL     1       4.126   0.564  11.574  1.00  0.00    -0.274 OA
ATOM     43  H1  UNL     1       2.185  -0.556  13.827  1.00  0.00     0.163 HD
BRANCH  41  44
HETATM   44  C6  UNL     1       1.749   0.796  11.629  1.00  0.00     0.120 C 
BRANCH  44  45
HETATM   45  C7  UNL     1       1.737   1.569  10.374  1.00  0.00     0.174 C 
BRANCH  45  46
HETATM   46  S1  UNL     1       1.599   3.307  10.631  1.00  0.00     0.102 S 
HETATM   47  O2  UNL     1       1.353   4.119   9.429  1.00  0.00    -0.595 OA
HETATM   48  O3  UNL     1       0.443   3.567  11.587  1.00  0.00    -0.595 OA
HETATM   49  O4  UNL     1       2.978   3.833  11.453  1.00  0.00    -0.595 OA
ENDBRANCH  45  46
ENDBRANCH  44  45
ENDBRANCH  41  44
ENDBRANCH  36  40
ENDBRANCH  32  36
ENDBRANCH   1  29
TORSDOF 14
ENDMDL
MODEL 5
REMARK VINA RESULT: -9.695748816      2.793     10.030
REMARK  14 active torsions:
REMARK  status: ('A' for Active; 'I' for Inactive)
REMARK    1  A    between atoms: C2_2  and  C3_3 
REMARK    2  A    between atoms: C3_3  and  N1_5 
REMARK    3  A    between atoms: C3_3  and  C8_15 
REMARK       I    between atoms: N1_5  and  C5_7 
REMARK    4  A    between atoms: C5_7  and  C6_9 
REMARK    5  A    between atoms: C6_9  and  C7_10 
REMARK    6  A    between atoms: C7_10  and  S1_11 
REMARK    7  A    between atoms: N2_18  and  C11_19 
REMARK    8  A    between atoms: C15_23  and  C16_24 
REMARK    9  A    between atoms: C16_24  and  N3_25 
REMARK   10  A    between atoms: C16_24  and  C24_35 
REMARK       I    between atoms: N3_25  and  C17_27 
REMARK   11  A    between atoms: C17_27  and  C18_29 
REMARK   12  A    between atoms: C24_35  and  O6_36 
REMARK   13  A    between atoms: C24_35  and  N4_38 
REMARK       I    between atoms: N4_38  and  C25_40 
REMARK       I    between atoms: C25_40  and  N6_42 
REMARK   14  A    between atoms: N6_42  and  C26_44 
ROOT
HETATM    1  C11 UNL     1       5.045  -3.335  15.109  1.00  0.00     0.200 C 
HETATM    2  C12 UNL     1       6.432  -3.789  14.772  1.00  0.00     0.034 C 
HETATM    3  C13 UNL     1       7.372  -3.097  15.727  1.00  0.00     0.003 C 
HETATM    4  C14 UNL     1       6.510  -2.076  16.485  1.00  0.00     0.013 C 
HETATM    5  C15 UNL     1       5.299  -1.903  15.653  1.00  0.00     0.071 C 
ENDROOT
BRANCH   5   6
HETATM    6  C16 UNL     1       5.284  -0.941  14.550  1.00  0.00     0.069 C 
BRANCH   6   7
HETATM    7  N3  UNL     1       3.905  -0.422  14.344  1.00  0.00    -0.326 N 
HETATM    8  C17 UNL     1       3.414  -0.045  13.094  1.00  0.00     0.226 C 
HETATM    9  O5  UNL     1       4.197  -0.168  12.075  1.00  0.00    -0.273 OA
ATOM     10  H3  UNL     1       3.290  -0.338  15.154  1.00  0.00     0.168 HD
BRANCH   8  11
HETATM   11  C18 UNL     1       2.058   0.490  12.858  1.00  0.00     0.078 C 
HETATM   12  C19 UNL     1       1.682   0.635  11.430  1.00  0.00     0.014 C 
HETATM   13  C20 UNL     1       0.180   0.689  11.225  1.00  0.00     0.001 C 
HETATM   14  C21 UNL     1      -0.534   1.146  12.467  1.00  0.00     0.000 C 
HETATM   15  C22 UNL     1      -0.333   0.169  13.578  1.00  0.00     0.001 C 
HETATM   16  C23 UNL     1       1.078  -0.354  13.654  1.00  0.00     0.014 C 
ENDBRANCH   8  11
ENDBRANCH   6   7
BRANCH   6  17
HETATM   17  C24 UNL     1       6.221   0.085  14.260  1.00  0.00     0.166 C 
BRANCH  17  18
HETATM   18  O6  UNL     1       6.231   1.126  15.039  1.00  0.00    -0.345 OA
ATOM     19  H6  UNL     1       5.999   1.964  14.655  1.00  0.00     0.219 HD
ENDBRANCH  17  18
BRANCH  17  20
HETATM   20  N4  UNL     1       7.200   0.209  13.227  1.00  0.00    -0.309 N 
HETATM   21  C25 UNL     1       7.314   1.348  12.447  1.00  0.00     0.196 C 
HETATM   22  N5  UNL     1       8.955   0.880  11.962  1.00  0.00    -0.063 NA
HETATM   23  N6  UNL     1       7.410   2.293  11.799  1.00  0.00    -0.310 N 
ATOM     24  H6  UNL     1       8.239   2.108  11.236  1.00  0.00     0.170 HD
ATOM     25  H4  UNL     1       7.838  -0.569  13.058  1.00  0.00     0.170 HD
BRANCH  23  26
HETATM   26  C26 UNL     1       7.017   3.518  11.381  1.00  0.00     0.187 C 
HETATM   27  N7  UNL     1       7.970   4.635  11.460  1.00  0.00    -0.070 NA
HETATM   28  S2  UNL     1       5.540   3.947  10.753  1.00  0.00    -0.044 SA
ENDBRANCH  23  26
ENDBRANCH  17  20
ENDBRANCH   6  17
ENDBRANCH   5   6
BRANCH   1  29
HETATM   29  N2  UNL     1       4.217  -4.184  15.806  1.00  0.00    -0.061 N 
HETATM   30  C10 UNL     1       3.906  -4.044  17.179  1.00  0.00     0.239 C 
HETATM   31  C9  UNL     1       3.186  -5.382  17.513  1.00  0.00     0.042 C 
HETATM   32  C8  UNL     1       3.678  -6.271  16.411  1.00  0.00     0.016 C 
HETATM   33  C28 UNL     1       2.749  -6.025  15.243  1.00  0.00     0.042 C 
HETATM   34  C29 UNL     1       4.877  -5.518  15.873  1.00  0.00     0.250 C 
HETATM   35  C27 UNL     1       2.966  -4.503  15.128  1.00  0.00     0.239 C 
BRANCH  32  36
HETATM   36  C3  UNL     1       3.965  -7.663  16.784  1.00  0.00     0.056 C 
HETATM   37  C4  UNL     1       3.588  -8.607  15.670  1.00  0.00     0.044 C 
BRANCH  36  38
HETATM   38  C2  UNL     1       3.260  -8.097  18.021  1.00  0.00    -0.006 C 
HETATM   39  C1  UNL     1       2.108  -8.730  17.984  1.00  0.00     0.009 C 
ENDBRANCH  36  38
BRANCH  36  40
HETATM   40  N1  UNL     1       5.409  -7.794  16.947  1.00  0.00    -0.348 N 
HETATM   41  C5  UNL     1       6.024  -8.800  17.751  1.00  0.00     0.219 C 
HETATM   42  O1  UNL     1       5.271  -9.586  18.338  1.00  0.00    -0.274 OA
ATOM     43  H1  UNL     1       6.012  -7.130  16.460  1.00  0.00     0.163 HD
BRANCH  41  44
HETATM   44  C6  UNL     1       7.475  -8.825  17.815  1.00  0.00     0.120 C 
BRANCH  44  45
HETATM   45  C7  UNL     1       8.123  -7.938  18.798  1.00  0.00     0.174 C 
BRANCH  45  46
HETATM   46  S1  UNL     1       8.314  -6.285  18.220  1.00  0.00     0.102 S 
HETATM   47  O2  UNL     1       9.524  -5.578  18.672  1.00  0.00    -0.595 OA
HETATM   48  O3  UNL     1       8.353  -6.303  16.698  1.00  0.00    -0.595 OA
HETATM   49  O4  UNL     1       6.917  -5.419  18.614  1.00  0.00    -0.595 OA
ENDBRANCH  45  46
ENDBRANCH  44  45
ENDBRANCH  41  44
ENDBRANCH  36  40
ENDBRANCH  32  36
ENDBRANCH   1  29
TORSDOF 14
ENDMDL
