MODEL 1
REMARK VINA RESULT: -11.457708171      0.000      0.000
REMARK  11 active torsions:
REMARK  status: ('A' for Active; 'I' for Inactive)
REMARK    1  A    between atoms: C7_9  and  C8_10 
REMARK    2  A    between atoms: C8_10  and  C9_11 
REMARK    3  A    between atoms: C9_11  and  C10_12 
REMARK    4  A    between atoms: C10_12  and  C11_13 
REMARK    5  A    between atoms: C11_13  and  C12_14 
REMARK       I    between atoms: C12_14  and  N2_16 
REMARK    6  A    between atoms: N2_16  and  C13_18 
REMARK    7  A    between atoms: C13_18  and  C14_19 
REMARK       I    between atoms: C14_19  and  N3_21 
REMARK    8  A    between atoms: C23_32  and  C24_33 
REMARK    9  A    between atoms: C25_36  and  C26_37 
REMARK       I    between atoms: C26_37  and  N6_39 
REMARK   10  A    between atoms: N6_39  and  C27_41 
REMARK   11  A    between atoms: C27_41  and  C28_42 
ROOT
HETATM    1  C14 UNL     1       7.720  -2.948  16.003  1.00  0.00     0.243 C 
HETATM    2  O2  UNL     1       8.522  -3.841  15.661  1.00  0.00    -0.271 OA
HETATM    3  N3  UNL     1       6.574  -3.206  16.733  1.00  0.00    -0.297 N 
HETATM    4  C15 UNL     1       5.738  -1.941  16.922  1.00  0.00     0.261 C 
HETATM    5  N4  UNL     1       4.491  -2.441  16.392  1.00  0.00    -0.330 N 
HETATM    6  C16 UNL     1       4.376  -2.444  14.985  1.00  0.00     0.230 C 
HETATM    7  O3  UNL     1       4.605  -1.557  14.169  1.00  0.00    -0.273 OA
HETATM    8  C17 UNL     1       3.872  -3.835  14.498  1.00  0.00     0.112 C 
HETATM    9  C18 UNL     1       4.804  -4.791  15.120  1.00  0.00     0.029 C 
HETATM   10  C19 UNL     1       4.873  -4.970  16.574  1.00  0.00     0.044 C 
HETATM   11  C20 UNL     1       3.660  -4.503  17.362  1.00  0.00     0.036 C 
HETATM   12  C21 UNL     1       3.365  -3.040  17.087  1.00  0.00     0.093 C 
HETATM   13  C22 UNL     1       2.144  -3.077  16.157  1.00  0.00     0.066 C 
HETATM   14  C23 UNL     1       2.443  -3.848  14.883  1.00  0.00    -0.000 C 
HETATM   15  C25 UNL     1       6.108  -4.411  17.278  1.00  0.00     0.088 C 
ENDROOT
BRANCH   1  16
HETATM   16  C13 UNL     1       8.117  -1.565  15.551  1.00  0.00     0.225 C 
BRANCH  16  17
HETATM   17  N2  UNL     1       7.808  -1.300  14.183  1.00  0.00    -0.352 N 
HETATM   18  C12 UNL     1       8.031  -0.039  13.543  1.00  0.00     0.217 C 
HETATM   19  O1  UNL     1       8.526   0.884  14.230  1.00  0.00    -0.274 OA
ATOM     20  H2  UNL     1       7.404  -2.054  13.627  1.00  0.00     0.162 HD
BRANCH  18  21
HETATM   21  C11 UNL     1       7.682   0.180  12.101  1.00  0.00     0.103 C 
BRANCH  21  22
HETATM   22  C10 UNL     1       7.529   1.649  11.810  1.00  0.00     0.010 C 
BRANCH  22  23
HETATM   23  C9  UNL     1       6.108   2.026  11.494  1.00  0.00     0.006 C 
BRANCH  23  24
HETATM   24  C8  UNL     1       5.151   1.413  12.519  1.00  0.00     0.057 C 
BRANCH  24  25
HETATM   25  C7  UNL     1       3.774   1.424  12.011  1.00  0.00     0.010 A 
HETATM   26  N1  UNL     1       3.358   2.051  10.890  1.00  0.00    -0.362 N 
HETATM   27  C6  UNL     1       2.057   1.890  10.698  1.00  0.00     0.016 A 
ATOM     28  H1  UNL     1       3.968   2.581  10.268  1.00  0.00     0.165 HD
HETATM   29  C5  UNL     1       1.045   2.298   9.691  1.00  0.00     0.057 C 
HETATM   30  C33 UNL     1       1.609   1.116  11.759  1.00  0.00    -0.030 A 
HETATM   31  C4  UNL     1      -0.141   2.884  10.386  1.00  0.00     0.007 C 
HETATM   32  C3  UNL     1      -0.616   2.109  11.568  1.00  0.00     0.009 C 
HETATM   33  C2  UNL     1       0.145   0.811  11.759  1.00  0.00     0.016 C 
HETATM   34  C1  UNL     1      -0.201   0.187  13.094  1.00  0.00     0.015 C 
HETATM   35  C32 UNL     1       2.681   0.822  12.582  1.00  0.00     0.034 A 
ENDBRANCH  24  25
ENDBRANCH  23  24
ENDBRANCH  22  23
ENDBRANCH  21  22
ENDBRANCH  18  21
ENDBRANCH  16  17
ENDBRANCH   1  16
BRANCH  15  36
HETATM   36  C26 UNL     1       7.044  -5.415  17.788  1.00  0.00     0.265 C 
HETATM   37  O5  UNL     1       7.280  -5.653  19.001  1.00  0.00    -0.266 OA
HETATM   38  N6  UNL     1       7.801  -6.255  16.889  1.00  0.00    -0.340 N 
ATOM     39  H6  UNL     1       7.672  -6.139  15.885  1.00  0.00     0.164 HD
BRANCH  38  40
HETATM   40  C27 UNL     1       8.729  -7.249  17.355  1.00  0.00     0.088 C 
HETATM   41  C29 UNL     1       9.732  -6.751  18.367  1.00  0.00     0.039 C 
HETATM   42  C30 UNL     1      10.706  -6.435  17.235  1.00  0.00     0.006 C 
HETATM   43  C31 UNL     1       9.916  -7.401  16.386  1.00  0.00     0.039 C 
BRANCH  40  44
HETATM   44  C28 UNL     1       8.187  -8.561  17.736  1.00  0.00     0.115 C 
HETATM   45  N7  UNL     1       7.510  -8.711  18.822  1.00  0.00    -0.389 N 
ATOM     46  H72 UNL     1       7.364  -7.876  19.391  1.00  0.00     0.157 HD
ATOM     47  H71 UNL     1       7.134  -9.622  19.086  1.00  0.00     0.157 HD
HETATM   48  N8  UNL     1       8.388  -9.717  16.948  1.00  0.00    -0.085 NA
ENDBRANCH  40  44
ENDBRANCH  38  40
ENDBRANCH  15  36
BRANCH  14  49
HETATM   49  C24 UNL     1       1.750  -5.138  14.780  1.00  0.00     0.258 C 
HETATM   50  N5  UNL     1       0.389  -5.264  15.154  1.00  0.00    -0.058 NA
HETATM   51  O4  UNL     1       2.350  -6.140  14.360  1.00  0.00    -0.272 OA
ENDBRANCH  14  49
TORSDOF 11
ENDMDL
MODEL 2
REMARK VINA RESULT: -11.363465230      0.577      1.250
REMARK  11 active torsions:
REMARK  status: ('A' for Active; 'I' for Inactive)
REMARK    1  A    between atoms: C7_9  and  C8_10 
REMARK    2  A    between atoms: C8_10  and  C9_11 
REMARK    3  A    between atoms: C9_11  and  C10_12 
REMARK    4  A    between atoms: C10_12  and  C11_13 
REMARK    5  A    between atoms: C11_13  and  C12_14 
REMARK       I    between atoms: C12_14  and  N2_16 
REMARK    6  A    between atoms: N2_16  and  C13_18 
REMARK    7  A    between atoms: C13_18  and  C14_19 
REMARK       I    between atoms: C14_19  and  N3_21 
REMARK    8  A    between atoms: C23_32  and  C24_33 
REMARK    9  A    between atoms: C25_36  and  C26_37 
REMARK       I    between atoms: C26_37  and  N6_39 
REMARK   10  A    between atoms: N6_39  and  C27_41 
REMARK   11  A    between atoms: C27_41  and  C28_42 
ROOT
HETATM    1  C14 UNL     1       7.694  -2.948  16.034  1.00  0.00     0.243 C 
HETATM    2  O2  UNL     1       8.495  -3.843  15.695  1.00  0.00    -0.271 OA
HETATM    3  N3  UNL     1       6.542  -3.204  16.754  1.00  0.00    -0.297 N 
HETATM    4  C15 UNL     1       5.709  -1.935  16.942  1.00  0.00     0.261 C 
HETATM    5  N4  UNL     1       4.465  -2.428  16.401  1.00  0.00    -0.330 N 
HETATM    6  C16 UNL     1       4.360  -2.426  14.993  1.00  0.00     0.230 C 
HETATM    7  O3  UNL     1       4.599  -1.537  14.181  1.00  0.00    -0.273 OA
HETATM    8  C17 UNL     1       3.854  -3.813  14.497  1.00  0.00     0.112 C 
HETATM    9  C18 UNL     1       4.777  -4.775  15.123  1.00  0.00     0.029 C 
HETATM   10  C19 UNL     1       4.835  -4.959  16.576  1.00  0.00     0.044 C 
HETATM   11  C20 UNL     1       3.618  -4.491  17.357  1.00  0.00     0.036 C 
HETATM   12  C21 UNL     1       3.331  -3.026  17.085  1.00  0.00     0.093 C 
HETATM   13  C22 UNL     1       2.117  -3.054  16.146  1.00  0.00     0.066 C 
HETATM   14  C23 UNL     1       2.422  -3.822  14.871  1.00  0.00    -0.000 C 
HETATM   15  C25 UNL     1       6.067  -4.408  17.292  1.00  0.00     0.088 C 
ENDROOT
BRANCH   1  16
HETATM   16  C13 UNL     1       8.100  -1.565  15.590  1.00  0.00     0.225 C 
BRANCH  16  17
HETATM   17  N2  UNL     1       7.730  -1.264  14.245  1.00  0.00    -0.352 N 
HETATM   18  C12 UNL     1       7.970  -0.002  13.612  1.00  0.00     0.217 C 
HETATM   19  O1  UNL     1       8.539   0.887  14.285  1.00  0.00    -0.274 OA
ATOM     20  H2  UNL     1       7.265  -1.992  13.701  1.00  0.00     0.162 HD
BRANCH  18  21
HETATM   21  C11 UNL     1       7.553   0.255  12.194  1.00  0.00     0.103 C 
BRANCH  21  22
HETATM   22  C10 UNL     1       7.837   1.682  11.811  1.00  0.00     0.010 C 
BRANCH  22  23
HETATM   23  C9  UNL     1       6.580   2.482  11.607  1.00  0.00     0.006 C 
BRANCH  23  24
HETATM   24  C8  UNL     1       5.627   1.748  10.659  1.00  0.00     0.057 C 
BRANCH  24  25
HETATM   25  C7  UNL     1       4.285   1.656  11.245  1.00  0.00     0.010 A 
HETATM   26  N1  UNL     1       3.900   0.763  12.183  1.00  0.00    -0.362 N 
HETATM   27  C6  UNL     1       2.625   0.920  12.507  1.00  0.00     0.016 A 
ATOM     28  H1  UNL     1       4.513   0.057  12.590  1.00  0.00     0.165 HD
HETATM   29  C5  UNL     1       1.653   0.293  13.438  1.00  0.00     0.057 C 
HETATM   30  C33 UNL     1       2.162   1.973  11.732  1.00  0.00    -0.030 A 
HETATM   31  C4  UNL     1       0.393  -0.029  12.701  1.00  0.00     0.007 C 
HETATM   32  C3  UNL     1      -0.104   1.059  11.811  1.00  0.00     0.009 C 
HETATM   33  C2  UNL     1       0.722   2.327  11.924  1.00  0.00     0.016 C 
HETATM   34  C1  UNL     1       0.334   3.307  10.838  1.00  0.00     0.015 C 
HETATM   35  C32 UNL     1       3.199   2.436  10.943  1.00  0.00     0.034 A 
ENDBRANCH  24  25
ENDBRANCH  23  24
ENDBRANCH  22  23
ENDBRANCH  21  22
ENDBRANCH  18  21
ENDBRANCH  16  17
ENDBRANCH   1  16
BRANCH  15  36
HETATM   36  C26 UNL     1       6.994  -5.418  17.805  1.00  0.00     0.265 C 
HETATM   37  O5  UNL     1       7.230  -5.653  19.019  1.00  0.00    -0.266 OA
HETATM   38  N6  UNL     1       7.743  -6.269  16.909  1.00  0.00    -0.340 N 
ATOM     39  H6  UNL     1       7.613  -6.156  15.904  1.00  0.00     0.164 HD
BRANCH  38  40
HETATM   40  C27 UNL     1       8.663  -7.269  17.378  1.00  0.00     0.088 C 
HETATM   41  C29 UNL     1       9.678  -6.773  18.379  1.00  0.00     0.039 C 
HETATM   42  C30 UNL     1      10.648  -6.478  17.237  1.00  0.00     0.006 C 
HETATM   43  C31 UNL     1       9.842  -7.443  16.403  1.00  0.00     0.039 C 
BRANCH  40  44
HETATM   44  C28 UNL     1       8.109  -8.571  17.775  1.00  0.00     0.115 C 
HETATM   45  N7  UNL     1       7.428  -8.701  18.861  1.00  0.00    -0.389 N 
ATOM     46  H72 UNL     1       7.289  -7.859  19.419  1.00  0.00     0.157 HD
ATOM     47  H71 UNL     1       7.044  -9.606  19.136  1.00  0.00     0.157 HD
HETATM   48  N8  UNL     1       8.301  -9.738  17.002  1.00  0.00    -0.085 NA
ENDBRANCH  40  44
ENDBRANCH  38  40
ENDBRANCH  15  36
BRANCH  14  49
HETATM   49  C24 UNL     1       1.724  -5.108  14.758  1.00  0.00     0.258 C 
HETATM   50  N5  UNL     1       0.371  -5.239  15.159  1.00  0.00    -0.058 NA
HETATM   51  O4  UNL     1       2.314  -6.103  14.306  1.00  0.00    -0.272 OA
ENDBRANCH  14  49
TORSDOF 11
ENDMDL
MODEL 3
REMARK VINA RESULT: -10.515681565      1.020      1.505
REMARK  11 active torsions:
REMARK  status: ('A' for Active; 'I' for Inactive)
REMARK    1  A    between atoms: C7_9  and  C8_10 
REMARK    2  A    between atoms: C8_10  and  C9_11 
REMARK    3  A    between atoms: C9_11  and  C10_12 
REMARK    4  A    between atoms: C10_12  and  C11_13 
REMARK    5  A    between atoms: C11_13  and  C12_14 
REMARK       I    between atoms: C12_14  and  N2_16 
REMARK    6  A    between atoms: N2_16  and  C13_18 
REMARK    7  A    between atoms: C13_18  and  C14_19 
REMARK       I    between atoms: C14_19  and  N3_21 
REMARK    8  A    between atoms: C23_32  and  C24_33 
REMARK    9  A    between atoms: C25_36  and  C26_37 
REMARK       I    between atoms: C26_37  and  N6_39 
REMARK   10  A    between atoms: N6_39  and  C27_41 
REMARK   11  A    between atoms: C27_41  and  C28_42 
ROOT
HETATM    1  C14 UNL     1       7.599  -2.708  15.821  1.00  0.00     0.243 C 
HETATM    2  O2  UNL     1       8.458  -3.557  15.504  1.00  0.00    -0.271 OA
HETATM    3  N3  UNL     1       6.481  -3.015  16.574  1.00  0.00    -0.297 N 
HETATM    4  C15 UNL     1       5.560  -1.804  16.724  1.00  0.00     0.261 C 
HETATM    5  N4  UNL     1       4.347  -2.409  16.229  1.00  0.00    -0.330 N 
HETATM    6  C16 UNL     1       4.219  -2.476  14.825  1.00  0.00     0.230 C 
HETATM    7  O3  UNL     1       4.378  -1.609  13.972  1.00  0.00    -0.273 OA
HETATM    8  C17 UNL     1       3.808  -3.916  14.399  1.00  0.00     0.112 C 
HETATM    9  C18 UNL     1       4.810  -4.781  15.046  1.00  0.00     0.029 C 
HETATM   10  C19 UNL     1       4.905  -4.897  16.504  1.00  0.00     0.044 C 
HETATM   11  C20 UNL     1       3.669  -4.484  17.288  1.00  0.00     0.036 C 
HETATM   12  C21 UNL     1       3.271  -3.057  16.961  1.00  0.00     0.093 C 
HETATM   13  C22 UNL     1       2.047  -3.214  16.048  1.00  0.00     0.066 C 
HETATM   14  C23 UNL     1       2.387  -4.013  14.801  1.00  0.00    -0.000 C 
HETATM   15  C25 UNL     1       6.104  -4.227  17.172  1.00  0.00     0.088 C 
ENDROOT
BRANCH   1  16
HETATM   16  C13 UNL     1       7.895  -1.320  15.311  1.00  0.00     0.225 C 
BRANCH  16  17
HETATM   17  N2  UNL     1       7.740  -1.185  13.898  1.00  0.00    -0.352 N 
HETATM   18  C12 UNL     1       7.227  -0.011  13.259  1.00  0.00     0.217 C 
HETATM   19  O1  UNL     1       6.895   0.951  13.988  1.00  0.00    -0.274 OA
ATOM     20  H2  UNL     1       8.012  -1.972  13.309  1.00  0.00     0.162 HD
BRANCH  18  21
HETATM   21  C11 UNL     1       7.085   0.070  11.768  1.00  0.00     0.103 C 
BRANCH  21  22
HETATM   22  C10 UNL     1       7.443   1.446  11.277  1.00  0.00     0.010 C 
BRANCH  22  23
HETATM   23  C9  UNL     1       6.358   2.053  10.430  1.00  0.00     0.006 C 
BRANCH  23  24
HETATM   24  C8  UNL     1       5.448   2.941  11.282  1.00  0.00     0.057 C 
BRANCH  24  25
HETATM   25  C7  UNL     1       4.064   2.457  11.237  1.00  0.00     0.010 A 
HETATM   26  N1  UNL     1       3.124   2.851  10.351  1.00  0.00    -0.362 N 
HETATM   27  C6  UNL     1       1.967   2.245  10.569  1.00  0.00     0.016 A 
ATOM     28  H1  UNL     1       3.285   3.531   9.608  1.00  0.00     0.165 HD
HETATM   29  C5  UNL     1       0.610   2.236   9.964  1.00  0.00     0.057 C 
HETATM   30  C33 UNL     1       2.172   1.413  11.660  1.00  0.00    -0.030 A 
HETATM   31  C4  UNL     1      -0.416   2.409  11.037  1.00  0.00     0.007 C 
HETATM   32  C3  UNL     1      -0.194   1.572  12.251  1.00  0.00     0.009 C 
HETATM   33  C2  UNL     1       0.980   0.624  12.100  1.00  0.00     0.016 C 
HETATM   34  C1  UNL     1       1.313  -0.021  13.428  1.00  0.00     0.015 C 
HETATM   35  C32 UNL     1       3.484   1.542  12.079  1.00  0.00     0.034 A 
ENDBRANCH  24  25
ENDBRANCH  23  24
ENDBRANCH  22  23
ENDBRANCH  21  22
ENDBRANCH  18  21
ENDBRANCH  16  17
ENDBRANCH   1  16
BRANCH  15  36
HETATM   36  C26 UNL     1       7.112  -5.143  17.709  1.00  0.00     0.265 C 
HETATM   37  O5  UNL     1       7.330  -5.365  18.928  1.00  0.00    -0.266 OA
HETATM   38  N6  UNL     1       7.972  -5.905  16.833  1.00  0.00    -0.340 N 
ATOM     39  H6  UNL     1       7.865  -5.795  15.825  1.00  0.00     0.164 HD
BRANCH  38  40
HETATM   40  C27 UNL     1       8.972  -6.811  17.326  1.00  0.00     0.088 C 
HETATM   41  C29 UNL     1       8.995  -8.158  16.646  1.00  0.00     0.039 C 
HETATM   42  C30 UNL     1       8.041  -8.702  17.708  1.00  0.00     0.006 C 
HETATM   43  C31 UNL     1       8.481  -7.553  18.583  1.00  0.00     0.039 C 
BRANCH  40  44
HETATM   44  C28 UNL     1      10.331  -6.285  17.520  1.00  0.00     0.115 C 
HETATM   45  N7  UNL     1      11.366  -7.023  17.314  1.00  0.00    -0.389 N 
ATOM     46  H72 UNL     1      11.192  -7.979  17.002  1.00  0.00     0.157 HD
ATOM     47  H71 UNL     1      12.309  -6.658  17.449  1.00  0.00     0.157 HD
HETATM   48  N8  UNL     1      10.571  -4.961  17.951  1.00  0.00    -0.085 NA
ENDBRANCH  40  44
ENDBRANCH  38  40
ENDBRANCH  15  36
BRANCH  14  49
HETATM   49  C24 UNL     1       1.784  -5.350  14.756  1.00  0.00     0.258 C 
HETATM   50  N5  UNL     1       0.442  -5.557  15.163  1.00  0.00    -0.058 NA
HETATM   51  O4  UNL     1       2.445  -6.323  14.358  1.00  0.00    -0.272 OA
ENDBRANCH  14  49
TORSDOF 11
ENDMDL
MODEL 4
REMARK VINA RESULT: -10.401609101      0.915      1.227
REMARK  11 active torsions:
REMARK  status: ('A' for Active; 'I' for Inactive)
REMARK    1  A    between atoms: C7_9  and  C8_10 
REMARK    2  A    between atoms: C8_10  and  C9_11 
REMARK    3  A    between atoms: C9_11  and  C10_12 
REMARK    4  A    between atoms: C10_12  and  C11_13 
REMARK    5  A    between atoms: C11_13  and  C12_14 
REMARK       I    between atoms: C12_14  and  N2_16 
REMARK    6  A    between atoms: N2_16  and  C13_18 
REMARK    7  A    between atoms: C13_18  and  C14_19 
REMARK       I    between atoms: C14_19  and  N3_21 
REMARK    8  A    between atoms: C23_32  and  C24_33 
REMARK    9  A    between atoms: C25_36  and  C26_37 
REMARK       I    between atoms: C26_37  and  N6_39 
REMARK   10  A    between atoms: N6_39  and  C27_41 
REMARK   11  A    between atoms: C27_41  and  C28_42 
ROOT
HETATM    1  C14 UNL     1       7.617  -2.986  15.976  1.00  0.00     0.243 C 
HETATM    2  O2  UNL     1       8.420  -3.878  15.633  1.00  0.00    -0.271 OA
HETATM    3  N3  UNL     1       6.486  -3.241  16.729  1.00  0.00    -0.297 N 
HETATM    4  C15 UNL     1       5.644  -1.978  16.915  1.00  0.00     0.261 C 
HETATM    5  N4  UNL     1       4.392  -2.495  16.414  1.00  0.00    -0.330 N 
HETATM    6  C16 UNL     1       4.253  -2.521  15.010  1.00  0.00     0.230 C 
HETATM    7  O3  UNL     1       4.461  -1.645  14.176  1.00  0.00    -0.273 OA
HETATM    8  C17 UNL     1       3.750  -3.922  14.553  1.00  0.00     0.112 C 
HETATM    9  C18 UNL     1       4.700  -4.862  15.172  1.00  0.00     0.029 C 
HETATM   10  C19 UNL     1       4.796  -5.018  16.627  1.00  0.00     0.044 C 
HETATM   11  C20 UNL     1       3.593  -4.549  17.429  1.00  0.00     0.036 C 
HETATM   12  C21 UNL     1       3.283  -3.092  17.138  1.00  0.00     0.093 C 
HETATM   13  C22 UNL     1       2.046  -3.151  16.230  1.00  0.00     0.066 C 
HETATM   14  C23 UNL     1       2.328  -3.940  14.962  1.00  0.00    -0.000 C 
HETATM   15  C25 UNL     1       6.039  -4.440  17.301  1.00  0.00     0.088 C 
ENDROOT
BRANCH   1  16
HETATM   16  C13 UNL     1       7.996  -1.606  15.497  1.00  0.00     0.225 C 
BRANCH  16  17
HETATM   17  N2  UNL     1       7.586  -1.334  14.157  1.00  0.00    -0.352 N 
HETATM   18  C12 UNL     1       7.836  -0.098  13.480  1.00  0.00     0.217 C 
HETATM   19  O1  UNL     1       8.452   0.795  14.106  1.00  0.00    -0.274 OA
ATOM     20  H2  UNL     1       7.083  -2.064  13.651  1.00  0.00     0.162 HD
BRANCH  18  21
HETATM   21  C11 UNL     1       7.376   0.131  12.070  1.00  0.00     0.103 C 
BRANCH  21  22
HETATM   22  C10 UNL     1       7.951   1.410  11.527  1.00  0.00     0.010 C 
BRANCH  22  23
HETATM   23  C9  UNL     1       6.997   2.124  10.609  1.00  0.00     0.006 C 
BRANCH  23  24
HETATM   24  C8  UNL     1       6.089   3.064  11.406  1.00  0.00     0.057 C 
BRANCH  24  25
HETATM   25  C7  UNL     1       4.745   3.104  10.820  1.00  0.00     0.010 A 
HETATM   26  N1  UNL     1       4.444   3.548   9.581  1.00  0.00    -0.362 N 
HETATM   27  C6  UNL     1       3.144   3.471   9.340  1.00  0.00     0.016 A 
ATOM     28  H1  UNL     1       5.131   3.899   8.914  1.00  0.00     0.165 HD
HETATM   29  C5  UNL     1       2.223   3.775   8.215  1.00  0.00     0.057 C 
HETATM   30  C33 UNL     1       2.574   2.948  10.492  1.00  0.00    -0.030 A 
HETATM   31  C4  UNL     1       1.070   4.582   8.718  1.00  0.00     0.007 C 
HETATM   32  C3  UNL     1       0.469   4.083   9.988  1.00  0.00     0.009 C 
HETATM   33  C2  UNL     1       1.088   2.780  10.455  1.00  0.00     0.016 C 
HETATM   34  C1  UNL     1       0.622   2.445  11.855  1.00  0.00     0.015 C 
HETATM   35  C32 UNL     1       3.573   2.717  11.419  1.00  0.00     0.034 A 
ENDBRANCH  24  25
ENDBRANCH  23  24
ENDBRANCH  22  23
ENDBRANCH  21  22
ENDBRANCH  18  21
ENDBRANCH  16  17
ENDBRANCH   1  16
BRANCH  15  36
HETATM   36  C26 UNL     1       6.991  -5.429  17.810  1.00  0.00     0.265 C 
HETATM   37  O5  UNL     1       7.239  -5.658  19.022  1.00  0.00    -0.266 OA
HETATM   38  N6  UNL     1       7.752  -6.266  16.910  1.00  0.00    -0.340 N 
ATOM     39  H6  UNL     1       7.613  -6.157  15.905  1.00  0.00     0.164 HD
BRANCH  38  40
HETATM   40  C27 UNL     1       8.695  -7.245  17.374  1.00  0.00     0.088 C 
HETATM   41  C29 UNL     1       9.746  -6.712  18.318  1.00  0.00     0.039 C 
HETATM   42  C30 UNL     1      10.669  -6.450  17.130  1.00  0.00     0.006 C 
HETATM   43  C31 UNL     1       9.836  -7.445  16.359  1.00  0.00     0.039 C 
BRANCH  40  44
HETATM   44  C28 UNL     1       8.165  -8.537  17.834  1.00  0.00     0.115 C 
HETATM   45  N7  UNL     1       7.738  -8.689  19.040  1.00  0.00    -0.389 N 
ATOM     46  H72 UNL     1       7.779  -7.870  19.648  1.00  0.00     0.157 HD
ATOM     47  H71 UNL     1       7.370  -9.585  19.359  1.00  0.00     0.157 HD
HETATM   48  N8  UNL     1       8.107  -9.670  16.992  1.00  0.00    -0.085 NA
ENDBRANCH  40  44
ENDBRANCH  38  40
ENDBRANCH  15  36
BRANCH  14  49
HETATM   49  C24 UNL     1       1.643  -5.236  14.891  1.00  0.00     0.258 C 
HETATM   50  N5  UNL     1       0.261  -5.345  15.182  1.00  0.00    -0.058 NA
HETATM   51  O4  UNL     1       2.270  -6.259  14.571  1.00  0.00    -0.272 OA
ENDBRANCH  14  49
TORSDOF 11
ENDMDL
MODEL 5
REMARK VINA RESULT: -10.385358726      3.357      6.399
REMARK  11 active torsions:
REMARK  status: ('A' for Active; 'I' for Inactive)
REMARK    1  A    between atoms: C7_9  and  C8_10 
REMARK    2  A    between atoms: C8_10  and  C9_11 
REMARK    3  A    between atoms: C9_11  and  C10_12 
REMARK    4  A    between atoms: C10_12  and  C11_13 
REMARK    5  A    between atoms: C11_13  and  C12_14 
REMARK       I    between atoms: C12_14  and  N2_16 
REMARK    6  A    between atoms: N2_16  and  C13_18 
REMARK    7  A    between atoms: C13_18  and  C14_19 
REMARK       I    between atoms: C14_19  and  N3_21 
REMARK    8  A    between atoms: C23_32  and  C24_33 
REMARK    9  A    between atoms: C25_36  and  C26_37 
REMARK       I    between atoms: C26_37  and  N6_39 
REMARK   10  A    between atoms: N6_39  and  C27_41 
REMARK   11  A    between atoms: C27_41  and  C28_42 
ROOT
HETATM    1  C14 UNL     1       6.358  -8.493  18.065  1.00  0.00     0.243 C 
HETATM    2  O2  UNL     1       6.299  -9.536  17.381  1.00  0.00    -0.271 OA
HETATM    3  N3  UNL     1       5.250  -7.715  18.347  1.00  0.00    -0.297 N 
HETATM    4  C15 UNL     1       5.637  -6.454  19.119  1.00  0.00     0.261 C 
HETATM    5  N4  UNL     1       5.037  -5.483  18.235  1.00  0.00    -0.330 N 
HETATM    6  C16 UNL     1       5.786  -5.149  17.086  1.00  0.00     0.230 C 
HETATM    7  O3  UNL     1       6.965  -4.827  16.974  1.00  0.00    -0.273 OA
HETATM    8  C17 UNL     1       4.882  -5.231  15.821  1.00  0.00     0.112 C 
HETATM    9  C18 UNL     1       4.287  -6.577  15.893  1.00  0.00     0.029 C 
HETATM   10  C19 UNL     1       3.365  -6.958  16.967  1.00  0.00     0.044 C 
HETATM   11  C20 UNL     1       2.692  -5.814  17.707  1.00  0.00     0.036 C 
HETATM   12  C21 UNL     1       3.722  -4.867  18.294  1.00  0.00     0.093 C 
HETATM   13  C22 UNL     1       3.681  -3.649  17.360  1.00  0.00     0.066 C 
HETATM   14  C23 UNL     1       4.012  -4.038  15.929  1.00  0.00    -0.000 C 
HETATM   15  C25 UNL     1       3.901  -7.922  18.025  1.00  0.00     0.088 C 
ENDROOT
BRANCH   1  16
HETATM   16  C13 UNL     1       7.745  -8.163  18.557  1.00  0.00     0.225 C 
BRANCH  16  17
HETATM   17  N2  UNL     1       8.626  -7.715  17.526  1.00  0.00    -0.352 N 
HETATM   18  C12 UNL     1       9.638  -6.721  17.716  1.00  0.00     0.217 C 
HETATM   19  O1  UNL     1       9.754  -6.218  18.857  1.00  0.00    -0.274 OA
ATOM     20  H2  UNL     1       8.527  -8.127  16.598  1.00  0.00     0.162 HD
BRANCH  18  21
HETATM   21  C11 UNL     1      10.532  -6.289  16.592  1.00  0.00     0.103 C 
BRANCH  21  22
HETATM   22  C10 UNL     1       9.736  -6.087  15.331  1.00  0.00     0.010 C 
BRANCH  22  23
HETATM   23  C9  UNL     1      10.099  -4.810  14.622  1.00  0.00     0.006 C 
BRANCH  23  24
HETATM   24  C8  UNL     1       9.919  -3.610  15.556  1.00  0.00     0.057 C 
BRANCH  24  25
HETATM   25  C7  UNL     1       8.912  -2.686  15.021  1.00  0.00     0.010 A 
HETATM   26  N1  UNL     1       7.666  -3.027  14.630  1.00  0.00    -0.362 N 
HETATM   27  C6  UNL     1       6.994  -1.977  14.182  1.00  0.00     0.016 A 
ATOM     28  H1  UNL     1       7.289  -3.974  14.673  1.00  0.00     0.165 HD
HETATM   29  C5  UNL     1       5.637  -1.699  13.646  1.00  0.00     0.057 C 
HETATM   30  C33 UNL     1       7.858  -0.898  14.290  1.00  0.00    -0.030 A 
HETATM   31  C4  UNL     1       5.753  -0.911  12.381  1.00  0.00     0.007 C 
HETATM   32  C3  UNL     1       6.719   0.224  12.441  1.00  0.00     0.009 C 
HETATM   33  C2  UNL     1       7.310   0.413  13.825  1.00  0.00     0.016 C 
HETATM   34  C1  UNL     1       8.452   1.407  13.779  1.00  0.00     0.015 C 
HETATM   35  C32 UNL     1       9.059  -1.338  14.816  1.00  0.00     0.034 A 
ENDBRANCH  24  25
ENDBRANCH  23  24
ENDBRANCH  22  23
ENDBRANCH  21  22
ENDBRANCH  18  21
ENDBRANCH  16  17
ENDBRANCH   1  16
BRANCH  15  36
HETATM   36  C26 UNL     1       3.339  -9.273  17.980  1.00  0.00     0.265 C 
HETATM   37  O5  UNL     1       2.992  -9.961  18.975  1.00  0.00    -0.266 OA
HETATM   38  N6  UNL     1       3.124  -9.952  16.722  1.00  0.00    -0.340 N 
ATOM     39  H6  UNL     1       3.371  -9.471  15.858  1.00  0.00     0.164 HD
BRANCH  38  40
HETATM   40  C27 UNL     1       2.577 -11.278  16.642  1.00  0.00     0.088 C 
HETATM   41  C29 UNL     1       3.412 -12.347  17.304  1.00  0.00     0.039 C 
HETATM   42  C30 UNL     1       4.120 -12.606  15.976  1.00  0.00     0.006 C 
HETATM   43  C31 UNL     1       2.938 -11.950  15.304  1.00  0.00     0.039 C 
BRANCH  40  44
HETATM   44  C28 UNL     1       1.149 -11.445  16.948  1.00  0.00     0.115 C 
HETATM   45  N7  UNL     1       0.526 -10.599  17.693  1.00  0.00    -0.389 N 
ATOM     46  H72 UNL     1       1.069  -9.812  18.047  1.00  0.00     0.157 HD
ATOM     47  H71 UNL     1      -0.466 -10.715  17.905  1.00  0.00     0.157 HD
HETATM   48  N8  UNL     1       0.396 -12.535  16.457  1.00  0.00    -0.085 NA
ENDBRANCH  40  44
ENDBRANCH  38  40
ENDBRANCH  15  36
BRANCH  14  49
HETATM   49  C24 UNL     1       2.873  -3.974  15.005  1.00  0.00     0.258 C 
HETATM   50  N5  UNL     1       1.944  -2.906  15.070  1.00  0.00    -0.058 NA
HETATM   51  O4  UNL     1       2.710  -4.858  14.149  1.00  0.00    -0.272 OA
ENDBRANCH  14  49
TORSDOF 11
ENDMDL
