MODEL 1
REMARK VINA RESULT: -9.712583941      0.000      0.000
REMARK  12 active torsions:
REMARK  status: ('A' for Active; 'I' for Inactive)
REMARK    1  A    between atoms: C6_6  and  N1_7 
REMARK       I    between atoms: N1_7  and  C7_9 
REMARK    2  A    between atoms: C13_18  and  C14_19 
REMARK    3  A    between atoms: C14_19  and  C15_20 
REMARK    4  A    between atoms: C15_20  and  C16_21 
REMARK    5  A    between atoms: C16_21  and  C17_22 
REMARK    6  A    between atoms: C17_22  and  N4_23 
REMARK       I    between atoms: C18_25  and  N5_26 
REMARK       I    between atoms: C18_25  and  N10_48 
REMARK    7  A    between atoms: N5_26  and  C19_28 
REMARK    8  A    between atoms: C19_28  and  C20_29 
REMARK    9  A    between atoms: C20_29  and  N6_30 
REMARK   10  A    between atoms: C23_33  and  N7_34 
REMARK       I    between atoms: N7_34  and  C24_36 
REMARK   11  A    between atoms: C24_36  and  C25_38 
REMARK   12  A    between atoms: C25_38  and  N8_39 
ROOT
HETATM    1  N4  UNL     1       9.034  -0.659  14.214  1.00  0.00    -0.226 N 
ATOM      2  H4  UNL     1       9.801  -0.434  13.581  1.00  0.00     0.177 HD
HETATM    3  C18 UNL     1       7.913  -0.137  13.934  1.00  0.00     0.671 C 
HETATM    4  N5  UNL     1       6.730  -0.341  14.707  1.00  0.00    -0.225 N 
ATOM      5  H5  UNL     1       6.683  -1.137  15.342  1.00  0.00     0.177 HD
HETATM    6  N10 UNL     1       7.813   0.705  12.786  1.00  0.00    -0.218 N 
HETATM    7  C29 UNL     1       8.189   2.097  12.774  1.00  0.00     0.141 C 
HETATM    8  C30 UNL     1       7.360   2.718  11.675  1.00  0.00     0.022 C 
HETATM    9  C31 UNL     1       7.210   1.576  10.685  1.00  0.00     0.022 C 
HETATM   10  C32 UNL     1       7.335   0.305  11.502  1.00  0.00     0.141 C 
ENDROOT
BRANCH   1  11
HETATM   11  C17 UNL     1       9.360  -1.525  15.308  1.00  0.00     0.138 C 
BRANCH  11  12
HETATM   12  C16 UNL     1       9.832  -2.875  14.779  1.00  0.00     0.020 C 
BRANCH  12  13
HETATM   13  C15 UNL     1       9.040  -4.003  15.295  1.00  0.00     0.002 C 
BRANCH  13  14
HETATM   14  C14 UNL     1       8.080  -3.834  16.383  1.00  0.00     0.005 C 
BRANCH  14  15
HETATM   15  C13 UNL     1       6.636  -3.588  16.126  1.00  0.00    -0.007 C 
HETATM   16  C8  UNL     1       5.921  -4.861  15.729  1.00  0.00     0.014 C 
HETATM   17  C6  UNL     1       5.487  -5.741  16.846  1.00  0.00     0.091 C 
HETATM   18  C9  UNL     1       4.903  -4.664  14.631  1.00  0.00     0.033 C 
HETATM   19  C5  UNL     1       4.207  -6.512  16.495  1.00  0.00     0.040 C 
HETATM   20  C4  UNL     1       2.961  -5.723  16.641  1.00  0.00     0.089 C 
HETATM   21  C2  UNL     1       2.515  -5.059  15.356  1.00  0.00    -0.015 C 
HETATM   22  C33 UNL     1       3.242  -4.481  17.454  1.00  0.00     0.225 C 
HETATM   23  C1  UNL     1       1.254  -4.275  15.685  1.00  0.00     0.018 C 
HETATM   24  C3  UNL     1       2.235  -5.986  14.249  1.00  0.00     0.018 C 
HETATM   25  C10 UNL     1       3.613  -4.078  15.140  1.00  0.00     0.096 C 
HETATM   26  N3  UNL     1       3.827  -3.586  16.516  1.00  0.00    -0.346 N 
HETATM   27  C11 UNL     1       4.520  -2.391  16.829  1.00  0.00     0.127 C 
HETATM   28  C12 UNL     1       5.987  -2.707  17.089  1.00  0.00     0.025 C 
HETATM   29  O3  UNL     1       3.019  -4.275  18.663  1.00  0.00    -0.273 OA
BRANCH  17  30
HETATM   30  N1  UNL     1       6.446  -6.804  17.131  1.00  0.00    -0.340 N 
HETATM   31  C7  UNL     1       7.192  -6.770  18.330  1.00  0.00     0.329 C 
HETATM   32  N2  UNL     1       8.145  -7.763  18.682  1.00  0.00    -0.040 NA
HETATM   33  O1  UNL     1       7.022  -5.824  19.139  1.00  0.00    -0.251 OA
ATOM     34  H1  UNL     1       6.577  -7.567  16.467  1.00  0.00     0.164 HD
ENDBRANCH  17  30
ENDBRANCH  14  15
ENDBRANCH  13  14
ENDBRANCH  12  13
ENDBRANCH  11  12
ENDBRANCH   1  11
BRANCH   4  35
HETATM   35  C19 UNL     1       5.592   0.558  14.609  1.00  0.00     0.168 C 
BRANCH  35  36
HETATM   36  C20 UNL     1       4.306  -0.209  14.402  1.00  0.00     0.285 C 
BRANCH  36  37
HETATM   37  N6  UNL     1       3.605   0.305  13.261  1.00  0.00     0.013 N 
HETATM   38  C21 UNL     1       2.161   0.277  13.410  1.00  0.00     0.268 C 
HETATM   39  C22 UNL     1       1.517   0.754  12.146  1.00  0.00     0.067 C 
HETATM   40  C23 UNL     1       2.566   1.339  11.213  1.00  0.00     0.069 C 
HETATM   41  C26 UNL     1       3.446   2.214  12.042  1.00  0.00     0.118 C 
HETATM   42  C27 UNL     1       3.439   0.152  10.806  1.00  0.00     0.067 C 
HETATM   43  N9  UNL     1       3.960   1.653  13.078  1.00  0.00    -0.229 N 
ATOM     44  H9  UNL     1       4.579   2.148  13.720  1.00  0.00     0.192 HD
HETATM   45  C28 UNL     1       3.921  -0.490  12.095  1.00  0.00     0.268 C 
BRANCH  40  46
HETATM   46  N7  UNL     1       1.983   2.023  10.104  1.00  0.00    -0.346 N 
HETATM   47  C24 UNL     1       1.186   3.182  10.202  1.00  0.00     0.244 C 
HETATM   48  O2  UNL     1       0.933   3.700  11.317  1.00  0.00    -0.272 OA
ATOM     49  H7  UNL     1       2.155   1.645   9.173  1.00  0.00     0.163 HD
BRANCH  47  50
HETATM   50  C25 UNL     1       0.628   3.814   8.963  1.00  0.00     0.332 C 
BRANCH  50  51
HETATM   51  N8  UNL     1       0.969   5.226   8.928  1.00  0.00    -0.071 N 
ATOM     52  H83 UNL     1       1.964   5.374   8.759  1.00  0.00     0.274 HD
ATOM     53  H82 UNL     1       0.606   5.685   8.092  1.00  0.00     0.274 HD
ATOM     54  H81 UNL     1       0.654   5.683   9.783  1.00  0.00     0.274 HD
ENDBRANCH  50  51
ENDBRANCH  47  50
ENDBRANCH  40  46
ENDBRANCH  36  37
ENDBRANCH  35  36
ENDBRANCH   4  35
TORSDOF 12
ENDMDL
MODEL 2
REMARK VINA RESULT: -9.025038808      2.502      8.392
REMARK  12 active torsions:
REMARK  status: ('A' for Active; 'I' for Inactive)
REMARK    1  A    between atoms: C6_6  and  N1_7 
REMARK       I    between atoms: N1_7  and  C7_9 
REMARK    2  A    between atoms: C13_18  and  C14_19 
REMARK    3  A    between atoms: C14_19  and  C15_20 
REMARK    4  A    between atoms: C15_20  and  C16_21 
REMARK    5  A    between atoms: C16_21  and  C17_22 
REMARK    6  A    between atoms: C17_22  and  N4_23 
REMARK       I    between atoms: C18_25  and  N5_26 
REMARK       I    between atoms: C18_25  and  N10_48 
REMARK    7  A    between atoms: N5_26  and  C19_28 
REMARK    8  A    between atoms: C19_28  and  C20_29 
REMARK    9  A    between atoms: C20_29  and  N6_30 
REMARK   10  A    between atoms: C23_33  and  N7_34 
REMARK       I    between atoms: N7_34  and  C24_36 
REMARK   11  A    between atoms: C24_36  and  C25_38 
REMARK   12  A    between atoms: C25_38  and  N8_39 
ROOT
HETATM    1  N4  UNL     1       9.228  -2.801  15.436  1.00  0.00    -0.226 N 
ATOM      2  H4  UNL     1      10.167  -3.031  15.111  1.00  0.00     0.177 HD
HETATM    3  C18 UNL     1       8.657  -3.684  16.146  1.00  0.00     0.671 C 
HETATM    4  N5  UNL     1       7.345  -3.536  16.688  1.00  0.00    -0.225 N 
ATOM      5  H5  UNL     1       6.939  -2.603  16.760  1.00  0.00     0.177 HD
HETATM    6  N10 UNL     1       9.353  -4.898  16.425  1.00  0.00    -0.218 N 
HETATM    7  C29 UNL     1       9.414  -6.017  15.518  1.00  0.00     0.141 C 
HETATM    8  C30 UNL     1       9.637  -7.224  16.398  1.00  0.00     0.022 C 
HETATM    9  C31 UNL     1      10.447  -6.653  17.548  1.00  0.00     0.022 C 
HETATM   10  C32 UNL     1      10.077  -5.184  17.621  1.00  0.00     0.141 C 
ENDROOT
BRANCH   1  11
HETATM   11  C17 UNL     1       8.721  -1.523  15.033  1.00  0.00     0.138 C 
BRANCH  11  12
HETATM   12  C16 UNL     1       7.492  -1.707  14.150  1.00  0.00     0.020 C 
BRANCH  12  13
HETATM   13  C15 UNL     1       6.354  -0.872  14.568  1.00  0.00     0.002 C 
BRANCH  13  14
HETATM   14  C14 UNL     1       5.919   0.282  13.785  1.00  0.00     0.005 C 
BRANCH  14  15
HETATM   15  C13 UNL     1       6.842   1.003  12.868  1.00  0.00    -0.007 C 
HETATM   16  C8  UNL     1       6.259   1.120  11.476  1.00  0.00     0.014 C 
HETATM   17  C6  UNL     1       5.305   2.239  11.261  1.00  0.00     0.091 C 
HETATM   18  C9  UNL     1       7.275   0.919  10.377  1.00  0.00     0.033 C 
HETATM   19  C5  UNL     1       5.361   2.761   9.818  1.00  0.00     0.040 C 
HETATM   20  C4  UNL     1       6.490   3.680   9.545  1.00  0.00     0.089 C 
HETATM   21  C2  UNL     1       7.711   2.983   8.987  1.00  0.00    -0.015 C 
HETATM   22  C33 UNL     1       7.078   4.158  10.852  1.00  0.00     0.225 C 
HETATM   23  C1  UNL     1       8.775   4.052   8.794  1.00  0.00     0.018 C 
HETATM   24  C3  UNL     1       7.491   2.282   7.712  1.00  0.00     0.018 C 
HETATM   25  C10 UNL     1       8.122   2.142  10.144  1.00  0.00     0.096 C 
HETATM   26  N3  UNL     1       7.912   3.082  11.264  1.00  0.00    -0.346 N 
HETATM   27  C11 UNL     1       8.472   2.913  12.554  1.00  0.00     0.127 C 
HETATM   28  C12 UNL     1       7.481   2.178  13.447  1.00  0.00     0.025 C 
HETATM   29  O3  UNL     1       6.887   5.240  11.442  1.00  0.00    -0.273 OA
BRANCH  17  30
HETATM   30  N1  UNL     1       3.912   1.829  11.412  1.00  0.00    -0.340 N 
HETATM   31  C7  UNL     1       2.914   2.805  11.625  1.00  0.00     0.329 C 
HETATM   32  N2  UNL     1       1.538   2.491  11.782  1.00  0.00    -0.040 NA
HETATM   33  O1  UNL     1       3.236   4.018  11.681  1.00  0.00    -0.251 OA
ATOM     34  H1  UNL     1       3.661   0.841  11.365  1.00  0.00     0.164 HD
ENDBRANCH  17  30
ENDBRANCH  14  15
ENDBRANCH  13  14
ENDBRANCH  12  13
ENDBRANCH  11  12
ENDBRANCH   1  11
BRANCH   4  35
HETATM   35  C19 UNL     1       6.574  -4.682  17.141  1.00  0.00     0.168 C 
BRANCH  35  36
HETATM   36  C20 UNL     1       5.729  -5.248  16.023  1.00  0.00     0.285 C 
BRANCH  36  37
HETATM   37  N6  UNL     1       4.542  -4.461  15.855  1.00  0.00     0.013 N 
HETATM   38  C21 UNL     1       4.393  -3.420  16.854  1.00  0.00     0.268 C 
HETATM   39  C22 UNL     1       3.092  -2.707  16.648  1.00  0.00     0.067 C 
HETATM   40  C23 UNL     1       2.467  -3.134  15.329  1.00  0.00     0.069 C 
HETATM   41  C26 UNL     1       3.556  -3.123  14.307  1.00  0.00     0.118 C 
HETATM   42  C27 UNL     1       2.103  -4.605  15.520  1.00  0.00     0.067 C 
HETATM   43  N9  UNL     1       4.599  -3.812  14.609  1.00  0.00    -0.229 N 
ATOM     44  H9  UNL     1       5.407  -3.883  13.991  1.00  0.00     0.192 HD
HETATM   45  C28 UNL     1       3.375  -5.310  15.958  1.00  0.00     0.268 C 
BRANCH  40  46
HETATM   46  N7  UNL     1       1.355  -2.315  14.967  1.00  0.00    -0.346 N 
HETATM   47  C24 UNL     1       1.453  -1.038  14.375  1.00  0.00     0.244 C 
HETATM   48  O2  UNL     1       2.572  -0.528  14.122  1.00  0.00    -0.272 OA
ATOM     49  H7  UNL     1       0.421  -2.680  15.151  1.00  0.00     0.163 HD
BRANCH  47  50
HETATM   50  C25 UNL     1       0.211  -0.272  14.039  1.00  0.00     0.332 C 
BRANCH  50  51
HETATM   51  N8  UNL     1       0.167   0.003  12.613  1.00  0.00    -0.071 N 
ATOM     52  H83 UNL     1       0.985  -0.364  12.128  1.00  0.00     0.274 HD
ATOM     53  H82 UNL     1      -0.549  -0.549  12.140  1.00  0.00     0.274 HD
ATOM     54  H81 UNL     1       0.045   1.003  12.453  1.00  0.00     0.274 HD
ENDBRANCH  50  51
ENDBRANCH  47  50
ENDBRANCH  40  46
ENDBRANCH  36  37
ENDBRANCH  35  36
ENDBRANCH   4  35
TORSDOF 12
ENDMDL
MODEL 3
REMARK VINA RESULT: -8.997277344      2.439     10.722
REMARK  12 active torsions:
REMARK  status: ('A' for Active; 'I' for Inactive)
REMARK    1  A    between atoms: C6_6  and  N1_7 
REMARK       I    between atoms: N1_7  and  C7_9 
REMARK    2  A    between atoms: C13_18  and  C14_19 
REMARK    3  A    between atoms: C14_19  and  C15_20 
REMARK    4  A    between atoms: C15_20  and  C16_21 
REMARK    5  A    between atoms: C16_21  and  C17_22 
REMARK    6  A    between atoms: C17_22  and  N4_23 
REMARK       I    between atoms: C18_25  and  N5_26 
REMARK       I    between atoms: C18_25  and  N10_48 
REMARK    7  A    between atoms: N5_26  and  C19_28 
REMARK    8  A    between atoms: C19_28  and  C20_29 
REMARK    9  A    between atoms: C20_29  and  N6_30 
REMARK   10  A    between atoms: C23_33  and  N7_34 
REMARK       I    between atoms: N7_34  and  C24_36 
REMARK   11  A    between atoms: C24_36  and  C25_38 
REMARK   12  A    between atoms: C25_38  and  N8_39 
ROOT
HETATM    1  N4  UNL     1       3.616  -2.725  14.723  1.00  0.00    -0.226 N 
ATOM      2  H4  UNL     1       2.640  -3.022  14.749  1.00  0.00     0.177 HD
HETATM    3  C18 UNL     1       4.412  -3.371  15.470  1.00  0.00     0.671 C 
HETATM    4  N5  UNL     1       5.809  -3.095  15.561  1.00  0.00    -0.225 N 
ATOM      5  H5  UNL     1       6.261  -2.560  14.819  1.00  0.00     0.177 HD
HETATM    6  N10 UNL     1       3.895  -4.434  16.270  1.00  0.00    -0.218 N 
HETATM    7  C29 UNL     1       3.246  -4.240  17.543  1.00  0.00     0.141 C 
HETATM    8  C30 UNL     1       3.455  -5.535  18.291  1.00  0.00     0.022 C 
HETATM    9  C31 UNL     1       3.478  -6.565  17.176  1.00  0.00     0.022 C 
HETATM   10  C32 UNL     1       3.944  -5.821  15.940  1.00  0.00     0.141 C 
ENDROOT
BRANCH   1  11
HETATM   11  C17 UNL     1       3.913  -1.631  13.847  1.00  0.00     0.138 C 
BRANCH  11  12
HETATM   12  C16 UNL     1       3.980  -0.332  14.643  1.00  0.00     0.020 C 
BRANCH  12  13
HETATM   13  C15 UNL     1       5.293   0.329  14.554  1.00  0.00     0.002 C 
BRANCH  13  14
HETATM   14  C14 UNL     1       6.334  -0.150  13.648  1.00  0.00     0.005 C 
BRANCH  14  15
HETATM   15  C13 UNL     1       7.106   0.777  12.777  1.00  0.00    -0.007 C 
HETATM   16  C8  UNL     1       6.542   0.814  11.373  1.00  0.00     0.014 C 
HETATM   17  C6  UNL     1       5.379   1.715  11.161  1.00  0.00     0.091 C 
HETATM   18  C9  UNL     1       7.602   0.865  10.299  1.00  0.00     0.033 C 
HETATM   19  C5  UNL     1       5.356   2.282   9.734  1.00  0.00     0.040 C 
HETATM   20  C4  UNL     1       6.273   3.426   9.518  1.00  0.00     0.089 C 
HETATM   21  C2  UNL     1       7.626   3.017   8.976  1.00  0.00    -0.015 C 
HETATM   22  C33 UNL     1       6.719   3.975  10.853  1.00  0.00     0.225 C 
HETATM   23  C1  UNL     1       8.446   4.291   8.842  1.00  0.00     0.018 C 
HETATM   24  C3  UNL     1       7.586   2.327   7.677  1.00  0.00     0.018 C 
HETATM   25  C10 UNL     1       8.178   2.245  10.122  1.00  0.00     0.096 C 
HETATM   26  N3  UNL     1       7.750   3.084  11.260  1.00  0.00    -0.346 N 
HETATM   27  C11 UNL     1       8.305   2.995  12.560  1.00  0.00     0.127 C 
HETATM   28  C12 UNL     1       7.470   2.041  13.405  1.00  0.00     0.025 C 
HETATM   29  O3  UNL     1       6.291   4.973  11.466  1.00  0.00    -0.273 OA
BRANCH  17  30
HETATM   30  N1  UNL     1       4.101   1.018  11.262  1.00  0.00    -0.340 N 
HETATM   31  C7  UNL     1       2.951   1.721  11.684  1.00  0.00     0.329 C 
HETATM   32  N2  UNL     1       1.671   1.118  11.809  1.00  0.00    -0.040 NA
HETATM   33  O1  UNL     1       3.042   2.941  11.969  1.00  0.00    -0.251 OA
ATOM     34  H1  UNL     1       4.038   0.027  11.028  1.00  0.00     0.164 HD
ENDBRANCH  17  30
ENDBRANCH  14  15
ENDBRANCH  13  14
ENDBRANCH  12  13
ENDBRANCH  11  12
ENDBRANCH   1  11
BRANCH   4  35
HETATM   35  C19 UNL     1       6.605  -3.559  16.686  1.00  0.00     0.168 C 
BRANCH  35  36
HETATM   36  C20 UNL     1       8.019  -3.882  16.258  1.00  0.00     0.285 C 
BRANCH  36  37
HETATM   37  N6  UNL     1       8.432  -5.132  16.829  1.00  0.00     0.013 N 
HETATM   38  C21 UNL     1       7.419  -5.749  17.664  1.00  0.00     0.268 C 
HETATM   39  C22 UNL     1       7.966  -7.000  18.277  1.00  0.00     0.067 C 
HETATM   40  C23 UNL     1       9.304  -7.350  17.644  1.00  0.00     0.069 C 
HETATM   41  C26 UNL     1       9.144  -7.185  16.169  1.00  0.00     0.118 C 
HETATM   42  C27 UNL     1      10.251  -6.232  18.078  1.00  0.00     0.067 C 
HETATM   43  N9  UNL     1       8.698  -6.041  15.789  1.00  0.00    -0.229 N 
ATOM     44  H9  UNL     1       8.548  -5.809  14.807  1.00  0.00     0.192 HD
HETATM   45  C28 UNL     1       9.595  -4.926  17.664  1.00  0.00     0.268 C 
BRANCH  40  46
HETATM   46  N7  UNL     1       9.754  -8.652  18.014  1.00  0.00    -0.346 N 
HETATM   47  C24 UNL     1       9.163  -9.860  17.589  1.00  0.00     0.244 C 
HETATM   48  O2  UNL     1       8.164  -9.857  16.829  1.00  0.00    -0.272 OA
ATOM     49  H7  UNL     1      10.563  -8.715  18.632  1.00  0.00     0.163 HD
BRANCH  47  50
HETATM   50  C25 UNL     1       9.726 -11.171  18.045  1.00  0.00     0.332 C 
BRANCH  50  51
HETATM   51  N8  UNL     1      10.628 -10.963  19.165  1.00  0.00    -0.071 N 
ATOM     52  H83 UNL     1      11.605 -11.064  18.892  1.00  0.00     0.274 HD
ATOM     53  H82 UNL     1      10.654  -9.986  19.457  1.00  0.00     0.274 HD
ATOM     54  H81 UNL     1      10.380 -11.585  19.934  1.00  0.00     0.274 HD
ENDBRANCH  50  51
ENDBRANCH  47  50
ENDBRANCH  40  46
ENDBRANCH  36  37
ENDBRANCH  35  36
ENDBRANCH   4  35
TORSDOF 12
ENDMDL
MODEL 4
REMARK VINA RESULT: -8.924060321      2.845      6.036
REMARK  12 active torsions:
REMARK  status: ('A' for Active; 'I' for Inactive)
REMARK    1  A    between atoms: C6_6  and  N1_7 
REMARK       I    between atoms: N1_7  and  C7_9 
REMARK    2  A    between atoms: C13_18  and  C14_19 
REMARK    3  A    between atoms: C14_19  and  C15_20 
REMARK    4  A    between atoms: C15_20  and  C16_21 
REMARK    5  A    between atoms: C16_21  and  C17_22 
REMARK    6  A    between atoms: C17_22  and  N4_23 
REMARK       I    between atoms: C18_25  and  N5_26 
REMARK       I    between atoms: C18_25  and  N10_48 
REMARK    7  A    between atoms: N5_26  and  C19_28 
REMARK    8  A    between atoms: C19_28  and  C20_29 
REMARK    9  A    between atoms: C20_29  and  N6_30 
REMARK   10  A    between atoms: C23_33  and  N7_34 
REMARK       I    between atoms: N7_34  and  C24_36 
REMARK   11  A    between atoms: C24_36  and  C25_38 
REMARK   12  A    between atoms: C25_38  and  N8_39 
ROOT
HETATM    1  N4  UNL     1       2.041  -0.264  13.621  1.00  0.00    -0.226 N 
ATOM      2  H4  UNL     1       1.106  -0.618  13.418  1.00  0.00     0.177 HD
HETATM    3  C18 UNL     1       2.434   0.707  12.906  1.00  0.00     0.671 C 
HETATM    4  N5  UNL     1       3.710   1.329  13.049  1.00  0.00    -0.225 N 
ATOM      5  H5  UNL     1       4.232   1.200  13.916  1.00  0.00     0.177 HD
HETATM    6  N10 UNL     1       1.562   1.214  11.896  1.00  0.00    -0.218 N 
HETATM    7  C29 UNL     1       1.418   0.626  10.587  1.00  0.00     0.141 C 
HETATM    8  C30 UNL     1       0.970   1.759   9.695  1.00  0.00     0.022 C 
HETATM    9  C31 UNL     1       0.162   2.629  10.641  1.00  0.00     0.022 C 
HETATM   10  C32 UNL     1       0.720   2.359  12.025  1.00  0.00     0.141 C 
ENDROOT
BRANCH   1  11
HETATM   11  C17 UNL     1       2.743  -0.927  14.679  1.00  0.00     0.138 C 
BRANCH  11  12
HETATM   12  C16 UNL     1       2.010  -2.206  15.068  1.00  0.00     0.020 C 
BRANCH  12  13
HETATM   13  C15 UNL     1       2.913  -3.257  15.565  1.00  0.00     0.002 C 
BRANCH  13  14
HETATM   14  C14 UNL     1       4.130  -2.937  16.308  1.00  0.00     0.005 C 
BRANCH  14  15
HETATM   15  C13 UNL     1       5.438  -2.741  15.628  1.00  0.00    -0.007 C 
HETATM   16  C8  UNL     1       6.594  -2.989  16.573  1.00  0.00     0.014 C 
HETATM   17  C6  UNL     1       6.996  -4.408  16.754  1.00  0.00     0.091 C 
HETATM   18  C9  UNL     1       7.735  -2.014  16.399  1.00  0.00     0.033 C 
HETATM   19  C5  UNL     1       8.499  -4.540  17.035  1.00  0.00     0.040 C 
HETATM   20  C4  UNL     1       9.354  -4.460  15.828  1.00  0.00     0.089 C 
HETATM   21  C2  UNL     1       9.868  -3.064  15.547  1.00  0.00    -0.015 C 
HETATM   22  C33 UNL     1       8.503  -4.642  14.594  1.00  0.00     0.225 C 
HETATM   23  C1  UNL     1      10.694  -3.151  14.272  1.00  0.00     0.018 C 
HETATM   24  C3  UNL     1      10.691  -2.483  16.619  1.00  0.00     0.018 C 
HETATM   25  C10 UNL     1       8.605  -2.350  15.217  1.00  0.00     0.096 C 
HETATM   26  N3  UNL     1       7.914  -3.363  14.394  1.00  0.00    -0.346 N 
HETATM   27  C11 UNL     1       6.823  -3.075  13.537  1.00  0.00     0.127 C 
HETATM   28  C12 UNL     1       5.516  -3.301  14.285  1.00  0.00     0.025 C 
HETATM   29  O3  UNL     1       8.344  -5.668  13.902  1.00  0.00    -0.273 OA
BRANCH  17  30
HETATM   30  N1  UNL     1       6.383  -5.021  17.930  1.00  0.00    -0.340 N 
HETATM   31  C7  UNL     1       5.390  -6.011  17.766  1.00  0.00     0.329 C 
HETATM   32  N2  UNL     1       4.745  -6.655  18.855  1.00  0.00    -0.040 NA
HETATM   33  O1  UNL     1       5.043  -6.354  16.608  1.00  0.00    -0.251 OA
ATOM     34  H1  UNL     1       6.673  -4.734  18.865  1.00  0.00     0.164 HD
ENDBRANCH  17  30
ENDBRANCH  14  15
ENDBRANCH  13  14
ENDBRANCH  12  13
ENDBRANCH  11  12
ENDBRANCH   1  11
BRANCH   4  35
HETATM   35  C19 UNL     1       4.284   2.143  11.990  1.00  0.00     0.168 C 
BRANCH  35  36
HETATM   36  C20 UNL     1       4.968   1.284  10.951  1.00  0.00     0.285 C 
BRANCH  36  37
HETATM   37  N6  UNL     1       6.121   1.962  10.432  1.00  0.00     0.013 N 
HETATM   38  C21 UNL     1       7.343   1.188  10.541  1.00  0.00     0.268 C 
HETATM   39  C22 UNL     1       8.499   2.004  10.051  1.00  0.00     0.067 C 
HETATM   40  C23 UNL     1       7.996   3.271   9.378  1.00  0.00     0.069 C 
HETATM   41  C26 UNL     1       6.865   2.873   8.490  1.00  0.00     0.118 C 
HETATM   42  C27 UNL     1       7.363   4.091  10.502  1.00  0.00     0.067 C 
HETATM   43  N9  UNL     1       5.925   2.207   9.062  1.00  0.00    -0.229 N 
ATOM     44  H9  UNL     1       5.100   1.881   8.559  1.00  0.00     0.192 HD
HETATM   45  C28 UNL     1       6.336   3.190  11.166  1.00  0.00     0.268 C 
BRANCH  40  46
HETATM   46  N7  UNL     1       9.033   3.964   8.685  1.00  0.00    -0.346 N 
HETATM   47  C24 UNL     1       8.830   5.050   7.807  1.00  0.00     0.244 C 
HETATM   48  O2  UNL     1       7.676   5.486   7.577  1.00  0.00    -0.272 OA
ATOM     49  H7  UNL     1       9.993   3.651   8.834  1.00  0.00     0.163 HD
BRANCH  47  50
HETATM   50  C25 UNL     1      10.001   5.699   7.136  1.00  0.00     0.332 C 
BRANCH  50  51
HETATM   51  N8  UNL     1      11.193   5.540   7.951  1.00  0.00    -0.071 N 
ATOM     52  H83 UNL     1      11.295   6.294   8.629  1.00  0.00     0.274 HD
ATOM     53  H82 UNL     1      11.108   4.761   8.604  1.00  0.00     0.274 HD
ATOM     54  H81 UNL     1      12.015   5.450   7.353  1.00  0.00     0.274 HD
ENDBRANCH  50  51
ENDBRANCH  47  50
ENDBRANCH  40  46
ENDBRANCH  36  37
ENDBRANCH  35  36
ENDBRANCH   4  35
TORSDOF 12
ENDMDL
MODEL 5
REMARK VINA RESULT: -8.917240081      3.296     10.695
REMARK  12 active torsions:
REMARK  status: ('A' for Active; 'I' for Inactive)
REMARK    1  A    between atoms: C6_6  and  N1_7 
REMARK       I    between atoms: N1_7  and  C7_9 
REMARK    2  A    between atoms: C13_18  and  C14_19 
REMARK    3  A    between atoms: C14_19  and  C15_20 
REMARK    4  A    between atoms: C15_20  and  C16_21 
REMARK    5  A    between atoms: C16_21  and  C17_22 
REMARK    6  A    between atoms: C17_22  and  N4_23 
REMARK       I    between atoms: C18_25  and  N5_26 
REMARK       I    between atoms: C18_25  and  N10_48 
REMARK    7  A    between atoms: N5_26  and  C19_28 
REMARK    8  A    between atoms: C19_28  and  C20_29 
REMARK    9  A    between atoms: C20_29  and  N6_30 
REMARK   10  A    between atoms: C23_33  and  N7_34 
REMARK       I    between atoms: N7_34  and  C24_36 
REMARK   11  A    between atoms: C24_36  and  C25_38 
REMARK   12  A    between atoms: C25_38  and  N8_39 
ROOT
HETATM    1  N4  UNL     1       6.514  -1.262  13.003  1.00  0.00    -0.226 N 
ATOM      2  H4  UNL     1       7.258  -1.596  12.390  1.00  0.00     0.177 HD
HETATM    3  C18 UNL     1       6.670  -1.494  14.240  1.00  0.00     0.671 C 
HETATM    4  N5  UNL     1       5.734  -1.100  15.243  1.00  0.00    -0.225 N 
ATOM      5  H5  UNL     1       5.052  -0.372  15.028  1.00  0.00     0.177 HD
HETATM    6  N10 UNL     1       7.841  -2.188  14.667  1.00  0.00    -0.218 N 
HETATM    7  C29 UNL     1       7.985  -3.623  14.629  1.00  0.00     0.141 C 
HETATM    8  C30 UNL     1       8.996  -3.944  15.704  1.00  0.00     0.022 C 
HETATM    9  C31 UNL     1       9.888  -2.716  15.701  1.00  0.00     0.022 C 
HETATM   10  C32 UNL     1       9.023  -1.581  15.189  1.00  0.00     0.141 C 
ENDROOT
BRANCH   1  11
HETATM   11  C17 UNL     1       5.426  -0.590  12.357  1.00  0.00     0.138 C 
BRANCH  11  12
HETATM   12  C16 UNL     1       5.815   0.852  12.051  1.00  0.00     0.020 C 
BRANCH  12  13
HETATM   13  C15 UNL     1       7.086   0.960  11.315  1.00  0.00     0.002 C 
BRANCH  13  14
HETATM   14  C14 UNL     1       7.683   2.256  10.999  1.00  0.00     0.005 C 
BRANCH  14  15
HETATM   15  C13 UNL     1       8.095   2.614   9.615  1.00  0.00    -0.007 C 
HETATM   16  C8  UNL     1       6.967   2.396   8.629  1.00  0.00     0.014 C 
HETATM   17  C6  UNL     1       5.969   3.493   8.526  1.00  0.00     0.091 C 
HETATM   18  C9  UNL     1       7.421   1.813   7.312  1.00  0.00     0.033 C 
HETATM   19  C5  UNL     1       5.380   3.592   7.112  1.00  0.00     0.040 C 
HETATM   20  C4  UNL     1       6.246   4.299   6.140  1.00  0.00     0.089 C 
HETATM   21  C2  UNL     1       7.137   3.371   5.343  1.00  0.00    -0.015 C 
HETATM   22  C33 UNL     1       7.318   5.063   6.880  1.00  0.00     0.225 C 
HETATM   23  C1  UNL     1       7.972   4.249   4.424  1.00  0.00     0.018 C 
HETATM   24  C3  UNL     1       6.420   2.370   4.538  1.00  0.00     0.018 C 
HETATM   25  C10 UNL     1       8.037   2.846   6.406  1.00  0.00     0.096 C 
HETATM   26  N3  UNL     1       8.290   4.072   7.191  1.00  0.00    -0.346 N 
HETATM   27  C11 UNL     1       9.355   4.214   8.113  1.00  0.00     0.127 C 
HETATM   28  C12 UNL     1       8.872   3.842   9.509  1.00  0.00     0.025 C 
HETATM   29  O3  UNL     1       7.356   6.278   7.161  1.00  0.00    -0.273 OA
BRANCH  17  30
HETATM   30  N1  UNL     1       4.793   3.264   9.361  1.00  0.00    -0.340 N 
HETATM   31  C7  UNL     1       4.653   3.963  10.580  1.00  0.00     0.329 C 
HETATM   32  N2  UNL     1       3.542   3.798  11.449  1.00  0.00    -0.040 NA
HETATM   33  O1  UNL     1       5.544   4.775  10.934  1.00  0.00    -0.251 OA
ATOM     34  H1  UNL     1       4.075   2.603   9.064  1.00  0.00     0.164 HD
ENDBRANCH  17  30
ENDBRANCH  14  15
ENDBRANCH  13  14
ENDBRANCH  12  13
ENDBRANCH  11  12
ENDBRANCH   1  11
BRANCH   4  35
HETATM   35  C19 UNL     1       5.729  -1.710  16.562  1.00  0.00     0.168 C 
BRANCH  35  36
HETATM   36  C20 UNL     1       4.355  -2.232  16.917  1.00  0.00     0.285 C 
BRANCH  36  37
HETATM   37  N6  UNL     1       4.309  -3.656  16.745  1.00  0.00     0.013 N 
HETATM   38  C21 UNL     1       4.078  -4.064  15.372  1.00  0.00     0.268 C 
HETATM   39  C22 UNL     1       3.965  -5.555  15.304  1.00  0.00     0.067 C 
HETATM   40  C23 UNL     1       4.369  -6.171  16.634  1.00  0.00     0.069 C 
HETATM   41  C26 UNL     1       5.618  -5.482  17.072  1.00  0.00     0.118 C 
HETATM   42  C27 UNL     1       3.290  -5.723  17.621  1.00  0.00     0.067 C 
HETATM   43  N9  UNL     1       5.552  -4.199  17.118  1.00  0.00    -0.229 N 
ATOM     44  H9  UNL     1       6.340  -3.618  17.403  1.00  0.00     0.192 HD
HETATM   45  C28 UNL     1       3.230  -4.208  17.534  1.00  0.00     0.268 C 
BRANCH  40  46
HETATM   46  N7  UNL     1       4.512  -7.589  16.554  1.00  0.00    -0.346 N 
HETATM   47  C24 UNL     1       4.874  -8.425  17.631  1.00  0.00     0.244 C 
HETATM   48  O2  UNL     1       5.101  -7.948  18.770  1.00  0.00    -0.272 OA
ATOM     49  H7  UNL     1       4.339  -8.030  15.650  1.00  0.00     0.163 HD
BRANCH  47  50
HETATM   50  C25 UNL     1       4.991  -9.903  17.424  1.00  0.00     0.332 C 
BRANCH  50  51
HETATM   51  N8  UNL     1       6.082 -10.193  16.509  1.00  0.00    -0.071 N 
ATOM     52  H83 UNL     1       6.010  -9.655  15.646  1.00  0.00     0.274 HD
ATOM     53  H82 UNL     1       6.970  -9.820  16.844  1.00  0.00     0.274 HD
ATOM     54  H81 UNL     1       6.132 -11.196  16.331  1.00  0.00     0.274 HD
ENDBRANCH  50  51
ENDBRANCH  47  50
ENDBRANCH  40  46
ENDBRANCH  36  37
ENDBRANCH  35  36
ENDBRANCH   4  35
TORSDOF 12
ENDMDL
