MODEL 1
REMARK VINA RESULT: -9.808988833      0.000      0.000
REMARK  12 active torsions:
REMARK  status: ('A' for Active; 'I' for Inactive)
REMARK    1  A    between atoms: N1_2  and  C3_4 
REMARK    2  A    between atoms: C5_9  and  C6_10 
REMARK    3  A    between atoms: C6_10  and  C7_11 
REMARK    4  A    between atoms: C7_11  and  C8_12 
REMARK    5  A    between atoms: C11_18  and  C13_20 
REMARK    6  A    between atoms: C13_20  and  C14_21 
REMARK    7  A    between atoms: C22_31  and  O3_32 
REMARK    8  A    between atoms: C23_36  and  C24_37 
REMARK    9  A    between atoms: C24_37  and  C25_38 
REMARK   10  A    between atoms: C25_38  and  C26_39 
REMARK   11  A    between atoms: C26_39  and  N6_40 
REMARK   12  A    between atoms: C33_53  and  O5_54 
ROOT
HETATM    1  C14 UNL     1       7.756   0.682  11.162  1.00  0.00    -0.038 A 
HETATM    2  C15 UNL     1       8.639   1.357  11.976  1.00  0.00     0.013 A 
HETATM    3  C16 UNL     1       8.707   1.022  13.300  1.00  0.00     0.031 A 
HETATM    4  C17 UNL     1       7.913   0.020  13.854  1.00  0.00     0.044 A 
HETATM    5  N4  UNL     1       7.805  -0.488  15.087  1.00  0.00    -0.352 N 
ATOM      6  H4  UNL     1       8.345  -0.174  15.894  1.00  0.00     0.166 HD
HETATM    7  C18 UNL     1       6.869  -1.488  15.117  1.00  0.00     0.081 A 
HETATM    8  C19 UNL     1       6.355  -1.630  13.860  1.00  0.00     0.056 A 
HETATM    9  C20 UNL     1       7.042  -0.656  13.084  1.00  0.00     0.008 A 
HETATM   10  C21 UNL     1       6.993  -0.296  11.740  1.00  0.00     0.026 A 
HETATM   11  C22 UNL     1       5.334  -2.545  13.373  1.00  0.00     0.150 C 
HETATM   12  N5  UNL     1       4.091  -2.938  13.775  1.00  0.00    -0.360 N 
ATOM     13  H5  UNL     1       3.796  -3.821  13.359  1.00  0.00     0.162 HD
HETATM   14  C23 UNL     1       3.073  -2.356  14.688  1.00  0.00     0.129 C 
HETATM   15  C28 UNL     1       3.202  -3.084  15.986  1.00  0.00     0.008 C 
HETATM   16  C29 UNL     1       2.379  -2.628  17.153  1.00  0.00     0.065 C 
HETATM   17  N9  UNL     1       3.953  -4.061  16.181  1.00  0.00    -0.333 N 
ATOM     18  H9  UNL     1       3.830  -4.347  17.152  1.00  0.00     0.168 HD
HETATM   19  C30 UNL     1       4.864  -4.895  15.631  1.00  0.00     0.225 C 
HETATM   20  O4  UNL     1       4.589  -5.960  14.976  1.00  0.00    -0.273 OA
HETATM   21  C31 UNL     1       6.370  -4.685  15.723  1.00  0.00     0.133 C 
HETATM   22  C32 UNL     1       6.573  -3.616  16.696  1.00  0.00     0.021 C 
HETATM   23  C33 UNL     1       6.548  -2.221  16.331  1.00  0.00     0.090 C 
ENDROOT
BRANCH   1  24
HETATM   24  C13 UNL     1       7.685   0.952   9.755  1.00  0.00     0.007 C 
BRANCH  24  25
HETATM   25  C11 UNL     1       7.067   2.158   9.173  1.00  0.00     0.094 C 
HETATM   26  C3  UNL     1       5.686   2.487   9.459  1.00  0.00     0.206 C 
HETATM   27  N2  UNL     1       4.975   3.366   8.585  1.00  0.00    -0.337 N 
HETATM   28  C4  UNL     1       5.354   4.232   7.564  1.00  0.00     0.242 C 
ATOM     29  H2  UNL     1       3.967   3.358   8.746  1.00  0.00     0.164 HD
HETATM   30  O1  UNL     1       4.826   5.393   7.571  1.00  0.00    -0.271 OA
HETATM   31  C5  UNL     1       6.276   3.987   6.485  1.00  0.00     0.176 C 
HETATM   32  N3  UNL     1       7.039   2.767   6.607  1.00  0.00    -0.347 N 
HETATM   33  C10 UNL     1       7.134   1.902   7.671  1.00  0.00     0.234 C 
ATOM     34  H3  UNL     1       7.586   2.510   5.785  1.00  0.00     0.163 HD
HETATM   35  O2  UNL     1       7.310   0.683   7.310  1.00  0.00    -0.272 OA
HETATM   36  C12 UNL     1       8.055   3.300   9.395  1.00  0.00     0.034 C 
BRANCH  26  37
HETATM   37  N1  UNL     1       5.298   2.925  10.765  1.00  0.00    -0.381 N 
HETATM   38  C1  UNL     1       4.529   2.192  11.477  1.00  0.00     0.116 C 
HETATM   39  C2  UNL     1       5.661   4.183  11.335  1.00  0.00     0.150 C 
ENDBRANCH  26  37
BRANCH  31  40
HETATM   40  C6  UNL     1       7.203   5.086   6.071  1.00  0.00     0.035 C 
BRANCH  40  41
HETATM   41  C7  UNL     1       8.662   4.808   6.154  1.00  0.00     0.002 C 
BRANCH  41  42
HETATM   42  C8  UNL     1       9.423   5.927   6.860  1.00  0.00    -0.004 C 
HETATM   43  C9  UNL     1      10.593   5.228   7.566  1.00  0.00     0.005 C 
ENDBRANCH  41  42
ENDBRANCH  40  41
ENDBRANCH  31  40
ENDBRANCH  24  25
ENDBRANCH   1  24
BRANCH  11  44
HETATM   44  O3  UNL     1       5.705  -3.151  12.258  1.00  0.00    -0.346 OA
ATOM     45  H3  UNL     1       5.751  -2.548  11.525  1.00  0.00     0.219 HD
ENDBRANCH  11  44
BRANCH  23  46
HETATM   46  O5  UNL     1       6.150  -1.450  17.310  1.00  0.00    -0.359 OA
ATOM     47  H5  UNL     1       6.853  -1.197  17.896  1.00  0.00     0.217 HD
ENDBRANCH  23  46
BRANCH  14  48
HETATM   48  C24 UNL     1       3.077  -0.900  14.674  1.00  0.00     0.033 C 
BRANCH  48  49
HETATM   49  C25 UNL     1       2.854  -0.098  13.465  1.00  0.00     0.022 C 
BRANCH  49  50
HETATM   50  C26 UNL     1       1.416   0.265  13.151  1.00  0.00     0.122 C 
BRANCH  50  51
HETATM   51  N6  UNL     1       1.318   0.637  11.762  1.00  0.00    -0.367 N 
HETATM   52  C27 UNL     1       0.910   1.738  11.276  1.00  0.00     0.196 C 
HETATM   53  N7  UNL     1       0.894   1.904   9.868  1.00  0.00    -0.067 NA
HETATM   54  N8  UNL     1       0.466   2.810  12.083  1.00  0.00    -0.067 NA
ATOM     55  H6  UNL     1       1.611  -0.069  11.088  1.00  0.00     0.161 HD
ENDBRANCH  50  51
ENDBRANCH  49  50
ENDBRANCH  48  49
ENDBRANCH  14  48
TORSDOF 12
ENDMDL
MODEL 2
REMARK VINA RESULT: -9.803627554      3.902     11.673
REMARK  12 active torsions:
REMARK  status: ('A' for Active; 'I' for Inactive)
REMARK    1  A    between atoms: N1_2  and  C3_4 
REMARK    2  A    between atoms: C5_9  and  C6_10 
REMARK    3  A    between atoms: C6_10  and  C7_11 
REMARK    4  A    between atoms: C7_11  and  C8_12 
REMARK    5  A    between atoms: C11_18  and  C13_20 
REMARK    6  A    between atoms: C13_20  and  C14_21 
REMARK    7  A    between atoms: C22_31  and  O3_32 
REMARK    8  A    between atoms: C23_36  and  C24_37 
REMARK    9  A    between atoms: C24_37  and  C25_38 
REMARK   10  A    between atoms: C25_38  and  C26_39 
REMARK   11  A    between atoms: C26_39  and  N6_40 
REMARK   12  A    between atoms: C33_53  and  O5_54 
ROOT
HETATM    1  C14 UNL     1       3.127  -5.508  15.257  1.00  0.00    -0.038 A 
HETATM    2  C15 UNL     1       2.107  -4.981  16.019  1.00  0.00     0.013 A 
HETATM    3  C16 UNL     1       1.975  -3.621  16.097  1.00  0.00     0.031 A 
HETATM    4  C17 UNL     1       2.836  -2.752  15.431  1.00  0.00     0.044 A 
HETATM    5  N4  UNL     1       2.906  -1.419  15.343  1.00  0.00    -0.352 N 
ATOM      6  H4  UNL     1       2.270  -0.772  15.809  1.00  0.00     0.166 HD
HETATM    7  C18 UNL     1       3.950  -1.043  14.539  1.00  0.00     0.081 A 
HETATM    8  C19 UNL     1       4.576  -2.171  14.094  1.00  0.00     0.056 A 
HETATM    9  C20 UNL     1       3.841  -3.239  14.680  1.00  0.00     0.008 A 
HETATM   10  C21 UNL     1       3.953  -4.625  14.617  1.00  0.00     0.026 A 
HETATM   11  C22 UNL     1       5.735  -2.309  13.225  1.00  0.00     0.150 C 
HETATM   12  N5  UNL     1       6.979  -1.757  13.150  1.00  0.00    -0.360 N 
ATOM     13  H5  UNL     1       7.410  -1.864  12.231  1.00  0.00     0.162 HD
HETATM   14  C23 UNL     1       7.845  -1.032  14.117  1.00  0.00     0.129 C 
HETATM   15  C28 UNL     1       7.700   0.422  13.809  1.00  0.00     0.008 C 
HETATM   16  C29 UNL     1       8.368   1.418  14.708  1.00  0.00     0.065 C 
HETATM   17  N9  UNL     1       7.059   0.883  12.843  1.00  0.00    -0.333 N 
ATOM     18  H9  UNL     1       7.138   1.899  12.887  1.00  0.00     0.168 HD
HETATM   19  C30 UNL     1       6.302   0.587  11.764  1.00  0.00     0.225 C 
HETATM   20  O4  UNL     1       6.753   0.309  10.599  1.00  0.00    -0.273 OA
HETATM   21  C31 UNL     1       4.778   0.550  11.781  1.00  0.00     0.133 C 
HETATM   22  C32 UNL     1       4.373   1.132  13.056  1.00  0.00     0.021 C 
HETATM   23  C33 UNL     1       4.259   0.352  14.263  1.00  0.00     0.090 C 
ENDROOT
BRANCH   1  24
HETATM   24  C13 UNL     1       3.276  -6.926  15.093  1.00  0.00     0.007 C 
BRANCH  24  25
HETATM   25  C11 UNL     1       3.698  -7.844  16.167  1.00  0.00     0.094 C 
HETATM   26  C3  UNL     1       4.997  -7.700  16.790  1.00  0.00     0.206 C 
HETATM   27  N2  UNL     1       5.571  -8.807  17.489  1.00  0.00    -0.337 N 
HETATM   28  C4  UNL     1       5.077 -10.023  17.950  1.00  0.00     0.242 C 
ATOM     29  H2  UNL     1       6.562  -8.676  17.694  1.00  0.00     0.164 HD
HETATM   30  O1  UNL     1       5.402 -10.362  19.135  1.00  0.00    -0.271 OA
HETATM   31  C5  UNL     1       4.234 -10.962  17.254  1.00  0.00     0.176 C 
HETATM   32  N3  UNL     1       3.684 -10.476  16.011  1.00  0.00    -0.347 N 
HETATM   33  C10 UNL     1       3.710  -9.208  15.484  1.00  0.00     0.234 C 
ATOM     34  H3  UNL     1       3.207 -11.176  15.442  1.00  0.00     0.163 HD
HETATM   35  O2  UNL     1       3.749  -9.200  14.202  1.00  0.00    -0.272 OA
HETATM   36  C12 UNL     1       2.527  -7.933  17.143  1.00  0.00     0.034 C 
BRANCH  26  37
HETATM   37  N1  UNL     1       5.276  -6.584  17.642  1.00  0.00    -0.381 N 
HETATM   38  C1  UNL     1       6.185  -5.748  17.315  1.00  0.00     0.116 C 
HETATM   39  C2  UNL     1       4.641  -6.353  18.901  1.00  0.00     0.150 C 
ENDBRANCH  26  37
BRANCH  31  40
HETATM   40  C6  UNL     1       3.147 -11.650  18.019  1.00  0.00     0.035 C 
BRANCH  40  41
HETATM   41  C7  UNL     1       1.811 -11.730  17.369  1.00  0.00     0.002 C 
BRANCH  41  42
HETATM   42  C8  UNL     1       0.730 -11.024  18.183  1.00  0.00    -0.004 C 
HETATM   43  C9  UNL     1       1.399 -10.680  19.520  1.00  0.00     0.005 C 
ENDBRANCH  41  42
ENDBRANCH  40  41
ENDBRANCH  31  40
ENDBRANCH  24  25
ENDBRANCH   1  24
BRANCH  11  44
HETATM   44  O3  UNL     1       5.528  -3.192  12.263  1.00  0.00    -0.346 OA
ATOM     45  H3  UNL     1       6.240  -3.818  12.198  1.00  0.00     0.219 HD
ENDBRANCH  11  44
BRANCH  23  46
HETATM   46  O5  UNL     1       4.482   1.054  15.342  1.00  0.00    -0.359 OA
ATOM     47  H5  UNL     1       5.200   1.670  15.247  1.00  0.00     0.217 HD
ENDBRANCH  23  46
BRANCH  14  48
HETATM   48  C24 UNL     1       7.667  -1.500  15.484  1.00  0.00     0.033 C 
BRANCH  48  49
HETATM   49  C25 UNL     1       7.975  -2.867  15.921  1.00  0.00     0.022 C 
BRANCH  49  50
HETATM   50  C26 UNL     1       9.444  -3.224  16.039  1.00  0.00     0.122 C 
BRANCH  50  51
HETATM   51  N6  UNL     1       9.586  -4.657  15.976  1.00  0.00    -0.367 N 
HETATM   52  C27 UNL     1       9.836  -5.459  16.930  1.00  0.00     0.196 C 
HETATM   53  N7  UNL     1       9.934  -6.846  16.653  1.00  0.00    -0.067 NA
HETATM   54  N8  UNL     1      10.024  -5.025  18.262  1.00  0.00    -0.067 NA
ATOM     55  H6  UNL     1       9.472  -5.078  15.055  1.00  0.00     0.161 HD
ENDBRANCH  50  51
ENDBRANCH  49  50
ENDBRANCH  48  49
ENDBRANCH  14  48
TORSDOF 12
ENDMDL
MODEL 3
REMARK VINA RESULT: -9.544132251      4.074     11.743
REMARK  12 active torsions:
REMARK  status: ('A' for Active; 'I' for Inactive)
REMARK    1  A    between atoms: N1_2  and  C3_4 
REMARK    2  A    between atoms: C5_9  and  C6_10 
REMARK    3  A    between atoms: C6_10  and  C7_11 
REMARK    4  A    between atoms: C7_11  and  C8_12 
REMARK    5  A    between atoms: C11_18  and  C13_20 
REMARK    6  A    between atoms: C13_20  and  C14_21 
REMARK    7  A    between atoms: C22_31  and  O3_32 
REMARK    8  A    between atoms: C23_36  and  C24_37 
REMARK    9  A    between atoms: C24_37  and  C25_38 
REMARK   10  A    between atoms: C25_38  and  C26_39 
REMARK   11  A    between atoms: C26_39  and  N6_40 
REMARK   12  A    between atoms: C33_53  and  O5_54 
ROOT
HETATM    1  C14 UNL     1       3.087  -5.493  15.272  1.00  0.00    -0.038 A 
HETATM    2  C15 UNL     1       2.073  -4.957  16.037  1.00  0.00     0.013 A 
HETATM    3  C16 UNL     1       1.953  -3.597  16.116  1.00  0.00     0.031 A 
HETATM    4  C17 UNL     1       2.821  -2.735  15.451  1.00  0.00     0.044 A 
HETATM    5  N4  UNL     1       2.903  -1.402  15.364  1.00  0.00    -0.352 N 
ATOM      6  H4  UNL     1       2.274  -0.750  15.832  1.00  0.00     0.166 HD
HETATM    7  C18 UNL     1       3.948  -1.034  14.559  1.00  0.00     0.081 A 
HETATM    8  C19 UNL     1       4.564  -2.168  14.112  1.00  0.00     0.056 A 
HETATM    9  C20 UNL     1       3.820  -3.229  14.697  1.00  0.00     0.008 A 
HETATM   10  C21 UNL     1       3.920  -4.617  14.633  1.00  0.00     0.026 A 
HETATM   11  C22 UNL     1       5.720  -2.315  13.240  1.00  0.00     0.150 C 
HETATM   12  N5  UNL     1       6.969  -1.774  13.163  1.00  0.00    -0.360 N 
ATOM     13  H5  UNL     1       7.398  -1.884  12.244  1.00  0.00     0.162 HD
HETATM   14  C23 UNL     1       7.843  -1.058  14.130  1.00  0.00     0.129 C 
HETATM   15  C28 UNL     1       7.711   0.398  13.823  1.00  0.00     0.008 C 
HETATM   16  C29 UNL     1       8.389   1.387  14.723  1.00  0.00     0.065 C 
HETATM   17  N9  UNL     1       7.072   0.865  12.860  1.00  0.00    -0.333 N 
ATOM     18  H9  UNL     1       7.161   1.880  12.904  1.00  0.00     0.168 HD
HETATM   19  C30 UNL     1       6.311   0.578  11.781  1.00  0.00     0.225 C 
HETATM   20  O4  UNL     1       6.758   0.296  10.615  1.00  0.00    -0.273 OA
HETATM   21  C31 UNL     1       4.787   0.554  11.800  1.00  0.00     0.133 C 
HETATM   22  C32 UNL     1       4.389   1.139  13.077  1.00  0.00     0.021 C 
HETATM   23  C33 UNL     1       4.270   0.358  14.283  1.00  0.00     0.090 C 
ENDROOT
BRANCH   1  24
HETATM   24  C13 UNL     1       3.223  -6.912  15.107  1.00  0.00     0.007 C 
BRANCH  24  25
HETATM   25  C11 UNL     1       3.684  -7.829  16.166  1.00  0.00     0.094 C 
HETATM   26  C3  UNL     1       4.980  -7.645  16.785  1.00  0.00     0.206 C 
HETATM   27  N2  UNL     1       5.598  -8.740  17.465  1.00  0.00    -0.337 N 
HETATM   28  C4  UNL     1       5.152  -9.980  17.910  1.00  0.00     0.242 C 
ATOM     29  H2  UNL     1       6.585  -8.576  17.668  1.00  0.00     0.164 HD
HETATM   30  O1  UNL     1       5.496 -10.324  19.089  1.00  0.00    -0.271 OA
HETATM   31  C5  UNL     1       4.341 -10.940  17.206  1.00  0.00     0.176 C 
HETATM   32  N3  UNL     1       3.767 -10.457  15.972  1.00  0.00    -0.347 N 
HETATM   33  C10 UNL     1       3.743  -9.181  15.463  1.00  0.00     0.234 C 
ATOM     34  H3  UNL     1       3.313 -11.166  15.395  1.00  0.00     0.163 HD
HETATM   35  O2  UNL     1       3.776  -9.154  14.181  1.00  0.00    -0.272 OA
HETATM   36  C12 UNL     1       2.522  -7.975  17.146  1.00  0.00     0.034 C 
BRANCH  26  37
HETATM   37  N1  UNL     1       5.221  -6.532  17.652  1.00  0.00    -0.381 N 
HETATM   38  C1  UNL     1       6.150  -5.700  17.371  1.00  0.00     0.116 C 
HETATM   39  C2  UNL     1       4.526  -6.300  18.878  1.00  0.00     0.150 C 
ENDBRANCH  26  37
BRANCH  31  40
HETATM   40  C6  UNL     1       3.284 -11.678  17.965  1.00  0.00     0.035 C 
BRANCH  40  41
HETATM   41  C7  UNL     1       3.420 -13.158  18.047  1.00  0.00     0.002 C 
BRANCH  41  42
HETATM   42  C8  UNL     1       4.659 -13.665  17.314  1.00  0.00    -0.004 C 
HETATM   43  C9  UNL     1       4.117 -14.512  16.155  1.00  0.00     0.005 C 
ENDBRANCH  41  42
ENDBRANCH  40  41
ENDBRANCH  31  40
ENDBRANCH  24  25
ENDBRANCH   1  24
BRANCH  11  44
HETATM   44  O3  UNL     1       5.504  -3.195  12.278  1.00  0.00    -0.346 OA
ATOM     45  H3  UNL     1       4.673  -3.047  11.842  1.00  0.00     0.219 HD
ENDBRANCH  11  44
BRANCH  23  46
HETATM   46  O5  UNL     1       4.501   1.057  15.363  1.00  0.00    -0.359 OA
ATOM     47  H5  UNL     1       4.937   0.560  16.045  1.00  0.00     0.217 HD
ENDBRANCH  23  46
BRANCH  14  48
HETATM   48  C24 UNL     1       7.663  -1.526  15.497  1.00  0.00     0.033 C 
BRANCH  48  49
HETATM   49  C25 UNL     1       7.978  -2.891  15.937  1.00  0.00     0.022 C 
BRANCH  49  50
HETATM   50  C26 UNL     1       9.449  -3.245  16.038  1.00  0.00     0.122 C 
BRANCH  50  51
HETATM   51  N6  UNL     1       9.593  -4.678  15.974  1.00  0.00    -0.367 N 
HETATM   52  C27 UNL     1       9.801  -5.485  16.934  1.00  0.00     0.196 C 
HETATM   53  N7  UNL     1       9.910  -6.871  16.656  1.00  0.00    -0.067 NA
HETATM   54  N8  UNL     1       9.933  -5.057  18.275  1.00  0.00    -0.067 NA
ATOM     55  H6  UNL     1       9.518  -5.095  15.047  1.00  0.00     0.161 HD
ENDBRANCH  50  51
ENDBRANCH  49  50
ENDBRANCH  48  49
ENDBRANCH  14  48
TORSDOF 12
ENDMDL
MODEL 4
REMARK VINA RESULT: -8.573691980      4.776      9.227
REMARK  12 active torsions:
REMARK  status: ('A' for Active; 'I' for Inactive)
REMARK    1  A    between atoms: N1_2  and  C3_4 
REMARK    2  A    between atoms: C5_9  and  C6_10 
REMARK    3  A    between atoms: C6_10  and  C7_11 
REMARK    4  A    between atoms: C7_11  and  C8_12 
REMARK    5  A    between atoms: C11_18  and  C13_20 
REMARK    6  A    between atoms: C13_20  and  C14_21 
REMARK    7  A    between atoms: C22_31  and  O3_32 
REMARK    8  A    between atoms: C23_36  and  C24_37 
REMARK    9  A    between atoms: C24_37  and  C25_38 
REMARK   10  A    between atoms: C25_38  and  C26_39 
REMARK   11  A    between atoms: C26_39  and  N6_40 
REMARK   12  A    between atoms: C33_53  and  O5_54 
ROOT
HETATM    1  C14 UNL     1       3.565  -5.221  15.940  1.00  0.00    -0.038 A 
HETATM    2  C15 UNL     1       2.926  -5.797  14.864  1.00  0.00     0.013 A 
HETATM    3  C16 UNL     1       3.064  -7.142  14.655  1.00  0.00     0.031 A 
HETATM    4  C17 UNL     1       3.831  -7.948  15.492  1.00  0.00     0.044 A 
HETATM    5  N4  UNL     1       4.106  -9.258  15.505  1.00  0.00    -0.352 N 
ATOM      6  H4  UNL     1       3.761  -9.930  14.820  1.00  0.00     0.166 HD
HETATM    7  C18 UNL     1       4.916  -9.570  16.565  1.00  0.00     0.081 A 
HETATM    8  C19 UNL     1       5.173  -8.424  17.260  1.00  0.00     0.056 A 
HETATM    9  C20 UNL     1       4.467  -7.413  16.551  1.00  0.00     0.008 A 
HETATM   10  C21 UNL     1       4.309  -6.043  16.741  1.00  0.00     0.026 A 
HETATM   11  C22 UNL     1       5.981  -8.223  18.454  1.00  0.00     0.150 C 
HETATM   12  N5  UNL     1       7.225  -8.591  18.873  1.00  0.00    -0.360 N 
ATOM     13  H5  UNL     1       7.340  -8.533  19.885  1.00  0.00     0.162 HD
HETATM   14  C23 UNL     1       8.451  -9.058  18.174  1.00  0.00     0.129 C 
HETATM   15  C28 UNL     1       8.482 -10.545  18.321  1.00  0.00     0.008 C 
HETATM   16  C29 UNL     1       9.549 -11.316  17.607  1.00  0.00     0.065 C 
HETATM   17  N9  UNL     1       7.676 -11.208  19.005  1.00  0.00    -0.333 N 
ATOM     18  H9  UNL     1       7.943 -12.188  18.917  1.00  0.00     0.168 HD
HETATM   19  C30 UNL     1       6.595 -11.158  19.813  1.00  0.00     0.225 C 
HETATM   20  O4  UNL     1       6.625 -10.959  21.077  1.00  0.00    -0.273 OA
HETATM   21  C31 UNL     1       5.162 -11.344  19.326  1.00  0.00     0.133 C 
HETATM   22  C32 UNL     1       5.260 -11.822  17.951  1.00  0.00     0.021 C 
HETATM   23  C33 UNL     1       5.372 -10.927  16.826  1.00  0.00     0.090 C 
ENDROOT
BRANCH   1  24
HETATM   24  C13 UNL     1       3.406  -3.827  16.241  1.00  0.00     0.007 C 
BRANCH  24  25
HETATM   25  C11 UNL     1       4.054  -2.738  15.486  1.00  0.00     0.094 C 
HETATM   26  C3  UNL     1       5.103  -1.946  16.092  1.00  0.00     0.206 C 
HETATM   27  N2  UNL     1       5.414  -0.658  15.556  1.00  0.00    -0.337 N 
HETATM   28  C4  UNL     1       5.093   0.002  14.374  1.00  0.00     0.242 C 
ATOM     29  H2  UNL     1       6.001  -0.100  16.177  1.00  0.00     0.164 HD
HETATM   30  O1  UNL     1       6.046   0.603  13.775  1.00  0.00    -0.271 OA
HETATM   31  C5  UNL     1       3.808   0.099  13.729  1.00  0.00     0.176 C 
HETATM   32  N3  UNL     1       2.789  -0.763  14.279  1.00  0.00    -0.347 N 
HETATM   33  C10 UNL     1       2.907  -1.771  15.206  1.00  0.00     0.234 C 
ATOM     34  H3  UNL     1       1.845  -0.600  13.929  1.00  0.00     0.163 HD
HETATM   35  O2  UNL     1       1.865  -1.896  15.943  1.00  0.00    -0.272 OA
HETATM   36  C12 UNL     1       4.396  -3.309  14.112  1.00  0.00     0.034 C 
BRANCH  26  37
HETATM   37  N1  UNL     1       6.388  -2.519  16.355  1.00  0.00    -0.381 N 
HETATM   38  C1  UNL     1       6.488  -3.508  17.159  1.00  0.00     0.116 C 
HETATM   39  C2  UNL     1       7.617  -2.023  15.822  1.00  0.00     0.150 C 
ENDBRANCH  26  37
BRANCH  31  40
HETATM   40  C6  UNL     1       3.749   0.013  12.236  1.00  0.00     0.035 C 
BRANCH  40  41
HETATM   41  C7  UNL     1       2.946   1.047  11.531  1.00  0.00     0.002 C 
BRANCH  41  42
HETATM   42  C8  UNL     1       1.744   0.449  10.806  1.00  0.00    -0.004 C 
HETATM   43  C9  UNL     1       0.561   0.652  11.762  1.00  0.00     0.005 C 
ENDBRANCH  41  42
ENDBRANCH  40  41
ENDBRANCH  31  40
ENDBRANCH  24  25
ENDBRANCH   1  24
BRANCH  11  44
HETATM   44  O3  UNL     1       5.347  -7.502  19.362  1.00  0.00    -0.346 OA
ATOM     45  H3  UNL     1       5.944  -7.142  20.009  1.00  0.00     0.219 HD
ENDBRANCH  11  44
BRANCH  23  46
HETATM   46  O5  UNL     1       6.024 -11.454  15.823  1.00  0.00    -0.359 OA
ATOM     47  H5  UNL     1       6.912 -11.707  16.045  1.00  0.00     0.217 HD
ENDBRANCH  23  46
BRANCH  14  48
HETATM   48  C24 UNL     1       8.604  -8.460  16.856  1.00  0.00     0.033 C 
BRANCH  48  49
HETATM   49  C25 UNL     1       9.582  -7.409  16.549  1.00  0.00     0.022 C 
BRANCH  49  50
HETATM   50  C26 UNL     1       9.159  -5.984  16.850  1.00  0.00     0.122 C 
BRANCH  50  51
HETATM   51  N6  UNL     1       9.956  -5.081  16.059  1.00  0.00    -0.367 N 
HETATM   52  C27 UNL     1       9.742  -4.688  14.870  1.00  0.00     0.196 C 
HETATM   53  N7  UNL     1      10.657  -3.787  14.268  1.00  0.00    -0.067 NA
HETATM   54  N8  UNL     1       8.625  -5.115  14.115  1.00  0.00    -0.067 NA
ATOM     55  H6  UNL     1      10.794  -4.712  16.509  1.00  0.00     0.161 HD
ENDBRANCH  50  51
ENDBRANCH  49  50
ENDBRANCH  48  49
ENDBRANCH  14  48
TORSDOF 12
ENDMDL
MODEL 5
REMARK VINA RESULT: -8.095441730      5.408      9.464
REMARK  12 active torsions:
REMARK  status: ('A' for Active; 'I' for Inactive)
REMARK    1  A    between atoms: N1_2  and  C3_4 
REMARK    2  A    between atoms: C5_9  and  C6_10 
REMARK    3  A    between atoms: C6_10  and  C7_11 
REMARK    4  A    between atoms: C7_11  and  C8_12 
REMARK    5  A    between atoms: C11_18  and  C13_20 
REMARK    6  A    between atoms: C13_20  and  C14_21 
REMARK    7  A    between atoms: C22_31  and  O3_32 
REMARK    8  A    between atoms: C23_36  and  C24_37 
REMARK    9  A    between atoms: C24_37  and  C25_38 
REMARK   10  A    between atoms: C25_38  and  C26_39 
REMARK   11  A    between atoms: C26_39  and  N6_40 
REMARK   12  A    between atoms: C33_53  and  O5_54 
ROOT
HETATM    1  C14 UNL     1       4.924  -5.411  17.324  1.00  0.00    -0.038 A 
HETATM    2  C15 UNL     1       3.731  -5.041  17.909  1.00  0.00     0.013 A 
HETATM    3  C16 UNL     1       2.849  -6.017  18.285  1.00  0.00     0.031 A 
HETATM    4  C17 UNL     1       3.115  -7.371  18.097  1.00  0.00     0.044 A 
HETATM    5  N4  UNL     1       2.436  -8.488  18.382  1.00  0.00    -0.352 N 
ATOM      6  H4  UNL     1       1.516  -8.511  18.823  1.00  0.00     0.166 HD
HETATM    7  C18 UNL     1       3.146  -9.596  18.002  1.00  0.00     0.081 A 
HETATM    8  C19 UNL     1       4.324  -9.180  17.451  1.00  0.00     0.056 A 
HETATM    9  C20 UNL     1       4.271  -7.761  17.529  1.00  0.00     0.008 A 
HETATM   10  C21 UNL     1       5.151  -6.749  17.156  1.00  0.00     0.026 A 
HETATM   11  C22 UNL     1       5.415  -9.964  16.892  1.00  0.00     0.150 C 
HETATM   12  N5  UNL     1       5.533 -11.003  16.016  1.00  0.00    -0.360 N 
ATOM     13  H5  UNL     1       6.422 -11.495  16.096  1.00  0.00     0.162 HD
HETATM   14  C23 UNL     1       4.644 -11.572  14.969  1.00  0.00     0.129 C 
HETATM   15  C28 UNL     1       3.997 -12.776  15.571  1.00  0.00     0.008 C 
HETATM   16  C29 UNL     1       2.944 -13.496  14.785  1.00  0.00     0.065 C 
HETATM   17  N9  UNL     1       4.269 -13.241  16.696  1.00  0.00    -0.333 N 
ATOM     18  H9  UNL     1       3.675 -14.058  16.836  1.00  0.00     0.168 HD
HETATM   19  C30 UNL     1       5.029 -13.104  17.806  1.00  0.00     0.225 C 
HETATM   20  O4  UNL     1       6.210 -13.573  17.954  1.00  0.00    -0.273 OA
HETATM   21  C31 UNL     1       4.574 -12.366  19.059  1.00  0.00     0.133 C 
HETATM   22  C32 UNL     1       3.148 -12.112  18.885  1.00  0.00     0.021 C 
HETATM   23  C33 UNL     1       2.647 -10.948  18.196  1.00  0.00     0.090 C 
ENDROOT
BRANCH   1  24
HETATM   24  C13 UNL     1       5.910  -4.432  16.965  1.00  0.00     0.007 C 
BRANCH  24  25
HETATM   25  C11 UNL     1       5.739  -3.442  15.886  1.00  0.00     0.094 C 
HETATM   26  C3  UNL     1       4.901  -3.738  14.742  1.00  0.00     0.206 C 
HETATM   27  N2  UNL     1       5.075  -3.000  13.530  1.00  0.00    -0.337 N 
HETATM   28  C4  UNL     1       5.748  -1.829  13.198  1.00  0.00     0.242 C 
ATOM     29  H2  UNL     1       4.601  -3.426  12.734  1.00  0.00     0.164 HD
HETATM   30  O1  UNL     1       5.119  -0.992  12.469  1.00  0.00    -0.271 OA
HETATM   31  C5  UNL     1       7.082  -1.431  13.574  1.00  0.00     0.176 C 
HETATM   32  N3  UNL     1       7.702  -2.264  14.576  1.00  0.00    -0.347 N 
HETATM   33  C10 UNL     1       7.151  -3.268  15.337  1.00  0.00     0.234 C 
ATOM     34  H3  UNL     1       8.691  -2.082  14.744  1.00  0.00     0.163 HD
HETATM   35  O2  UNL     1       7.988  -4.199  15.617  1.00  0.00    -0.272 OA
HETATM   36  C12 UNL     1       5.443  -2.108  16.567  1.00  0.00     0.034 C 
BRANCH  26  37
HETATM   37  N1  UNL     1       3.479  -3.822  14.883  1.00  0.00    -0.381 N 
HETATM   38  C1  UNL     1       2.881  -4.922  14.630  1.00  0.00     0.116 C 
HETATM   39  C2  UNL     1       2.639  -2.722  15.239  1.00  0.00     0.150 C 
ENDBRANCH  26  37
BRANCH  31  40
HETATM   40  C6  UNL     1       7.327   0.002  13.928  1.00  0.00     0.035 C 
BRANCH  40  41
HETATM   41  C7  UNL     1       8.463   0.681  13.249  1.00  0.00     0.002 C 
BRANCH  41  42
HETATM   42  C8  UNL     1       7.994   1.633  12.152  1.00  0.00    -0.004 C 
HETATM   43  C9  UNL     1       8.147   0.842  10.846  1.00  0.00     0.005 C 
ENDBRANCH  41  42
ENDBRANCH  40  41
ENDBRANCH  31  40
ENDBRANCH  24  25
ENDBRANCH   1  24
BRANCH  11  44
HETATM   44  O3  UNL     1       6.591  -9.572  17.351  1.00  0.00    -0.346 OA
ATOM     45  H3  UNL     1       7.140  -9.216  16.662  1.00  0.00     0.219 HD
ENDBRANCH  11  44
BRANCH  23  46
HETATM   46  O5  UNL     1       1.491 -11.159  17.623  1.00  0.00    -0.359 OA
ATOM     47  H5  UNL     1       0.860 -10.467  17.787  1.00  0.00     0.217 HD
ENDBRANCH  23  46
BRANCH  14  48
HETATM   48  C24 UNL     1       3.823 -10.559  14.323  1.00  0.00     0.033 C 
BRANCH  48  49
HETATM   49  C25 UNL     1       3.827 -10.310  12.877  1.00  0.00     0.022 C 
BRANCH  49  50
HETATM   50  C26 UNL     1       2.992 -11.247  12.027  1.00  0.00     0.122 C 
BRANCH  50  51
HETATM   51  N6  UNL     1       2.745 -10.629  10.748  1.00  0.00    -0.367 N 
HETATM   52  C27 UNL     1       1.760 -10.816   9.968  1.00  0.00     0.196 C 
HETATM   53  N7  UNL     1       1.706 -10.099   8.746  1.00  0.00    -0.067 NA
HETATM   54  N8  UNL     1       0.711 -11.715  10.266  1.00  0.00    -0.067 NA
ATOM     55  H6  UNL     1       3.447  -9.960  10.432  1.00  0.00     0.161 HD
ENDBRANCH  50  51
ENDBRANCH  49  50
ENDBRANCH  48  49
ENDBRANCH  14  48
TORSDOF 12
ENDMDL
