MODEL 1
REMARK VINA RESULT: -7.590349902      0.000      0.000
REMARK  12 active torsions:
REMARK  status: ('A' for Active; 'I' for Inactive)
REMARK    1  A    between atoms: C2_2  and  N1_3 
REMARK    2  A    between atoms: N1_3  and  C3_4 
REMARK       I    between atoms: N1_3  and  C34_53 
REMARK    3  A    between atoms: C3_4  and  C4_5 
REMARK    4  A    between atoms: C4_5  and  C5_6 
REMARK    5  A    between atoms: C5_6  and  C6_7 
REMARK    6  A    between atoms: C8_12  and  C9_13 
REMARK    7  A    between atoms: C9_13  and  C10_14 
REMARK    8  A    between atoms: C10_14  and  C11_15 
REMARK    9  A    between atoms: C11_15  and  C12_16 
REMARK   10  A    between atoms: C12_16  and  N3_17 
REMARK   11  A    between atoms: C24_37  and  C25_38 
REMARK   12  A    between atoms: C33_50  and  O5_51 
ROOT
HETATM    1  C6  UNL     1       3.762   3.085  11.130  1.00  0.00     0.159 C 
HETATM    2  N2  UNL     1       3.206   2.576   9.897  1.00  0.00    -0.347 N 
ATOM      3  H2  UNL     1       3.839   2.102   9.254  1.00  0.00     0.163 HD
HETATM    4  C7  UNL     1       1.834   2.687   9.513  1.00  0.00     0.241 C 
HETATM    5  O1  UNL     1       1.472   1.784   8.671  1.00  0.00    -0.271 OA
HETATM    6  C8  UNL     1       0.858   3.643   9.940  1.00  0.00     0.176 C 
HETATM    7  N4  UNL     1       0.609   4.821   9.185  1.00  0.00    -0.347 N 
ATOM      8  H4  UNL     1      -0.200   5.356   9.503  1.00  0.00     0.163 HD
HETATM    9  C13 UNL     1       1.275   5.388   8.079  1.00  0.00     0.223 C 
HETATM   10  O2  UNL     1       1.613   6.615   8.256  1.00  0.00    -0.273 OA
HETATM   11  C14 UNL     1       1.632   4.831   6.799  1.00  0.00     0.084 C 
HETATM   12  C15 UNL     1       0.962   5.612   5.679  1.00  0.00     0.014 C 
HETATM   13  C16 UNL     1       1.063   4.835   4.436  1.00  0.00     0.001 C 
HETATM   14  C17 UNL     1       1.914   3.631   4.393  1.00  0.00     0.001 C 
HETATM   15  C18 UNL     1       2.957   3.442   5.412  1.00  0.00     0.007 C 
HETATM   16  C19 UNL     1       3.044   4.550   6.448  1.00  0.00     0.021 C 
HETATM   17  C20 UNL     1       3.925   5.667   6.035  1.00  0.00     0.087 C 
HETATM   18  C21 UNL     1       4.481   6.472   7.206  1.00  0.00     0.033 C 
HETATM   19  N5  UNL     1       5.013   5.254   5.168  1.00  0.00    -0.350 N 
HETATM   20  C22 UNL     1       4.824   5.436   3.722  1.00  0.00     0.153 C 
HETATM   21  C23 UNL     1       6.259   4.726   5.557  1.00  0.00     0.243 C 
HETATM   22  O3  UNL     1       7.336   5.149   4.984  1.00  0.00    -0.271 OA
HETATM   23  C24 UNL     1       6.556   3.698   6.584  1.00  0.00     0.180 C 
HETATM   24  N6  UNL     1       7.369   4.282   7.642  1.00  0.00    -0.346 N 
ATOM     25  H6  UNL     1       7.720   5.223   7.462  1.00  0.00     0.163 HD
HETATM   26  C28 UNL     1       7.730   3.727   8.865  1.00  0.00     0.241 C 
HETATM   27  O4  UNL     1       8.964   3.871   9.194  1.00  0.00    -0.271 OA
HETATM   28  C29 UNL     1       6.899   2.997   9.842  1.00  0.00     0.178 C 
HETATM   29  C30 UNL     1       7.761   2.173  10.779  1.00  0.00     0.037 C 
HETATM   30  C31 UNL     1       8.298   3.221  11.724  1.00  0.00     0.022 C 
HETATM   31  C32 UNL     1       7.396   4.445  11.500  1.00  0.00     0.126 C 
HETATM   32  N7  UNL     1       6.226   3.859  10.809  1.00  0.00    -0.350 N 
HETATM   33  C33 UNL     1       4.852   4.039  10.975  1.00  0.00     0.137 C 
ENDROOT
BRANCH   1  34
HETATM   34  C5  UNL     1       3.984   1.918  12.029  1.00  0.00     0.035 C 
BRANCH  34  35
HETATM   35  C4  UNL     1       4.216   0.605  11.315  1.00  0.00     0.022 C 
BRANCH  35  36
HETATM   36  C3  UNL     1       5.386  -0.094  11.997  1.00  0.00     0.127 C 
BRANCH  36  37
HETATM   37  N1  UNL     1       4.865  -1.027  12.943  1.00  0.00    -0.337 N 
HETATM   38  C34 UNL     1       5.093  -2.424  12.863  1.00  0.00     0.330 C 
HETATM   39  N8  UNL     1       4.550  -3.315  13.831  1.00  0.00    -0.040 NA
HETATM   40  O6  UNL     1       5.782  -2.861  11.920  1.00  0.00    -0.251 OA
BRANCH  37  41
HETATM   41  C2  UNL     1       4.049  -0.524  14.056  1.00  0.00     0.122 C 
HETATM   42  C1  UNL     1       4.971   0.172  15.030  1.00  0.00     0.026 C 
ENDBRANCH  37  41
ENDBRANCH  36  37
ENDBRANCH  35  36
ENDBRANCH  34  35
ENDBRANCH   1  34
BRANCH  33  43
HETATM   43  O5  UNL     1       4.494   5.289  10.992  1.00  0.00    -0.348 OA
ATOM     44  H5  UNL     1       5.189   5.908  10.799  1.00  0.00     0.219 HD
ENDBRANCH  33  43
BRANCH   6  45
HETATM   45  C9  UNL     1      -0.516   2.924  10.084  1.00  0.00     0.035 C 
BRANCH  45  46
HETATM   46  C10 UNL     1      -0.596   2.382  11.464  1.00  0.00     0.004 C 
BRANCH  46  47
HETATM   47  C11 UNL     1      -0.216   0.966  11.670  1.00  0.00     0.027 C 
BRANCH  47  48
HETATM   48  C12 UNL     1      -0.379   0.408  13.045  1.00  0.00     0.229 C 
BRANCH  48  49
HETATM   49  N3  UNL     1      -1.470   0.922  13.805  1.00  0.00    -0.079 N 
ATOM     50  H33 UNL     1      -1.718   1.853  13.468  1.00  0.00     0.274 HD
ATOM     51  H32 UNL     1      -2.322   0.410  13.576  1.00  0.00     0.274 HD
ATOM     52  H31 UNL     1      -1.341   0.944  14.817  1.00  0.00     0.274 HD
ENDBRANCH  48  49
ENDBRANCH  47  48
ENDBRANCH  46  47
ENDBRANCH  45  46
ENDBRANCH   6  45
BRANCH  23  53
HETATM   53  C25 UNL     1       7.412   2.589   5.973  1.00  0.00     0.009 C 
HETATM   54  C26 UNL     1       7.175   2.369   4.522  1.00  0.00     0.012 C 
HETATM   55  C27 UNL     1       7.339   1.294   6.692  1.00  0.00     0.012 C 
ENDBRANCH  23  53
TORSDOF 12
ENDMDL
MODEL 2
REMARK VINA RESULT: -7.554714045     10.092     16.769
REMARK  12 active torsions:
REMARK  status: ('A' for Active; 'I' for Inactive)
REMARK    1  A    between atoms: C2_2  and  N1_3 
REMARK    2  A    between atoms: N1_3  and  C3_4 
REMARK       I    between atoms: N1_3  and  C34_53 
REMARK    3  A    between atoms: C3_4  and  C4_5 
REMARK    4  A    between atoms: C4_5  and  C5_6 
REMARK    5  A    between atoms: C5_6  and  C6_7 
REMARK    6  A    between atoms: C8_12  and  C9_13 
REMARK    7  A    between atoms: C9_13  and  C10_14 
REMARK    8  A    between atoms: C10_14  and  C11_15 
REMARK    9  A    between atoms: C11_15  and  C12_16 
REMARK   10  A    between atoms: C12_16  and  N3_17 
REMARK   11  A    between atoms: C24_37  and  C25_38 
REMARK   12  A    between atoms: C33_50  and  O5_51 
ROOT
HETATM    1  C6  UNL     1       7.506  -8.320  17.975  1.00  0.00     0.159 C 
HETATM    2  N2  UNL     1       6.193  -8.283  18.577  1.00  0.00    -0.347 N 
ATOM      3  H2  UNL     1       6.075  -8.739  19.481  1.00  0.00     0.163 HD
HETATM    4  C7  UNL     1       5.047  -7.654  18.000  1.00  0.00     0.241 C 
HETATM    5  O1  UNL     1       4.162  -7.321  18.872  1.00  0.00    -0.271 OA
HETATM    6  C8  UNL     1       4.782  -7.363  16.624  1.00  0.00     0.176 C 
HETATM    7  N4  UNL     1       4.031  -8.261  15.818  1.00  0.00    -0.347 N 
ATOM      8  H4  UNL     1       3.784  -7.889  14.900  1.00  0.00     0.163 HD
HETATM    9  C13 UNL     1       3.565  -9.571  16.051  1.00  0.00     0.223 C 
HETATM   10  O2  UNL     1       3.910 -10.410  15.140  1.00  0.00    -0.273 OA
HETATM   11  C14 UNL     1       2.776 -10.120  17.125  1.00  0.00     0.084 C 
HETATM   12  C15 UNL     1       1.478 -10.698  16.581  1.00  0.00     0.014 C 
HETATM   13  C16 UNL     1       0.562 -10.937  17.704  1.00  0.00     0.001 C 
HETATM   14  C17 UNL     1       1.052 -10.812  19.089  1.00  0.00     0.001 C 
HETATM   15  C18 UNL     1       2.498 -10.867  19.355  1.00  0.00     0.007 C 
HETATM   16  C19 UNL     1       3.366 -11.045  18.121  1.00  0.00     0.021 C 
HETATM   17  C20 UNL     1       3.579 -12.464  17.757  1.00  0.00     0.087 C 
HETATM   18  C21 UNL     1       4.842 -12.702  16.935  1.00  0.00     0.033 C 
HETATM   19  N5  UNL     1       3.563 -13.361  18.897  1.00  0.00    -0.350 N 
HETATM   20  C22 UNL     1       2.305 -14.067  19.178  1.00  0.00     0.153 C 
HETATM   21  C23 UNL     1       4.637 -13.665  19.756  1.00  0.00     0.243 C 
HETATM   22  O3  UNL     1       4.845 -14.892  20.104  1.00  0.00    -0.271 OA
HETATM   23  C24 UNL     1       5.632 -12.750  20.364  1.00  0.00     0.180 C 
HETATM   24  N6  UNL     1       6.965 -13.082  19.880  1.00  0.00    -0.346 N 
ATOM     25  H6  UNL     1       7.036 -13.943  19.336  1.00  0.00     0.163 HD
HETATM   26  C28 UNL     1       8.153 -12.383  20.062  1.00  0.00     0.241 C 
HETATM   27  O4  UNL     1       9.170 -13.098  20.388  1.00  0.00    -0.271 OA
HETATM   28  C29 UNL     1       8.416 -10.936  19.932  1.00  0.00     0.178 C 
HETATM   29  C30 UNL     1       9.687 -10.549  20.662  1.00  0.00     0.037 C 
HETATM   30  C31 UNL     1      10.760 -11.028  19.715  1.00  0.00     0.022 C 
HETATM   31  C32 UNL     1      10.027 -11.265  18.385  1.00  0.00     0.126 C 
HETATM   32  N7  UNL     1       8.764 -10.517  18.578  1.00  0.00    -0.350 N 
HETATM   33  C33 UNL     1       8.050  -9.651  17.748  1.00  0.00     0.137 C 
ENDROOT
BRANCH   1  34
HETATM   34  C5  UNL     1       8.355  -7.339  18.709  1.00  0.00     0.035 C 
BRANCH  34  35
HETATM   35  C4  UNL     1       9.010  -6.292  17.836  1.00  0.00     0.022 C 
BRANCH  35  36
HETATM   36  C3  UNL     1       7.921  -5.652  16.983  1.00  0.00     0.127 C 
BRANCH  36  37
HETATM   37  N1  UNL     1       8.507  -4.596  16.223  1.00  0.00    -0.337 N 
HETATM   38  C34 UNL     1       7.952  -3.293  16.144  1.00  0.00     0.330 C 
HETATM   39  N8  UNL     1       8.574  -2.273  15.371  1.00  0.00    -0.040 NA
HETATM   40  O6  UNL     1       6.900  -3.057  16.769  1.00  0.00    -0.251 OA
BRANCH  37  41
HETATM   41  C2  UNL     1       9.746  -4.863  15.479  1.00  0.00     0.122 C 
HETATM   42  C1  UNL     1       9.381  -5.639  14.235  1.00  0.00     0.026 C 
ENDBRANCH  37  41
ENDBRANCH  36  37
ENDBRANCH  35  36
ENDBRANCH  34  35
ENDBRANCH   1  34
BRANCH  33  43
HETATM   43  O5  UNL     1       7.841 -10.134  16.558  1.00  0.00    -0.348 OA
ATOM     44  H5  UNL     1       8.358 -10.901  16.340  1.00  0.00     0.219 HD
ENDBRANCH  33  43
BRANCH   6  45
HETATM   45  C9  UNL     1       4.054  -5.989  16.535  1.00  0.00     0.035 C 
BRANCH  45  46
HETATM   46  C10 UNL     1       4.566  -5.288  15.330  1.00  0.00     0.004 C 
BRANCH  46  47
HETATM   47  C11 UNL     1       3.988  -3.963  15.009  1.00  0.00     0.027 C 
BRANCH  47  48
HETATM   48  C12 UNL     1       3.243  -3.261  16.095  1.00  0.00     0.229 C 
BRANCH  48  49
HETATM   49  N3  UNL     1       4.024  -2.448  16.967  1.00  0.00    -0.079 N 
ATOM     50  H33 UNL     1       4.496  -3.034  17.656  1.00  0.00     0.274 HD
ATOM     51  H32 UNL     1       4.827  -2.073  16.462  1.00  0.00     0.274 HD
ATOM     52  H31 UNL     1       3.528  -1.691  17.438  1.00  0.00     0.274 HD
ENDBRANCH  48  49
ENDBRANCH  47  48
ENDBRANCH  46  47
ENDBRANCH  45  46
ENDBRANCH   6  45
BRANCH  23  53
HETATM   53  C25 UNL     1       5.678 -12.968  21.877  1.00  0.00     0.009 C 
HETATM   54  C26 UNL     1       4.362 -13.304  22.482  1.00  0.00     0.012 C 
HETATM   55  C27 UNL     1       6.307 -11.859  22.635  1.00  0.00     0.012 C 
ENDBRANCH  23  53
TORSDOF 12
ENDMDL
MODEL 3
REMARK VINA RESULT: -7.450907166     10.309     16.944
REMARK  12 active torsions:
REMARK  status: ('A' for Active; 'I' for Inactive)
REMARK    1  A    between atoms: C2_2  and  N1_3 
REMARK    2  A    between atoms: N1_3  and  C3_4 
REMARK       I    between atoms: N1_3  and  C34_53 
REMARK    3  A    between atoms: C3_4  and  C4_5 
REMARK    4  A    between atoms: C4_5  and  C5_6 
REMARK    5  A    between atoms: C5_6  and  C6_7 
REMARK    6  A    between atoms: C8_12  and  C9_13 
REMARK    7  A    between atoms: C9_13  and  C10_14 
REMARK    8  A    between atoms: C10_14  and  C11_15 
REMARK    9  A    between atoms: C11_15  and  C12_16 
REMARK   10  A    between atoms: C12_16  and  N3_17 
REMARK   11  A    between atoms: C24_37  and  C25_38 
REMARK   12  A    between atoms: C33_50  and  O5_51 
ROOT
HETATM    1  C6  UNL     1       7.016  -8.546  17.902  1.00  0.00     0.159 C 
HETATM    2  N2  UNL     1       5.642  -8.687  18.327  1.00  0.00    -0.347 N 
ATOM      3  H2  UNL     1       5.467  -9.170  19.207  1.00  0.00     0.163 HD
HETATM    4  C7  UNL     1       4.511  -8.198  17.604  1.00  0.00     0.241 C 
HETATM    5  O1  UNL     1       3.484  -7.995  18.354  1.00  0.00    -0.271 OA
HETATM    6  C8  UNL     1       4.391  -7.918  16.206  1.00  0.00     0.176 C 
HETATM    7  N4  UNL     1       3.873  -8.889  15.307  1.00  0.00    -0.347 N 
ATOM      8  H4  UNL     1       3.701  -8.535  14.365  1.00  0.00     0.163 HD
HETATM    9  C13 UNL     1       3.552 -10.252  15.476  1.00  0.00     0.223 C 
HETATM   10  O2  UNL     1       4.116 -11.024  14.617  1.00  0.00    -0.273 OA
HETATM   11  C14 UNL     1       2.707 -10.915  16.436  1.00  0.00     0.084 C 
HETATM   12  C15 UNL     1       1.576 -11.644  15.726  1.00  0.00     0.014 C 
HETATM   13  C16 UNL     1       0.559 -12.017  16.719  1.00  0.00     0.001 C 
HETATM   14  C17 UNL     1       0.845 -11.856  18.156  1.00  0.00     0.001 C 
HETATM   15  C18 UNL     1       2.239 -11.731  18.610  1.00  0.00     0.007 C 
HETATM   16  C19 UNL     1       3.276 -11.776  17.500  1.00  0.00     0.021 C 
HETATM   17  C20 UNL     1       3.714 -13.150  17.165  1.00  0.00     0.087 C 
HETATM   18  C21 UNL     1       5.093 -13.211  16.516  1.00  0.00     0.033 C 
HETATM   19  N5  UNL     1       3.665 -14.062  18.293  1.00  0.00    -0.350 N 
HETATM   20  C22 UNL     1       2.482 -14.927  18.405  1.00  0.00     0.153 C 
HETATM   21  C23 UNL     1       4.648 -14.243  19.285  1.00  0.00     0.243 C 
HETATM   22  O3  UNL     1       4.964 -15.439  19.655  1.00  0.00    -0.271 OA
HETATM   23  C24 UNL     1       5.431 -13.220  20.019  1.00  0.00     0.180 C 
HETATM   24  N6  UNL     1       6.846 -13.372  19.714  1.00  0.00    -0.346 N 
ATOM     25  H6  UNL     1       7.098 -14.206  19.183  1.00  0.00     0.163 HD
HETATM   26  C28 UNL     1       7.902 -12.531  20.051  1.00  0.00     0.241 C 
HETATM   27  O4  UNL     1       8.951 -13.117  20.507  1.00  0.00    -0.271 OA
HETATM   28  C29 UNL     1       7.992 -11.061  19.958  1.00  0.00     0.178 C 
HETATM   29  C30 UNL     1       9.097 -10.528  20.850  1.00  0.00     0.037 C 
HETATM   30  C31 UNL     1      10.336 -10.850  20.051  1.00  0.00     0.022 C 
HETATM   31  C32 UNL     1       9.818 -11.154  18.636  1.00  0.00     0.126 C 
HETATM   32  N7  UNL     1       8.456 -10.576  18.662  1.00  0.00    -0.350 N 
HETATM   33  C33 UNL     1       7.752  -9.793  17.746  1.00  0.00     0.137 C 
ENDROOT
BRANCH   1  34
HETATM   34  C5  UNL     1       7.630  -7.479  18.742  1.00  0.00     0.035 C 
BRANCH  34  35
HETATM   35  C4  UNL     1       7.378  -6.068  18.257  1.00  0.00     0.022 C 
BRANCH  35  36
HETATM   36  C3  UNL     1       7.903  -5.968  16.830  1.00  0.00     0.127 C 
BRANCH  36  37
HETATM   37  N1  UNL     1       8.857  -4.908  16.775  1.00  0.00    -0.337 N 
HETATM   38  C34 UNL     1       8.715  -3.776  15.934  1.00  0.00     0.330 C 
HETATM   39  N8  UNL     1       9.696  -2.745  15.915  1.00  0.00    -0.040 NA
HETATM   40  O6  UNL     1       7.706  -3.700  15.205  1.00  0.00    -0.251 OA
BRANCH  37  41
HETATM   41  C2  UNL     1      10.052  -4.989  17.627  1.00  0.00     0.122 C 
HETATM   42  C1  UNL     1      10.912  -6.121  17.114  1.00  0.00     0.026 C 
ENDBRANCH  37  41
ENDBRANCH  36  37
ENDBRANCH  35  36
ENDBRANCH  34  35
ENDBRANCH   1  34
BRANCH  33  43
HETATM   43  O5  UNL     1       7.763 -10.277  16.539  1.00  0.00    -0.348 OA
ATOM     44  H5  UNL     1       6.995 -10.075  16.018  1.00  0.00     0.219 HD
ENDBRANCH  33  43
BRANCH   6  45
HETATM   45  C9  UNL     1       3.511  -6.647  16.024  1.00  0.00     0.035 C 
BRANCH  45  46
HETATM   46  C10 UNL     1       4.349  -5.612  15.365  1.00  0.00     0.004 C 
BRANCH  46  47
HETATM   47  C11 UNL     1       3.736  -4.288  15.116  1.00  0.00     0.027 C 
BRANCH  47  48
HETATM   48  C12 UNL     1       4.083  -3.186  16.061  1.00  0.00     0.229 C 
BRANCH  48  49
HETATM   49  N3  UNL     1       5.192  -3.425  16.924  1.00  0.00    -0.079 N 
ATOM     50  H33 UNL     1       5.921  -2.733  16.751  1.00  0.00     0.274 HD
ATOM     51  H32 UNL     1       4.940  -3.191  17.884  1.00  0.00     0.274 HD
ATOM     52  H31 UNL     1       5.591  -4.363  16.891  1.00  0.00     0.274 HD
ENDBRANCH  48  49
ENDBRANCH  47  48
ENDBRANCH  46  47
ENDBRANCH  45  46
ENDBRANCH   6  45
BRANCH  23  53
HETATM   53  C25 UNL     1       5.307 -13.457  21.524  1.00  0.00     0.009 C 
HETATM   54  C26 UNL     1       3.986 -13.991  21.948  1.00  0.00     0.012 C 
HETATM   55  C27 UNL     1       5.662 -12.283  22.359  1.00  0.00     0.012 C 
ENDBRANCH  23  53
TORSDOF 12
ENDMDL
MODEL 4
REMARK VINA RESULT: -7.405563563     10.779     16.858
REMARK  12 active torsions:
REMARK  status: ('A' for Active; 'I' for Inactive)
REMARK    1  A    between atoms: C2_2  and  N1_3 
REMARK    2  A    between atoms: N1_3  and  C3_4 
REMARK       I    between atoms: N1_3  and  C34_53 
REMARK    3  A    between atoms: C3_4  and  C4_5 
REMARK    4  A    between atoms: C4_5  and  C5_6 
REMARK    5  A    between atoms: C5_6  and  C6_7 
REMARK    6  A    between atoms: C8_12  and  C9_13 
REMARK    7  A    between atoms: C9_13  and  C10_14 
REMARK    8  A    between atoms: C10_14  and  C11_15 
REMARK    9  A    between atoms: C11_15  and  C12_16 
REMARK   10  A    between atoms: C12_16  and  N3_17 
REMARK   11  A    between atoms: C24_37  and  C25_38 
REMARK   12  A    between atoms: C33_50  and  O5_51 
ROOT
HETATM    1  C6  UNL     1       7.599  -8.419  17.949  1.00  0.00     0.159 C 
HETATM    2  N2  UNL     1       6.287  -8.332  18.550  1.00  0.00    -0.347 N 
ATOM      3  H2  UNL     1       6.158  -8.761  19.466  1.00  0.00     0.163 HD
HETATM    4  C7  UNL     1       5.158  -7.689  17.956  1.00  0.00     0.241 C 
HETATM    5  O1  UNL     1       4.283  -7.309  18.819  1.00  0.00    -0.271 OA
HETATM    6  C8  UNL     1       4.900  -7.428  16.573  1.00  0.00     0.176 C 
HETATM    7  N4  UNL     1       4.125  -8.326  15.791  1.00  0.00    -0.347 N 
ATOM      8  H4  UNL     1       3.887  -7.972  14.864  1.00  0.00     0.163 HD
HETATM    9  C13 UNL     1       3.625  -9.617  16.059  1.00  0.00     0.223 C 
HETATM   10  O2  UNL     1       3.947 -10.488  15.171  1.00  0.00    -0.273 OA
HETATM   11  C14 UNL     1       2.822 -10.116  17.146  1.00  0.00     0.084 C 
HETATM   12  C15 UNL     1       1.510 -10.674  16.618  1.00  0.00     0.014 C 
HETATM   13  C16 UNL     1       0.587 -10.859  17.747  1.00  0.00     0.001 C 
HETATM   14  C17 UNL     1       1.082 -10.711  19.128  1.00  0.00     0.001 C 
HETATM   15  C18 UNL     1       2.526 -10.796  19.396  1.00  0.00     0.007 C 
HETATM   16  C19 UNL     1       3.389 -11.029  18.166  1.00  0.00     0.021 C 
HETATM   17  C20 UNL     1       3.564 -12.463  17.840  1.00  0.00     0.087 C 
HETATM   18  C21 UNL     1       4.819 -12.756  17.025  1.00  0.00     0.033 C 
HETATM   19  N5  UNL     1       3.525 -13.329  19.004  1.00  0.00    -0.350 N 
HETATM   20  C22 UNL     1       2.249 -13.994  19.303  1.00  0.00     0.153 C 
HETATM   21  C23 UNL     1       4.590 -13.639  19.871  1.00  0.00     0.243 C 
HETATM   22  O3  UNL     1       4.766 -14.860  20.251  1.00  0.00    -0.271 OA
HETATM   23  C24 UNL     1       5.610 -12.734  20.454  1.00  0.00     0.180 C 
HETATM   24  N6  UNL     1       6.933 -13.114  19.980  1.00  0.00    -0.346 N 
ATOM     25  H6  UNL     1       6.982 -13.990  19.458  1.00  0.00     0.163 HD
HETATM   26  C28 UNL     1       8.140 -12.442  20.143  1.00  0.00     0.241 C 
HETATM   27  O4  UNL     1       9.138 -13.175  20.488  1.00  0.00    -0.271 OA
HETATM   28  C29 UNL     1       8.440 -11.007  19.975  1.00  0.00     0.178 C 
HETATM   29  C30 UNL     1       9.722 -10.633  20.695  1.00  0.00     0.037 C 
HETATM   30  C31 UNL     1      10.781 -11.166  19.761  1.00  0.00     0.022 C 
HETATM   31  C32 UNL     1      10.041 -11.418  18.438  1.00  0.00     0.126 C 
HETATM   32  N7  UNL     1       8.799 -10.633  18.610  1.00  0.00    -0.350 N 
HETATM   33  C33 UNL     1       8.107  -9.770  17.757  1.00  0.00     0.137 C 
ENDROOT
BRANCH   1  34
HETATM   34  C5  UNL     1       8.474  -7.443  18.657  1.00  0.00     0.035 C 
BRANCH  34  35
HETATM   35  C4  UNL     1       8.215  -5.994  18.309  1.00  0.00     0.022 C 
BRANCH  35  36
HETATM   36  C3  UNL     1       9.510  -5.412  17.754  1.00  0.00     0.127 C 
BRANCH  36  37
HETATM   37  N1  UNL     1       9.288  -5.031  16.397  1.00  0.00    -0.337 N 
HETATM   38  C34 UNL     1       9.394  -5.933  15.309  1.00  0.00     0.330 C 
HETATM   39  N8  UNL     1       9.164  -5.505  13.972  1.00  0.00    -0.040 NA
HETATM   40  O6  UNL     1       9.698  -7.119  15.547  1.00  0.00    -0.251 OA
BRANCH  37  41
HETATM   41  C2  UNL     1       8.934  -3.635  16.103  1.00  0.00     0.122 C 
HETATM   42  C1  UNL     1      10.215  -2.839  16.023  1.00  0.00     0.026 C 
ENDBRANCH  37  41
ENDBRANCH  36  37
ENDBRANCH  35  36
ENDBRANCH  34  35
ENDBRANCH   1  34
BRANCH  33  43
HETATM   43  O5  UNL     1       7.885 -10.279  16.581  1.00  0.00    -0.348 OA
ATOM     44  H5  UNL     1       8.260 -11.141  16.439  1.00  0.00     0.219 HD
ENDBRANCH  33  43
BRANCH   6  45
HETATM   45  C9  UNL     1       4.208  -6.038  16.448  1.00  0.00     0.035 C 
BRANCH  45  46
HETATM   46  C10 UNL     1       5.216  -5.081  15.923  1.00  0.00     0.004 C 
BRANCH  46  47
HETATM   47  C11 UNL     1       5.240  -3.720  16.504  1.00  0.00     0.027 C 
BRANCH  47  48
HETATM   48  C12 UNL     1       4.008  -2.892  16.356  1.00  0.00     0.229 C 
BRANCH  48  49
HETATM   49  N3  UNL     1       3.316  -2.575  17.561  1.00  0.00    -0.079 N 
ATOM     50  H33 UNL     1       2.796  -3.390  17.886  1.00  0.00     0.274 HD
ATOM     51  H32 UNL     1       3.984  -2.467  18.324  1.00  0.00     0.274 HD
ATOM     52  H31 UNL     1       2.700  -1.763  17.524  1.00  0.00     0.274 HD
ENDBRANCH  48  49
ENDBRANCH  47  48
ENDBRANCH  46  47
ENDBRANCH  45  46
ENDBRANCH   6  45
BRANCH  23  53
HETATM   53  C25 UNL     1       5.651 -12.913  21.972  1.00  0.00     0.009 C 
HETATM   54  C26 UNL     1       4.322 -13.161  22.591  1.00  0.00     0.012 C 
HETATM   55  C27 UNL     1       6.342 -11.819  22.698  1.00  0.00     0.012 C 
ENDBRANCH  23  53
TORSDOF 12
ENDMDL
MODEL 5
REMARK VINA RESULT: -7.237169699     10.714     16.935
REMARK  12 active torsions:
REMARK  status: ('A' for Active; 'I' for Inactive)
REMARK    1  A    between atoms: C2_2  and  N1_3 
REMARK    2  A    between atoms: N1_3  and  C3_4 
REMARK       I    between atoms: N1_3  and  C34_53 
REMARK    3  A    between atoms: C3_4  and  C4_5 
REMARK    4  A    between atoms: C4_5  and  C5_6 
REMARK    5  A    between atoms: C5_6  and  C6_7 
REMARK    6  A    between atoms: C8_12  and  C9_13 
REMARK    7  A    between atoms: C9_13  and  C10_14 
REMARK    8  A    between atoms: C10_14  and  C11_15 
REMARK    9  A    between atoms: C11_15  and  C12_16 
REMARK   10  A    between atoms: C12_16  and  N3_17 
REMARK   11  A    between atoms: C24_37  and  C25_38 
REMARK   12  A    between atoms: C33_50  and  O5_51 
ROOT
HETATM    1  C6  UNL     1       6.986  -8.574  17.890  1.00  0.00     0.159 C 
HETATM    2  N2  UNL     1       5.610  -8.717  18.308  1.00  0.00    -0.347 N 
ATOM      3  H2  UNL     1       5.432  -9.200  19.188  1.00  0.00     0.163 HD
HETATM    4  C7  UNL     1       4.481  -8.232  17.580  1.00  0.00     0.241 C 
HETATM    5  O1  UNL     1       3.450  -8.030  18.324  1.00  0.00    -0.271 OA
HETATM    6  C8  UNL     1       4.368  -7.954  16.180  1.00  0.00     0.176 C 
HETATM    7  N4  UNL     1       3.856  -8.928  15.280  1.00  0.00    -0.347 N 
ATOM      8  H4  UNL     1       3.688  -8.575  14.337  1.00  0.00     0.163 HD
HETATM    9  C13 UNL     1       3.537 -10.291  15.449  1.00  0.00     0.223 C 
HETATM   10  O2  UNL     1       4.107 -11.063  14.595  1.00  0.00    -0.273 OA
HETATM   11  C14 UNL     1       2.688 -10.955  16.406  1.00  0.00     0.084 C 
HETATM   12  C15 UNL     1       1.563 -11.687  15.692  1.00  0.00     0.014 C 
HETATM   13  C16 UNL     1       0.542 -12.061  16.680  1.00  0.00     0.001 C 
HETATM   14  C17 UNL     1       0.821 -11.897  18.119  1.00  0.00     0.001 C 
HETATM   15  C18 UNL     1       2.212 -11.769  18.579  1.00  0.00     0.007 C 
HETATM   16  C19 UNL     1       3.255 -11.812  17.474  1.00  0.00     0.021 C 
HETATM   17  C20 UNL     1       3.697 -13.186  17.143  1.00  0.00     0.087 C 
HETATM   18  C21 UNL     1       5.080 -13.246  16.501  1.00  0.00     0.033 C 
HETATM   19  N5  UNL     1       3.644 -14.097  18.272  1.00  0.00    -0.350 N 
HETATM   20  C22 UNL     1       2.463 -14.964  18.379  1.00  0.00     0.153 C 
HETATM   21  C23 UNL     1       4.623 -14.275  19.269  1.00  0.00     0.243 C 
HETATM   22  O3  UNL     1       4.940 -15.469  19.643  1.00  0.00    -0.271 OA
HETATM   23  C24 UNL     1       5.400 -13.249  20.005  1.00  0.00     0.180 C 
HETATM   24  N6  UNL     1       6.817 -13.398  19.708  1.00  0.00    -0.346 N 
ATOM     25  H6  UNL     1       7.073 -14.233  19.179  1.00  0.00     0.163 HD
HETATM   26  C28 UNL     1       7.869 -12.555  20.049  1.00  0.00     0.241 C 
HETATM   27  O4  UNL     1       8.917 -13.138  20.510  1.00  0.00    -0.271 OA
HETATM   28  C29 UNL     1       7.956 -11.084  19.954  1.00  0.00     0.178 C 
HETATM   29  C30 UNL     1       9.056 -10.548  20.850  1.00  0.00     0.037 C 
HETATM   30  C31 UNL     1      10.300 -10.869  20.058  1.00  0.00     0.022 C 
HETATM   31  C32 UNL     1       9.790 -11.176  18.641  1.00  0.00     0.126 C 
HETATM   32  N7  UNL     1       8.426 -10.601  18.660  1.00  0.00    -0.350 N 
HETATM   33  C33 UNL     1       7.724  -9.820  17.739  1.00  0.00     0.137 C 
ENDROOT
BRANCH   1  34
HETATM   34  C5  UNL     1       7.593  -7.505  18.731  1.00  0.00     0.035 C 
BRANCH  34  35
HETATM   35  C4  UNL     1       7.499  -6.112  18.150  1.00  0.00     0.022 C 
BRANCH  35  36
HETATM   36  C3  UNL     1       8.256  -6.109  16.827  1.00  0.00     0.127 C 
BRANCH  36  37
HETATM   37  N1  UNL     1       8.747  -4.789  16.592  1.00  0.00    -0.337 N 
HETATM   38  C34 UNL     1      10.074  -4.389  16.889  1.00  0.00     0.330 C 
HETATM   39  N8  UNL     1      10.516  -3.060  16.637  1.00  0.00    -0.040 NA
HETATM   40  O6  UNL     1      10.852  -5.230  17.381  1.00  0.00    -0.251 OA
BRANCH  37  41
HETATM   41  C2  UNL     1       7.837  -3.789  16.016  1.00  0.00     0.122 C 
HETATM   42  C1  UNL     1       7.683  -4.095  14.545  1.00  0.00     0.026 C 
ENDBRANCH  37  41
ENDBRANCH  36  37
ENDBRANCH  35  36
ENDBRANCH  34  35
ENDBRANCH   1  34
BRANCH  33  43
HETATM   43  O5  UNL     1       7.743 -10.306  16.533  1.00  0.00    -0.348 OA
ATOM     44  H5  UNL     1       7.201 -11.075  16.402  1.00  0.00     0.219 HD
ENDBRANCH  33  43
BRANCH   6  45
HETATM   45  C9  UNL     1       3.486  -6.685  15.992  1.00  0.00     0.035 C 
BRANCH  45  46
HETATM   46  C10 UNL     1       4.398  -5.533  15.780  1.00  0.00     0.004 C 
BRANCH  46  47
HETATM   47  C11 UNL     1       3.792  -4.234  15.408  1.00  0.00     0.027 C 
BRANCH  47  48
HETATM   48  C12 UNL     1       2.890  -3.590  16.408  1.00  0.00     0.229 C 
BRANCH  48  49
HETATM   49  N3  UNL     1       3.519  -2.739  17.363  1.00  0.00    -0.079 N 
ATOM     50  H33 UNL     1       2.811  -2.233  17.895  1.00  0.00     0.274 HD
ATOM     51  H32 UNL     1       3.938  -3.302  18.104  1.00  0.00     0.274 HD
ATOM     52  H31 UNL     1       4.209  -2.085  16.995  1.00  0.00     0.274 HD
ENDBRANCH  48  49
ENDBRANCH  47  48
ENDBRANCH  46  47
ENDBRANCH  45  46
ENDBRANCH   6  45
BRANCH  23  53
HETATM   53  C25 UNL     1       5.269 -13.484  21.510  1.00  0.00     0.009 C 
HETATM   54  C26 UNL     1       3.936 -13.990  21.933  1.00  0.00     0.012 C 
HETATM   55  C27 UNL     1       5.648 -12.319  22.347  1.00  0.00     0.012 C 
ENDBRANCH  23  53
TORSDOF 12
ENDMDL
