MODEL 1
REMARK VINA RESULT: -7.210973236      0.000      0.000
REMARK  4 active torsions:
REMARK  status: ('A' for Active; 'I' for Inactive)
REMARK    1  A    between atoms: C3_4  and  N2_5 
REMARK    2  A    between atoms: C5_7  and  N3_8 
REMARK    3  A    between atoms: C8_15  and  C9_16 
REMARK    4  A    between atoms: C10_21  and  N6_22 
ROOT
HETATM    1  N1  UNL     1     146.296  75.227  65.637  1.00  0.00    -0.191 NA
HETATM    2  C1  UNL     1     146.289  74.084  65.791  1.00  0.00     0.109 C 
HETATM    3  C2  UNL     1     146.273  72.660  65.958  1.00  0.00     0.157 A 
HETATM    4  C3  UNL     1     147.432  72.017  66.280  1.00  0.00     0.146 A 
HETATM    5  N5  UNL     1     147.352  70.653  66.397  1.00  0.00    -0.175 N 
ATOM      6  H5  UNL     1     148.198  70.135  66.636  1.00  0.00     0.186 HD
HETATM    7  C10 UNL     1     146.218  69.971  66.213  1.00  0.00     0.680 A 
HETATM    8  N7  UNL     1     145.057  70.584  65.896  1.00  0.00    -0.155 N 
ATOM      9  H7  UNL     1     144.189  70.066  65.758  1.00  0.00     0.187 HD
HETATM   10  C11 UNL     1     145.118  71.920  65.776  1.00  0.00     0.284 A 
HETATM   11  O3  UNL     1     144.065  72.543  65.480  1.00  0.00    -0.266 OA
ENDROOT
BRANCH   4  12
HETATM   12  N2  UNL     1     148.689  72.593  66.522  1.00  0.00    -0.347 N 
HETATM   13  C4  UNL     1     149.212  72.999  67.830  1.00  0.00     0.180 C 
HETATM   14  C5  UNL     1     149.934  74.309  67.517  1.00  0.00     0.228 C 
HETATM   15  C6  UNL     1     151.147  74.360  68.292  1.00  0.00     0.100 C 
HETATM   16  C7  UNL     1     150.145  74.342  66.019  1.00  0.00     0.092 C 
HETATM   17  N4  UNL     1     152.112  74.384  68.925  1.00  0.00    -0.195 NA
HETATM   18  C8  UNL     1     149.652  72.963  65.517  1.00  0.00     0.190 C 
BRANCH  14  19
HETATM   19  N3  UNL     1     149.053  75.413  67.894  1.00  0.00    -0.056 N 
ATOM     20  H33 UNL     1     148.360  75.627  67.177  1.00  0.00     0.276 HD
ATOM     21  H32 UNL     1     148.404  75.162  68.641  1.00  0.00     0.276 HD
ATOM     22  H31 UNL     1     149.635  76.216  68.132  1.00  0.00     0.276 HD
ENDBRANCH  14  19
BRANCH  18  23
HETATM   23  C9  UNL     1     150.838  72.102  65.449  1.00  0.00     0.197 C 
HETATM   24  O1  UNL     1     150.748  70.865  65.489  1.00  0.00    -0.646 OA
HETATM   25  O2  UNL     1     152.117  72.687  65.336  1.00  0.00    -0.646 OA
ENDBRANCH  18  23
ENDBRANCH   4  12
BRANCH   7  26
HETATM   26  N6  UNL     1     146.187  68.665  66.302  1.00  0.00    -0.234 N 
ATOM     27  H62 UNL     1     147.048  68.170  66.072  1.00  0.00     0.174 HD
ATOM     28  H61 UNL     1     145.348  68.174  66.611  1.00  0.00     0.174 HD
ENDBRANCH   7  26
TORSDOF 4
ENDMDL
MODEL 2
REMARK VINA RESULT: -6.770206870      2.492      3.270
REMARK  4 active torsions:
REMARK  status: ('A' for Active; 'I' for Inactive)
REMARK    1  A    between atoms: C3_4  and  N2_5 
REMARK    2  A    between atoms: C5_7  and  N3_8 
REMARK    3  A    between atoms: C8_15  and  C9_16 
REMARK    4  A    between atoms: C10_21  and  N6_22 
ROOT
HETATM    1  N1  UNL     1     143.534  73.670  63.607  1.00  0.00    -0.191 NA
HETATM    2  C1  UNL     1     143.997  72.757  64.138  1.00  0.00     0.109 C 
HETATM    3  C2  UNL     1     144.577  71.611  64.776  1.00  0.00     0.157 A 
HETATM    4  C3  UNL     1     145.739  71.758  65.475  1.00  0.00     0.146 A 
HETATM    5  N5  UNL     1     146.252  70.616  66.036  1.00  0.00    -0.175 N 
ATOM      6  H5  UNL     1     147.121  70.684  66.566  1.00  0.00     0.186 HD
HETATM    7  C10 UNL     1     145.668  69.421  65.920  1.00  0.00     0.680 A 
HETATM    8  N7  UNL     1     144.516  69.250  65.236  1.00  0.00    -0.155 N 
ATOM      9  H7  UNL     1     144.066  68.338  65.148  1.00  0.00     0.187 HD
HETATM   10  C11 UNL     1     143.999  70.357  64.679  1.00  0.00     0.284 A 
HETATM   11  O3  UNL     1     142.928  70.255  64.028  1.00  0.00    -0.266 OA
ENDROOT
BRANCH   4  12
HETATM   12  N2  UNL     1     146.456  72.942  65.700  1.00  0.00    -0.347 N 
HETATM   13  C4  UNL     1     145.876  74.264  65.956  1.00  0.00     0.180 C 
HETATM   14  C5  UNL     1     146.792  75.198  65.166  1.00  0.00     0.228 C 
HETATM   15  C6  UNL     1     146.993  76.400  65.934  1.00  0.00     0.100 C 
HETATM   16  C7  UNL     1     148.057  74.420  64.874  1.00  0.00     0.092 C 
HETATM   17  N4  UNL     1     147.138  77.357  66.562  1.00  0.00    -0.195 NA
HETATM   18  C8  UNL     1     147.888  73.083  65.636  1.00  0.00     0.190 C 
BRANCH  14  19
HETATM   19  N3  UNL     1     146.132  75.517  63.901  1.00  0.00    -0.056 N 
ATOM     20  H33 UNL     1     146.729  75.349  63.091  1.00  0.00     0.276 HD
ATOM     21  H32 UNL     1     145.391  74.855  63.665  1.00  0.00     0.276 HD
ATOM     22  H31 UNL     1     145.798  76.479  63.952  1.00  0.00     0.276 HD
ENDBRANCH  14  19
BRANCH  18  23
HETATM   23  C9  UNL     1     148.551  73.261  66.932  1.00  0.00     0.197 C 
HETATM   24  O1  UNL     1     148.202  72.621  67.936  1.00  0.00    -0.646 OA
HETATM   25  O2  UNL     1     149.615  74.181  67.050  1.00  0.00    -0.646 OA
ENDBRANCH  18  23
ENDBRANCH   4  12
BRANCH   7  26
HETATM   26  N6  UNL     1     146.205  68.347  66.444  1.00  0.00    -0.234 N 
ATOM     27  H62 UNL     1     146.440  68.389  67.435  1.00  0.00     0.174 HD
ATOM     28  H61 UNL     1     146.356  67.505  65.888  1.00  0.00     0.174 HD
ENDBRANCH   7  26
TORSDOF 4
ENDMDL
MODEL 3
REMARK VINA RESULT: -6.729000351      1.538      1.833
REMARK  4 active torsions:
REMARK  status: ('A' for Active; 'I' for Inactive)
REMARK    1  A    between atoms: C3_4  and  N2_5 
REMARK    2  A    between atoms: C5_7  and  N3_8 
REMARK    3  A    between atoms: C8_15  and  C9_16 
REMARK    4  A    between atoms: C10_21  and  N6_22 
ROOT
HETATM    1  N1  UNL     1     144.739  73.953  64.574  1.00  0.00    -0.191 NA
HETATM    2  C1  UNL     1     144.991  72.888  64.936  1.00  0.00     0.109 C 
HETATM    3  C2  UNL     1     145.304  71.554  65.361  1.00  0.00     0.157 A 
HETATM    4  C3  UNL     1     146.483  71.324  66.007  1.00  0.00     0.146 A 
HETATM    5  N5  UNL     1     146.732  70.023  66.361  1.00  0.00    -0.175 N 
ATOM      6  H5  UNL     1     147.604  69.809  66.846  1.00  0.00     0.186 HD
HETATM    7  C10 UNL     1     145.886  69.022  66.101  1.00  0.00     0.680 A 
HETATM    8  N7  UNL     1     144.711  69.225  65.465  1.00  0.00    -0.155 N 
ATOM      9  H7  UNL     1     144.062  68.462  65.268  1.00  0.00     0.187 HD
HETATM   10  C11 UNL     1     144.452  70.493  65.110  1.00  0.00     0.284 A 
HETATM   11  O3  UNL     1     143.372  70.738  64.513  1.00  0.00    -0.266 OA
ENDROOT
BRANCH   4  12
HETATM   12  N2  UNL     1     147.458  72.267  66.366  1.00  0.00    -0.347 N 
HETATM   13  C4  UNL     1     147.382  73.197  67.497  1.00  0.00     0.180 C 
HETATM   14  C5  UNL     1     147.976  74.483  66.922  1.00  0.00     0.228 C 
HETATM   15  C6  UNL     1     148.782  75.108  67.938  1.00  0.00     0.100 C 
HETATM   16  C7  UNL     1     148.734  74.090  65.673  1.00  0.00     0.092 C 
HETATM   17  N4  UNL     1     149.420  75.597  68.767  1.00  0.00    -0.195 NA
HETATM   18  C8  UNL     1     148.669  72.543  65.637  1.00  0.00     0.190 C 
BRANCH  14  19
HETATM   19  N3  UNL     1     146.872  75.364  66.547  1.00  0.00    -0.056 N 
ATOM     20  H33 UNL     1     146.448  75.108  65.655  1.00  0.00     0.276 HD
ATOM     21  H32 UNL     1     146.047  75.235  67.133  1.00  0.00     0.276 HD
ATOM     22  H31 UNL     1     147.215  76.325  66.558  1.00  0.00     0.276 HD
ENDBRANCH  14  19
BRANCH  18  23
HETATM   23  C9  UNL     1     149.900  72.065  66.275  1.00  0.00     0.197 C 
HETATM   24  O1  UNL     1     150.104  72.214  67.490  1.00  0.00    -0.646 OA
HETATM   25  O2  UNL     1     150.882  71.417  65.496  1.00  0.00    -0.646 OA
ENDBRANCH  18  23
ENDBRANCH   4  12
BRANCH   7  26
HETATM   26  N6  UNL     1     146.172  67.787  66.427  1.00  0.00    -0.234 N 
ATOM     27  H62 UNL     1     145.808  67.056  65.815  1.00  0.00     0.174 HD
ATOM     28  H61 UNL     1     146.750  67.572  67.239  1.00  0.00     0.174 HD
ENDBRANCH   7  26
TORSDOF 4
ENDMDL
MODEL 4
REMARK VINA RESULT: -6.544210821      6.036      9.105
REMARK  4 active torsions:
REMARK  status: ('A' for Active; 'I' for Inactive)
REMARK    1  A    between atoms: C3_4  and  N2_5 
REMARK    2  A    between atoms: C5_7  and  N3_8 
REMARK    3  A    between atoms: C8_15  and  C9_16 
REMARK    4  A    between atoms: C10_21  and  N6_22 
ROOT
HETATM    1  N1  UNL     1     146.705  66.671  66.061  1.00  0.00    -0.191 NA
HETATM    2  C1  UNL     1     145.896  67.281  65.511  1.00  0.00     0.109 C 
HETATM    3  C2  UNL     1     144.907  68.059  64.823  1.00  0.00     0.157 A 
HETATM    4  C3  UNL     1     144.386  67.586  63.655  1.00  0.00     0.146 A 
HETATM    5  N5  UNL     1     143.465  68.392  63.036  1.00  0.00    -0.175 N 
ATOM      6  H5  UNL     1     143.053  68.074  62.158  1.00  0.00     0.186 HD
HETATM    7  C10 UNL     1     143.083  69.574  63.527  1.00  0.00     0.680 A 
HETATM    8  N7  UNL     1     143.582  70.063  64.684  1.00  0.00    -0.155 N 
ATOM      9  H7  UNL     1     143.290  70.964  65.063  1.00  0.00     0.187 HD
HETATM   10  C11 UNL     1     144.486  69.287  65.303  1.00  0.00     0.284 A 
HETATM   11  O3  UNL     1     144.985  69.695  66.384  1.00  0.00    -0.266 OA
ENDROOT
BRANCH   4  12
HETATM   12  N2  UNL     1     144.671  66.364  63.026  1.00  0.00    -0.347 N 
HETATM   13  C4  UNL     1     143.701  65.499  62.346  1.00  0.00     0.180 C 
HETATM   14  C5  UNL     1     144.150  64.097  62.754  1.00  0.00     0.228 C 
HETATM   15  C6  UNL     1     144.004  63.222  61.619  1.00  0.00     0.100 C 
HETATM   16  C7  UNL     1     145.568  64.227  63.267  1.00  0.00     0.092 C 
HETATM   17  N4  UNL     1     143.876  62.536  60.699  1.00  0.00    -0.195 NA
HETATM   18  C8  UNL     1     145.951  65.705  63.010  1.00  0.00     0.190 C 
BRANCH  14  19
HETATM   19  N3  UNL     1     143.292  63.645  63.847  1.00  0.00    -0.056 N 
ATOM     20  H33 UNL     1     142.316  63.547  63.567  1.00  0.00     0.276 HD
ATOM     21  H32 UNL     1     143.460  62.672  64.104  1.00  0.00     0.276 HD
ATOM     22  H31 UNL     1     143.414  64.286  64.631  1.00  0.00     0.276 HD
ENDBRANCH  14  19
BRANCH  18  23
HETATM   23  C9  UNL     1     146.645  65.731  61.717  1.00  0.00     0.197 C 
HETATM   24  O1  UNL     1     146.431  66.623  60.881  1.00  0.00    -0.646 OA
HETATM   25  O2  UNL     1     147.580  64.721  61.409  1.00  0.00    -0.646 OA
ENDBRANCH  18  23
ENDBRANCH   4  12
BRANCH   7  26
HETATM   26  N6  UNL     1     142.225  70.331  62.892  1.00  0.00    -0.234 N 
ATOM     27  H62 UNL     1     141.406  69.866  62.501  1.00  0.00     0.174 HD
ATOM     28  H61 UNL     1     142.361  71.339  62.815  1.00  0.00     0.174 HD
ENDBRANCH   7  26
TORSDOF 4
ENDMDL
MODEL 5
REMARK VINA RESULT: -6.516712840      2.689      4.138
REMARK  4 active torsions:
REMARK  status: ('A' for Active; 'I' for Inactive)
REMARK    1  A    between atoms: C3_4  and  N2_5 
REMARK    2  A    between atoms: C5_7  and  N3_8 
REMARK    3  A    between atoms: C8_15  and  C9_16 
REMARK    4  A    between atoms: C10_21  and  N6_22 
ROOT
HETATM    1  N1  UNL     1     146.772  70.544  66.622  1.00  0.00    -0.191 NA
HETATM    2  C1  UNL     1     146.092  71.194  65.955  1.00  0.00     0.109 C 
HETATM    3  C2  UNL     1     145.227  71.999  65.143  1.00  0.00     0.157 A 
HETATM    4  C3  UNL     1     145.536  73.313  64.945  1.00  0.00     0.146 A 
HETATM    5  N5  UNL     1     144.652  74.031  64.181  1.00  0.00    -0.175 N 
ATOM      6  H5  UNL     1     144.848  75.018  64.010  1.00  0.00     0.186 HD
HETATM    7  C10 UNL     1     143.548  73.499  63.650  1.00  0.00     0.680 A 
HETATM    8  N7  UNL     1     143.221  72.201  63.829  1.00  0.00    -0.155 N 
ATOM      9  H7  UNL     1     142.379  71.792  63.423  1.00  0.00     0.187 HD
HETATM   10  C11 UNL     1     144.075  71.483  64.576  1.00  0.00     0.284 A 
HETATM   11  O3  UNL     1     143.818  70.268  64.777  1.00  0.00    -0.266 OA
ENDROOT
BRANCH   4  12
HETATM   12  N2  UNL     1     146.661  74.005  65.417  1.00  0.00    -0.347 N 
HETATM   13  C4  UNL     1     148.061  73.638  65.179  1.00  0.00     0.180 C 
HETATM   14  C5  UNL     1     148.724  73.933  66.524  1.00  0.00     0.228 C 
HETATM   15  C6  UNL     1     150.025  74.501  66.278  1.00  0.00     0.100 C 
HETATM   16  C7  UNL     1     147.779  74.835  67.286  1.00  0.00     0.092 C 
HETATM   17  N4  UNL     1     151.065  74.952  66.060  1.00  0.00    -0.195 NA
HETATM   18  C8  UNL     1     146.638  75.152  66.288  1.00  0.00     0.190 C 
BRANCH  14  19
HETATM   19  N3  UNL     1     148.860  72.670  67.249  1.00  0.00    -0.056 N 
ATOM     20  H33 UNL     1     148.085  72.030  67.073  1.00  0.00     0.276 HD
ATOM     21  H32 UNL     1     149.610  72.084  66.882  1.00  0.00     0.276 HD
ATOM     22  H31 UNL     1     148.977  72.885  68.239  1.00  0.00     0.276 HD
ENDBRANCH  14  19
BRANCH  18  23
HETATM   23  C9  UNL     1     146.994  76.423  65.648  1.00  0.00     0.197 C 
HETATM   24  O1  UNL     1     147.644  77.295  66.246  1.00  0.00    -0.646 OA
HETATM   25  O2  UNL     1     146.590  76.670  64.318  1.00  0.00    -0.646 OA
ENDBRANCH  18  23
ENDBRANCH   4  12
BRANCH   7  26
HETATM   26  N6  UNL     1     142.711  74.225  62.952  1.00  0.00    -0.234 N 
ATOM     27  H62 UNL     1     141.996  74.730  63.476  1.00  0.00     0.174 HD
ATOM     28  H61 UNL     1     142.789  74.296  61.937  1.00  0.00     0.174 HD
ENDBRANCH   7  26
TORSDOF 4
ENDMDL
