MODEL 1
REMARK VINA RESULT: -7.417768976      0.000      0.000
REMARK  5 active torsions:
REMARK  status: ('A' for Active; 'I' for Inactive)
REMARK       I    between atoms: N2_3  and  C2_5 
REMARK    1  A    between atoms: C2_5  and  C3_7 
REMARK    2  A    between atoms: N3_12  and  C8_13 
REMARK    3  A    between atoms: C9_16  and  N5_17 
REMARK    4  A    between atoms: C10_22  and  N7_23 
REMARK    5  A    between atoms: N7_23  and  N8_25 
ROOT
HETATM    1  N1  UNL     1     141.960  74.059  62.964  1.00  0.00    -0.172 NA
HETATM    2  C1  UNL     1     143.005  73.956  63.447  1.00  0.00     0.184 C 
HETATM    3  N2  UNL     1     144.286  73.803  64.037  1.00  0.00    -0.262 N 
ATOM      4  H2  UNL     1     145.114  74.110  63.527  1.00  0.00     0.181 HD
HETATM    5  C2  UNL     1     144.432  73.227  65.328  1.00  0.00     0.254 C 
HETATM    6  O1  UNL     1     143.420  72.855  65.952  1.00  0.00    -0.270 OA
ENDROOT
BRANCH   5   7
HETATM    7  C3  UNL     1     145.771  73.082  65.899  1.00  0.00     0.195 C 
HETATM    8  C4  UNL     1     146.731  73.939  65.102  1.00  0.00     0.036 C 
HETATM    9  C5  UNL     1     148.176  73.698  65.384  1.00  0.00     0.004 C 
HETATM   10  C6  UNL     1     148.550  72.359  65.902  1.00  0.00     0.020 C 
HETATM   11  C7  UNL     1     147.563  71.727  66.812  1.00  0.00     0.142 C 
HETATM   12  N3  UNL     1     146.255  71.762  66.102  1.00  0.00    -0.203 N 
BRANCH  12  13
HETATM   13  C8  UNL     1     145.708  70.529  65.749  1.00  0.00     0.710 A 
HETATM   14  N4  UNL     1     144.652  70.443  64.894  1.00  0.00    -0.021 N 
HETATM   15  C9  UNL     1     144.116  69.261  64.553  1.00  0.00     0.705 A 
ATOM     16  H4  UNL     1     144.259  71.298  64.502  1.00  0.00     0.203 HD
HETATM   17  N6  UNL     1     144.617  68.121  65.052  1.00  0.00    -0.020 N 
HETATM   18  C10 UNL     1     145.660  68.174  65.900  1.00  0.00     0.725 A 
ATOM     19  H6  UNL     1     144.210  67.223  64.791  1.00  0.00     0.203 HD
HETATM   20  N9  UNL     1     146.192  69.382  66.238  1.00  0.00    -0.020 N 
ATOM     21  H9  UNL     1     146.982  69.412  66.882  1.00  0.00     0.203 HD
BRANCH  15  22
HETATM   22  N5  UNL     1     143.116  69.182  63.752  1.00  0.00    -0.234 N 
ATOM     23  H52 UNL     1     142.537  68.343  63.789  1.00  0.00     0.174 HD
ATOM     24  H51 UNL     1     142.896  69.933  63.097  1.00  0.00     0.174 HD
ENDBRANCH  15  22
BRANCH  18  25
HETATM   25  N7  UNL     1     146.142  67.066  66.357  1.00  0.00    -0.138 N 
ATOM     26  H7  UNL     1     146.464  67.030  67.325  1.00  0.00     0.205 HD
BRANCH  25  27
HETATM   27  N8  UNL     1     146.237  65.917  65.573  1.00  0.00    -0.331 N 
ATOM     28  H82 UNL     1     146.846  65.948  64.755  1.00  0.00     0.177 HD
ATOM     29  H81 UNL     1     145.723  65.065  65.793  1.00  0.00     0.177 HD
ENDBRANCH  25  27
ENDBRANCH  18  25
ENDBRANCH  12  13
ENDBRANCH   5   7
TORSDOF 5
ENDMDL
MODEL 2
REMARK VINA RESULT: -7.258897781      3.778      6.371
REMARK  5 active torsions:
REMARK  status: ('A' for Active; 'I' for Inactive)
REMARK       I    between atoms: N2_3  and  C2_5 
REMARK    1  A    between atoms: C2_5  and  C3_7 
REMARK    2  A    between atoms: N3_12  and  C8_13 
REMARK    3  A    between atoms: C9_16  and  N5_17 
REMARK    4  A    between atoms: C10_22  and  N7_23 
REMARK    5  A    between atoms: N7_23  and  N8_25 
ROOT
HETATM    1  N1  UNL     1     148.295  77.521  63.164  1.00  0.00    -0.172 NA
HETATM    2  C1  UNL     1     148.151  76.407  63.438  1.00  0.00     0.184 C 
HETATM    3  N2  UNL     1     147.949  75.042  63.764  1.00  0.00    -0.262 N 
ATOM      4  H2  UNL     1     148.464  74.323  63.256  1.00  0.00     0.181 HD
HETATM    5  C2  UNL     1     147.041  74.661  64.790  1.00  0.00     0.254 C 
HETATM    6  O1  UNL     1     146.416  75.541  65.412  1.00  0.00    -0.270 OA
ENDROOT
BRANCH   5   7
HETATM    7  C3  UNL     1     146.859  73.242  65.092  1.00  0.00     0.195 C 
HETATM    8  C4  UNL     1     145.377  72.935  65.092  1.00  0.00     0.036 C 
HETATM    9  C5  UNL     1     145.008  71.598  65.643  1.00  0.00     0.004 C 
HETATM   10  C6  UNL     1     145.945  70.988  66.618  1.00  0.00     0.020 C 
HETATM   11  C7  UNL     1     147.385  71.251  66.373  1.00  0.00     0.142 C 
HETATM   12  N3  UNL     1     147.524  72.727  66.237  1.00  0.00    -0.203 N 
BRANCH  12  13
HETATM   13  C8  UNL     1     148.268  73.373  67.224  1.00  0.00     0.710 A 
HETATM   14  N4  UNL     1     149.084  72.678  68.063  1.00  0.00    -0.021 N 
HETATM   15  C9  UNL     1     149.799  73.292  69.018  1.00  0.00     0.705 A 
ATOM     16  H4  UNL     1     149.154  71.666  67.962  1.00  0.00     0.203 HD
HETATM   17  N6  UNL     1     149.728  74.623  69.169  1.00  0.00    -0.020 N 
HETATM   18  C10 UNL     1     148.930  75.336  68.353  1.00  0.00     0.725 A 
ATOM     19  H6  UNL     1     150.272  75.088  69.894  1.00  0.00     0.203 HD
HETATM   20  N9  UNL     1     148.208  74.699  67.390  1.00  0.00    -0.020 N 
ATOM     21  H9  UNL     1     147.605  75.248  66.778  1.00  0.00     0.203 HD
BRANCH  15  22
HETATM   22  N5  UNL     1     150.562  72.634  69.813  1.00  0.00    -0.234 N 
ATOM     23  H52 UNL     1     150.561  71.616  69.747  1.00  0.00     0.174 HD
ATOM     24  H51 UNL     1     151.159  73.106  70.493  1.00  0.00     0.174 HD
ENDBRANCH  15  22
BRANCH  18  25
HETATM   25  N7  UNL     1     148.886  76.620  68.500  1.00  0.00    -0.138 N 
ATOM     26  H7  UNL     1     149.425  77.048  69.252  1.00  0.00     0.205 HD
BRANCH  25  27
HETATM   27  N8  UNL     1     148.126  77.437  67.665  1.00  0.00    -0.331 N 
ATOM     28  H82 UNL     1     147.298  77.884  68.059  1.00  0.00     0.177 HD
ATOM     29  H81 UNL     1     148.374  77.595  66.688  1.00  0.00     0.177 HD
ENDBRANCH  25  27
ENDBRANCH  18  25
ENDBRANCH  12  13
ENDBRANCH   5   7
TORSDOF 5
ENDMDL
MODEL 3
REMARK VINA RESULT: -7.180657233      3.897      6.042
REMARK  5 active torsions:
REMARK  status: ('A' for Active; 'I' for Inactive)
REMARK       I    between atoms: N2_3  and  C2_5 
REMARK    1  A    between atoms: C2_5  and  C3_7 
REMARK    2  A    between atoms: N3_12  and  C8_13 
REMARK    3  A    between atoms: C9_16  and  N5_17 
REMARK    4  A    between atoms: C10_22  and  N7_23 
REMARK    5  A    between atoms: N7_23  and  N8_25 
ROOT
HETATM    1  N1  UNL     1     148.103  77.578  62.544  1.00  0.00    -0.172 NA
HETATM    2  C1  UNL     1     147.972  76.495  62.926  1.00  0.00     0.184 C 
HETATM    3  N2  UNL     1     147.786  75.167  63.384  1.00  0.00    -0.262 N 
ATOM      4  H2  UNL     1     148.285  74.403  62.928  1.00  0.00     0.181 HD
HETATM    5  C2  UNL     1     146.915  74.883  64.471  1.00  0.00     0.254 C 
HETATM    6  O1  UNL     1     146.308  75.817  65.031  1.00  0.00    -0.270 OA
ENDROOT
BRANCH   5   7
HETATM    7  C3  UNL     1     146.747  73.499  64.910  1.00  0.00     0.195 C 
HETATM    8  C4  UNL     1     145.267  73.187  64.969  1.00  0.00     0.036 C 
HETATM    9  C5  UNL     1     144.917  71.907  65.653  1.00  0.00     0.004 C 
HETATM   10  C6  UNL     1     145.877  71.395  66.661  1.00  0.00     0.020 C 
HETATM   11  C7  UNL     1     147.310  71.640  66.363  1.00  0.00     0.142 C 
HETATM   12  N3  UNL     1     147.438  73.096  66.085  1.00  0.00    -0.203 N 
BRANCH  12  13
HETATM   13  C8  UNL     1     148.197  73.837  66.991  1.00  0.00     0.710 A 
HETATM   14  N4  UNL     1     147.954  75.160  67.201  1.00  0.00    -0.021 N 
HETATM   15  C9  UNL     1     148.683  75.880  68.067  1.00  0.00     0.705 A 
ATOM     16  H4  UNL     1     147.199  75.614  66.688  1.00  0.00     0.203 HD
HETATM   17  N6  UNL     1     149.680  75.306  68.757  1.00  0.00    -0.020 N 
HETATM   18  C10 UNL     1     149.942  73.999  68.570  1.00  0.00     0.725 A 
ATOM     19  H6  UNL     1     150.232  75.854  69.416  1.00  0.00     0.203 HD
HETATM   20  N9  UNL     1     149.195  73.282  67.686  1.00  0.00    -0.020 N 
ATOM     21  H9  UNL     1     149.403  72.293  67.551  1.00  0.00     0.203 HD
BRANCH  15  22
HETATM   22  N5  UNL     1     148.458  77.130  68.258  1.00  0.00    -0.234 N 
ATOM     23  H52 UNL     1     147.488  77.444  68.281  1.00  0.00     0.174 HD
ATOM     24  H51 UNL     1     149.219  77.796  68.389  1.00  0.00     0.174 HD
ENDBRANCH  15  22
BRANCH  18  25
HETATM   25  N7  UNL     1     150.894  73.457  69.256  1.00  0.00    -0.138 N 
ATOM     26  H7  UNL     1     151.824  73.874  69.225  1.00  0.00     0.205 HD
BRANCH  25  27
HETATM   27  N8  UNL     1     150.691  72.320  70.037  1.00  0.00    -0.331 N 
ATOM     28  H82 UNL     1     151.512  71.780  70.315  1.00  0.00     0.177 HD
ATOM     29  H81 UNL     1     149.762  72.020  70.330  1.00  0.00     0.177 HD
ENDBRANCH  25  27
ENDBRANCH  18  25
ENDBRANCH  12  13
ENDBRANCH   5   7
TORSDOF 5
ENDMDL
MODEL 4
REMARK VINA RESULT: -7.159085341      0.314      2.246
REMARK  5 active torsions:
REMARK  status: ('A' for Active; 'I' for Inactive)
REMARK       I    between atoms: N2_3  and  C2_5 
REMARK    1  A    between atoms: C2_5  and  C3_7 
REMARK    2  A    between atoms: N3_12  and  C8_13 
REMARK    3  A    between atoms: C9_16  and  N5_17 
REMARK    4  A    between atoms: C10_22  and  N7_23 
REMARK    5  A    between atoms: N7_23  and  N8_25 
ROOT
HETATM    1  N1  UNL     1     141.935  74.024  62.923  1.00  0.00    -0.172 NA
HETATM    2  C1  UNL     1     142.976  73.926  63.415  1.00  0.00     0.184 C 
HETATM    3  N2  UNL     1     144.252  73.779  64.016  1.00  0.00    -0.262 N 
ATOM      4  H2  UNL     1     145.084  74.087  63.512  1.00  0.00     0.181 HD
HETATM    5  C2  UNL     1     144.390  73.208  65.311  1.00  0.00     0.254 C 
HETATM    6  O1  UNL     1     143.373  72.835  65.927  1.00  0.00    -0.270 OA
ENDROOT
BRANCH   5   7
HETATM    7  C3  UNL     1     145.724  73.069  65.893  1.00  0.00     0.195 C 
HETATM    8  C4  UNL     1     146.686  73.936  65.109  1.00  0.00     0.036 C 
HETATM    9  C5  UNL     1     148.130  73.703  65.403  1.00  0.00     0.004 C 
HETATM   10  C6  UNL     1     148.507  72.364  65.919  1.00  0.00     0.020 C 
HETATM   11  C7  UNL     1     147.516  71.721  66.816  1.00  0.00     0.142 C 
HETATM   12  N3  UNL     1     146.215  71.751  66.095  1.00  0.00    -0.203 N 
BRANCH  12  13
HETATM   13  C8  UNL     1     145.679  70.516  65.731  1.00  0.00     0.710 A 
HETATM   14  N4  UNL     1     146.180  69.353  66.232  1.00  0.00    -0.021 N 
HETATM   15  C9  UNL     1     145.673  68.160  65.883  1.00  0.00     0.705 A 
ATOM     16  H4  UNL     1     146.959  69.390  66.888  1.00  0.00     0.203 HD
HETATM   17  N6  UNL     1     144.645  68.085  65.025  1.00  0.00    -0.020 N 
HETATM   18  C10 UNL     1     144.129  69.218  64.514  1.00  0.00     0.725 A 
ATOM     19  H6  UNL     1     144.260  67.178  64.762  1.00  0.00     0.203 HD
HETATM   20  N9  UNL     1     144.656  70.421  64.875  1.00  0.00    -0.020 N 
ATOM     21  H9  UNL     1     144.258  71.273  64.482  1.00  0.00     0.203 HD
BRANCH  15  22
HETATM   22  N5  UNL     1     146.152  67.065  66.350  1.00  0.00    -0.234 N 
ATOM     23  H52 UNL     1     147.076  66.771  66.034  1.00  0.00     0.174 HD
ATOM     24  H51 UNL     1     145.633  66.498  67.022  1.00  0.00     0.174 HD
ENDBRANCH  15  22
BRANCH  18  25
HETATM   25  N7  UNL     1     143.127  69.129  63.702  1.00  0.00    -0.138 N 
ATOM     26  H7  UNL     1     142.880  68.215  63.322  1.00  0.00     0.205 HD
BRANCH  25  27
HETATM   27  N8  UNL     1     142.374  70.240  63.327  1.00  0.00    -0.331 N 
ATOM     28  H82 UNL     1     142.763  71.165  63.513  1.00  0.00     0.177 HD
ATOM     29  H81 UNL     1     141.461  70.153  62.881  1.00  0.00     0.177 HD
ENDBRANCH  25  27
ENDBRANCH  18  25
ENDBRANCH  12  13
ENDBRANCH   5   7
TORSDOF 5
ENDMDL
MODEL 5
REMARK VINA RESULT: -7.142419626      1.438      5.060
REMARK  5 active torsions:
REMARK  status: ('A' for Active; 'I' for Inactive)
REMARK       I    between atoms: N2_3  and  C2_5 
REMARK    1  A    between atoms: C2_5  and  C3_7 
REMARK    2  A    between atoms: N3_12  and  C8_13 
REMARK    3  A    between atoms: C9_16  and  N5_17 
REMARK    4  A    between atoms: C10_22  and  N7_23 
REMARK    5  A    between atoms: N7_23  and  N8_25 
ROOT
HETATM    1  N1  UNL     1     145.417  66.468  65.984  1.00  0.00    -0.172 NA
HETATM    2  C1  UNL     1     145.959  67.481  65.859  1.00  0.00     0.184 C 
HETATM    3  N2  UNL     1     146.627  68.725  65.733  1.00  0.00    -0.262 N 
ATOM      4  H2  UNL     1     147.570  68.752  65.343  1.00  0.00     0.181 HD
HETATM    5  C2  UNL     1     146.002  69.935  66.140  1.00  0.00     0.254 C 
HETATM    6  O1  UNL     1     144.850  69.901  66.612  1.00  0.00    -0.270 OA
ENDROOT
BRANCH   5   7
HETATM    7  C3  UNL     1     146.727  71.197  65.998  1.00  0.00     0.195 C 
HETATM    8  C4  UNL     1     147.009  71.750  67.378  1.00  0.00     0.036 C 
HETATM    9  C5  UNL     1     147.503  73.158  67.406  1.00  0.00     0.004 C 
HETATM   10  C6  UNL     1     147.131  74.028  66.263  1.00  0.00     0.020 C 
HETATM   11  C7  UNL     1     147.062  73.355  64.943  1.00  0.00     0.142 C 
HETATM   12  N3  UNL     1     146.179  72.171  65.120  1.00  0.00    -0.203 N 
BRANCH  12  13
HETATM   13  C8  UNL     1     144.974  72.185  64.418  1.00  0.00     0.710 A 
HETATM   14  N4  UNL     1     144.322  71.031  64.109  1.00  0.00    -0.021 N 
HETATM   15  C9  UNL     1     143.165  71.036  63.430  1.00  0.00     0.705 A 
ATOM     16  H4  UNL     1     144.723  70.140  64.401  1.00  0.00     0.203 HD
HETATM   17  N6  UNL     1     142.614  72.194  63.037  1.00  0.00    -0.020 N 
HETATM   18  C10 UNL     1     143.235  73.351  63.329  1.00  0.00     0.725 A 
ATOM     19  H6  UNL     1     141.734  72.197  62.522  1.00  0.00     0.203 HD
HETATM   20  N9  UNL     1     144.410  73.330  64.017  1.00  0.00    -0.020 N 
ATOM     21  H9  UNL     1     144.874  74.212  64.233  1.00  0.00     0.203 HD
BRANCH  15  22
HETATM   22  N5  UNL     1     142.555  69.946  63.132  1.00  0.00    -0.234 N 
ATOM     23  H52 UNL     1     141.969  69.936  62.297  1.00  0.00     0.174 HD
ATOM     24  H51 UNL     1     142.651  69.106  63.704  1.00  0.00     0.174 HD
ENDBRANCH  15  22
BRANCH  18  25
HETATM   25  N7  UNL     1     142.682  74.460  62.960  1.00  0.00    -0.138 N 
ATOM     26  H7  UNL     1     143.278  75.231  62.657  1.00  0.00     0.205 HD
BRANCH  25  27
HETATM   27  N8  UNL     1     141.299  74.636  62.961  1.00  0.00    -0.331 N 
ATOM     28  H82 UNL     1     140.934  75.539  63.265  1.00  0.00     0.177 HD
ATOM     29  H81 UNL     1     140.657  73.899  62.671  1.00  0.00     0.177 HD
ENDBRANCH  25  27
ENDBRANCH  18  25
ENDBRANCH  12  13
ENDBRANCH   5   7
TORSDOF 5
ENDMDL
