MODEL 1
REMARK VINA RESULT: -6.981359317      0.000      0.000
REMARK  11 active torsions:
REMARK  status: ('A' for Active; 'I' for Inactive)
REMARK    1  A    between atoms: N1_1  and  C1_4 
REMARK    2  A    between atoms: C2_7  and  N3_8 
REMARK    3  A    between atoms: C4_10  and  C5_11 
REMARK    4  A    between atoms: C5_11  and  C6_12 
REMARK    5  A    between atoms: C6_12  and  C7_13 
REMARK    6  A    between atoms: C7_13  and  C8_14 
REMARK    7  A    between atoms: C8_14  and  C9_16 
REMARK    8  A    between atoms: C9_16  and  C10_17 
REMARK    9  A    between atoms: C12_24  and  C13_25 
REMARK   10  A    between atoms: C16_29  and  O1_30 
REMARK   11  A    between atoms: C19_35  and  N6_36 
ROOT
HETATM    1  C1  UNL     1      35.846  10.158  92.891  1.00  0.00     0.679 A 
HETATM    2  N2  UNL     1      34.725  10.582  92.304  1.00  0.00    -0.176 N 
ATOM      3  H2  UNL     1      34.581  11.576  92.123  1.00  0.00     0.186 HD
HETATM    4  C2  UNL     1      33.761   9.662  91.944  1.00  0.00     0.140 A 
HETATM    5  C12 UNL     1      33.960   8.321  92.189  1.00  0.00     0.063 A 
HETATM    6  C19 UNL     1      35.141   7.940  92.797  1.00  0.00     0.129 A 
HETATM    7  N7  UNL     1      36.082   8.862  93.146  1.00  0.00    -0.176 N 
ATOM      8  H7  UNL     1      36.951   8.572  93.594  1.00  0.00     0.186 HD
ENDROOT
BRANCH   4   9
HETATM    9  N3  UNL     1      32.589  10.079  91.315  1.00  0.00    -0.304 N 
HETATM   10  C3  UNL     1      32.208   9.922  89.916  1.00  0.00     0.158 C 
HETATM   11  C4  UNL     1      31.723  11.367  89.727  1.00  0.00     0.102 C 
HETATM   12  N4  UNL     1      30.984  11.569  90.941  1.00  0.00    -0.358 N 
HETATM   13  C11 UNL     1      31.506  10.803  91.873  1.00  0.00     0.192 C 
ATOM     14  H4  UNL     1      30.190  12.198  91.060  1.00  0.00     0.162 HD
HETATM   15  N5  UNL     1      31.074  10.715  93.237  1.00  0.00    -0.063 NA
BRANCH  11  16
HETATM   16  C5  UNL     1      30.976  11.588  88.463  1.00  0.00     0.027 C 
BRANCH  16  17
HETATM   17  C6  UNL     1      30.010  12.734  88.725  1.00  0.00     0.005 C 
BRANCH  17  18
HETATM   18  C7  UNL     1      28.644  12.484  88.185  1.00  0.00     0.037 C 
BRANCH  18  19
HETATM   19  C8  UNL     1      28.639  11.547  86.997  1.00  0.00     0.175 C 
HETATM   20  F1  UNL     1      28.914  12.243  85.857  1.00  0.00    -0.249 F 
BRANCH  19  21
HETATM   21  C9  UNL     1      27.245  10.973  86.886  1.00  0.00     0.108 C 
BRANCH  21  22
HETATM   22  C10 UNL     1      27.231   9.780  85.944  1.00  0.00     0.355 C 
HETATM   23  F2  UNL     1      26.232   8.904  86.278  1.00  0.00    -0.214 F 
HETATM   24  F3  UNL     1      28.475   9.193  85.874  1.00  0.00    -0.214 F 
ENDBRANCH  21  22
ENDBRANCH  19  21
ENDBRANCH  18  19
ENDBRANCH  17  18
ENDBRANCH  16  17
ENDBRANCH  11  16
ENDBRANCH   4   9
BRANCH   5  25
HETATM   25  C13 UNL     1      32.931   7.372  91.794  1.00  0.00    -0.015 A 
HETATM   26  C14 UNL     1      31.703   7.240  92.351  1.00  0.00     0.039 A 
HETATM   27  C15 UNL     1      30.806   6.301  91.901  1.00  0.00     0.069 A 
HETATM   28 CL1  UNL     1      29.212   6.146  92.641  1.00  0.00    -0.081 Cl
HETATM   29  C16 UNL     1      31.129   5.459  90.864  1.00  0.00     0.109 A 
HETATM   30  C17 UNL     1      32.363   5.565  90.278  1.00  0.00     0.069 A 
HETATM   31 CL2  UNL     1      32.780   4.478  88.943  1.00  0.00    -0.081 Cl
HETATM   32  C18 UNL     1      33.240   6.514  90.748  1.00  0.00     0.039 A 
BRANCH  29  33
HETATM   33  O1  UNL     1      30.199   4.509  90.424  1.00  0.00    -0.357 OA
ATOM     34  H1  UNL     1      30.216   3.630  90.784  1.00  0.00     0.217 HD
ENDBRANCH  29  33
ENDBRANCH   5  25
BRANCH   1  35
HETATM   35  N1  UNL     1      36.708  11.083  93.216  1.00  0.00    -0.234 N 
ATOM     36  H12 UNL     1      36.516  11.751  93.962  1.00  0.00     0.174 HD
ATOM     37  H11 UNL     1      37.574  11.097  92.676  1.00  0.00     0.174 HD
ENDBRANCH   1  35
BRANCH   6  38
HETATM   38  N6  UNL     1      35.323   6.676  93.026  1.00  0.00    -0.384 N 
ATOM     39  H62 UNL     1      34.533   6.043  93.150  1.00  0.00     0.157 HD
ATOM     40  H61 UNL     1      36.283   6.336  93.078  1.00  0.00     0.157 HD
ENDBRANCH   6  38
TORSDOF 11
ENDMDL
MODEL 2
REMARK VINA RESULT: -6.857526449      2.528      3.790
REMARK  11 active torsions:
REMARK  status: ('A' for Active; 'I' for Inactive)
REMARK    1  A    between atoms: N1_1  and  C1_4 
REMARK    2  A    between atoms: C2_7  and  N3_8 
REMARK    3  A    between atoms: C4_10  and  C5_11 
REMARK    4  A    between atoms: C5_11  and  C6_12 
REMARK    5  A    between atoms: C6_12  and  C7_13 
REMARK    6  A    between atoms: C7_13  and  C8_14 
REMARK    7  A    between atoms: C8_14  and  C9_16 
REMARK    8  A    between atoms: C9_16  and  C10_17 
REMARK    9  A    between atoms: C12_24  and  C13_25 
REMARK   10  A    between atoms: C16_29  and  O1_30 
REMARK   11  A    between atoms: C19_35  and  N6_36 
ROOT
HETATM    1  C1  UNL     1      34.554   5.398  88.109  1.00  0.00     0.679 A 
HETATM    2  N2  UNL     1      34.272   6.600  88.616  1.00  0.00    -0.176 N 
ATOM      3  H2  UNL     1      34.723   7.436  88.243  1.00  0.00     0.186 HD
HETATM    4  C2  UNL     1      33.364   6.701  89.651  1.00  0.00     0.140 A 
HETATM    5  C12 UNL     1      32.757   5.569  90.150  1.00  0.00     0.063 A 
HETATM    6  C19 UNL     1      33.087   4.352  89.584  1.00  0.00     0.129 A 
HETATM    7  N7  UNL     1      33.986   4.272  88.563  1.00  0.00    -0.176 N 
ATOM      8  H7  UNL     1      34.223   3.369  88.151  1.00  0.00     0.186 HD
ENDROOT
BRANCH   4   9
HETATM    9  N3  UNL     1      33.041   7.947  90.186  1.00  0.00    -0.304 N 
HETATM   10  C3  UNL     1      31.870   8.772  89.913  1.00  0.00     0.158 C 
HETATM   11  C4  UNL     1      32.647  10.085  89.736  1.00  0.00     0.102 C 
HETATM   12  N4  UNL     1      33.573  10.005  90.830  1.00  0.00    -0.358 N 
HETATM   13  C11 UNL     1      33.799   8.736  91.086  1.00  0.00     0.192 C 
ATOM     14  H4  UNL     1      33.984  10.797  91.324  1.00  0.00     0.162 HD
HETATM   15  N5  UNL     1      34.676   8.219  92.095  1.00  0.00    -0.063 NA
BRANCH  11  16
HETATM   16  C5  UNL     1      31.784  11.293  89.696  1.00  0.00     0.027 C 
BRANCH  16  17
HETATM   17  C6  UNL     1      30.933  11.177  88.441  1.00  0.00     0.005 C 
BRANCH  17  18
HETATM   18  C7  UNL     1      30.045  12.355  88.224  1.00  0.00     0.037 C 
BRANCH  18  19
HETATM   19  C8  UNL     1      28.854  12.045  87.342  1.00  0.00     0.175 C 
HETATM   20  F1  UNL     1      27.714  12.040  88.090  1.00  0.00    -0.249 F 
BRANCH  19  21
HETATM   21  C9  UNL     1      29.066  10.658  86.779  1.00  0.00     0.108 C 
BRANCH  21  22
HETATM   22  C10 UNL     1      27.908  10.267  85.874  1.00  0.00     0.355 C 
HETATM   23  F2  UNL     1      27.569  11.300  85.040  1.00  0.00    -0.214 F 
HETATM   24  F3  UNL     1      26.848   9.785  86.611  1.00  0.00    -0.214 F 
ENDBRANCH  21  22
ENDBRANCH  19  21
ENDBRANCH  18  19
ENDBRANCH  17  18
ENDBRANCH  16  17
ENDBRANCH  11  16
ENDBRANCH   4   9
BRANCH   5  25
HETATM   25  C13 UNL     1      31.800   5.704  91.237  1.00  0.00    -0.015 A 
HETATM   26  C14 UNL     1      30.454   5.798  91.116  1.00  0.00     0.039 A 
HETATM   27  C15 UNL     1      29.641   5.929  92.216  1.00  0.00     0.069 A 
HETATM   28 CL1  UNL     1      27.890   6.050  92.036  1.00  0.00    -0.081 Cl
HETATM   29  C16 UNL     1      30.171   5.970  93.483  1.00  0.00     0.109 A 
HETATM   30  C17 UNL     1      31.529   5.878  93.642  1.00  0.00     0.069 A 
HETATM   31 CL2  UNL     1      32.213   5.933  95.275  1.00  0.00    -0.081 Cl
HETATM   32  C18 UNL     1      32.319   5.747  92.523  1.00  0.00     0.039 A 
BRANCH  29  33
HETATM   33  O1  UNL     1      29.322   6.105  94.588  1.00  0.00    -0.357 OA
ATOM     34  H1  UNL     1      29.682   6.348  95.434  1.00  0.00     0.217 HD
ENDBRANCH  29  33
ENDBRANCH   5  25
BRANCH   1  35
HETATM   35  N1  UNL     1      35.431   5.376  87.141  1.00  0.00    -0.234 N 
ATOM     36  H12 UNL     1      36.150   6.094  87.059  1.00  0.00     0.174 HD
ATOM     37  H11 UNL     1      35.345   4.605  86.478  1.00  0.00     0.174 HD
ENDBRANCH   1  35
BRANCH   6  38
HETATM   38  N6  UNL     1      32.513   3.290  90.059  1.00  0.00    -0.384 N 
ATOM     39  H62 UNL     1      32.565   3.061  91.051  1.00  0.00     0.157 HD
ATOM     40  H61 UNL     1      32.008   2.690  89.406  1.00  0.00     0.157 HD
ENDBRANCH   6  38
TORSDOF 11
ENDMDL
MODEL 3
REMARK VINA RESULT: -6.798474459      2.818      3.907
REMARK  11 active torsions:
REMARK  status: ('A' for Active; 'I' for Inactive)
REMARK    1  A    between atoms: N1_1  and  C1_4 
REMARK    2  A    between atoms: C2_7  and  N3_8 
REMARK    3  A    between atoms: C4_10  and  C5_11 
REMARK    4  A    between atoms: C5_11  and  C6_12 
REMARK    5  A    between atoms: C6_12  and  C7_13 
REMARK    6  A    between atoms: C7_13  and  C8_14 
REMARK    7  A    between atoms: C8_14  and  C9_16 
REMARK    8  A    between atoms: C9_16  and  C10_17 
REMARK    9  A    between atoms: C12_24  and  C13_25 
REMARK   10  A    between atoms: C16_29  and  O1_30 
REMARK   11  A    between atoms: C19_35  and  N6_36 
ROOT
HETATM    1  C1  UNL     1      36.772   9.808  92.603  1.00  0.00     0.679 A 
HETATM    2  N2  UNL     1      35.925   9.567  91.600  1.00  0.00    -0.176 N 
ATOM      3  H2  UNL     1      36.250   9.104  90.751  1.00  0.00     0.186 HD
HETATM    4  C2  UNL     1      34.606   9.951  91.723  1.00  0.00     0.140 A 
HETATM    5  C12 UNL     1      34.171  10.575  92.872  1.00  0.00     0.063 A 
HETATM    6  C19 UNL     1      35.093  10.796  93.879  1.00  0.00     0.129 A 
HETATM    7  N7  UNL     1      36.392  10.410  93.740  1.00  0.00    -0.176 N 
ATOM      8  H7  UNL     1      37.065  10.577  94.488  1.00  0.00     0.186 HD
ENDROOT
BRANCH   4   9
HETATM    9  N3  UNL     1      33.698   9.695  90.695  1.00  0.00    -0.304 N 
HETATM   10  C3  UNL     1      33.345  10.550  89.568  1.00  0.00     0.158 C 
HETATM   11  C4  UNL     1      31.827  10.357  89.700  1.00  0.00     0.102 C 
HETATM   12  N4  UNL     1      31.751   8.943  89.937  1.00  0.00    -0.358 N 
HETATM   13  C11 UNL     1      32.863   8.564  90.527  1.00  0.00     0.192 C 
ATOM     14  H4  UNL     1      30.969   8.336  89.690  1.00  0.00     0.162 HD
HETATM   15  N5  UNL     1      33.185   7.233  90.951  1.00  0.00    -0.063 NA
BRANCH  11  16
HETATM   16  C5  UNL     1      31.054  10.868  88.540  1.00  0.00     0.027 C 
BRANCH  16  17
HETATM   17  C6  UNL     1      30.373  12.147  89.003  1.00  0.00     0.005 C 
BRANCH  17  18
HETATM   18  C7  UNL     1      29.169  12.495  88.195  1.00  0.00     0.037 C 
BRANCH  18  19
HETATM   19  C8  UNL     1      29.020  11.641  86.955  1.00  0.00     0.175 C 
HETATM   20  F1  UNL     1      29.136  12.419  85.841  1.00  0.00    -0.249 F 
BRANCH  19  21
HETATM   21  C9  UNL     1      27.630  11.048  86.986  1.00  0.00     0.108 C 
BRANCH  21  22
HETATM   22  C10 UNL     1      27.503   9.932  85.962  1.00  0.00     0.355 C 
HETATM   23  F2  UNL     1      26.420   9.138  86.235  1.00  0.00    -0.214 F 
HETATM   24  F3  UNL     1      28.683   9.230  85.850  1.00  0.00    -0.214 F 
ENDBRANCH  21  22
ENDBRANCH  19  21
ENDBRANCH  18  19
ENDBRANCH  17  18
ENDBRANCH  16  17
ENDBRANCH  11  16
ENDBRANCH   4   9
BRANCH   5  25
HETATM   25  C13 UNL     1      32.774  10.964  92.978  1.00  0.00    -0.015 A 
HETATM   26  C14 UNL     1      31.746  10.173  93.372  1.00  0.00     0.039 A 
HETATM   27  C15 UNL     1      30.458  10.646  93.429  1.00  0.00     0.069 A 
HETATM   28 CL1  UNL     1      29.134   9.599  93.944  1.00  0.00    -0.081 Cl
HETATM   29  C16 UNL     1      30.167  11.945  93.087  1.00  0.00     0.109 A 
HETATM   30  C17 UNL     1      31.182  12.772  92.685  1.00  0.00     0.069 A 
HETATM   31 CL2  UNL     1      30.808  14.445  92.241  1.00  0.00    -0.081 Cl
HETATM   32  C18 UNL     1      32.463  12.272  92.636  1.00  0.00     0.039 A 
BRANCH  29  33
HETATM   33  O1  UNL     1      28.845  12.402  93.153  1.00  0.00    -0.357 OA
ATOM     34  H1  UNL     1      28.325  12.460  92.360  1.00  0.00     0.217 HD
ENDBRANCH  29  33
ENDBRANCH   5  25
BRANCH   1  35
HETATM   35  N1  UNL     1      38.008   9.429  92.414  1.00  0.00    -0.234 N 
ATOM     36  H12 UNL     1      38.578   9.831  91.670  1.00  0.00     0.174 HD
ATOM     37  H11 UNL     1      38.357   8.710  93.048  1.00  0.00     0.174 HD
ENDBRANCH   1  35
BRANCH   6  38
HETATM   38  N6  UNL     1      34.679  11.384  94.958  1.00  0.00    -0.384 N 
ATOM     39  H62 UNL     1      34.002  10.938  95.577  1.00  0.00     0.157 HD
ATOM     40  H61 UNL     1      35.053  12.310  95.169  1.00  0.00     0.157 HD
ENDBRANCH   6  38
TORSDOF 11
ENDMDL
MODEL 4
REMARK VINA RESULT: -6.763060989      2.473      3.752
REMARK  11 active torsions:
REMARK  status: ('A' for Active; 'I' for Inactive)
REMARK    1  A    between atoms: N1_1  and  C1_4 
REMARK    2  A    between atoms: C2_7  and  N3_8 
REMARK    3  A    between atoms: C4_10  and  C5_11 
REMARK    4  A    between atoms: C5_11  and  C6_12 
REMARK    5  A    between atoms: C6_12  and  C7_13 
REMARK    6  A    between atoms: C7_13  and  C8_14 
REMARK    7  A    between atoms: C8_14  and  C9_16 
REMARK    8  A    between atoms: C9_16  and  C10_17 
REMARK    9  A    between atoms: C12_24  and  C13_25 
REMARK   10  A    between atoms: C16_29  and  O1_30 
REMARK   11  A    between atoms: C19_35  and  N6_36 
ROOT
HETATM    1  C1  UNL     1      34.586   5.406  88.206  1.00  0.00     0.679 A 
HETATM    2  N2  UNL     1      34.287   6.615  88.686  1.00  0.00    -0.176 N 
ATOM      3  H2  UNL     1      34.702   7.451  88.274  1.00  0.00     0.186 HD
HETATM    4  C2  UNL     1      33.410   6.723  89.746  1.00  0.00     0.140 A 
HETATM    5  C12 UNL     1      32.850   5.592  90.298  1.00  0.00     0.063 A 
HETATM    6  C19 UNL     1      33.195   4.367  89.758  1.00  0.00     0.129 A 
HETATM    7  N7  UNL     1      34.063   4.279  88.711  1.00  0.00    -0.176 N 
ATOM      8  H7  UNL     1      34.312   3.371  88.319  1.00  0.00     0.186 HD
ENDROOT
BRANCH   4   9
HETATM    9  N3  UNL     1      33.069   7.976  90.254  1.00  0.00    -0.304 N 
HETATM   10  C3  UNL     1      31.894   8.785  89.953  1.00  0.00     0.158 C 
HETATM   11  C4  UNL     1      32.659  10.101  89.760  1.00  0.00     0.102 C 
HETATM   12  N4  UNL     1      33.575  10.051  90.865  1.00  0.00    -0.358 N 
HETATM   13  C11 UNL     1      33.810   8.789  91.147  1.00  0.00     0.192 C 
ATOM     14  H4  UNL     1      33.973  10.856  91.348  1.00  0.00     0.162 HD
HETATM   15  N5  UNL     1      34.682   8.300  92.174  1.00  0.00    -0.063 NA
BRANCH  11  16
HETATM   16  C5  UNL     1      31.785  11.299  89.689  1.00  0.00     0.027 C 
BRANCH  16  17
HETATM   17  C6  UNL     1      30.932  11.141  88.440  1.00  0.00     0.005 C 
BRANCH  17  18
HETATM   18  C7  UNL     1      30.111  12.347  88.133  1.00  0.00     0.037 C 
BRANCH  18  19
HETATM   19  C8  UNL     1      28.880  12.033  87.311  1.00  0.00     0.175 C 
HETATM   20  F1  UNL     1      27.775  12.048  88.109  1.00  0.00    -0.249 F 
BRANCH  19  21
HETATM   21  C9  UNL     1      29.057  10.636  86.759  1.00  0.00     0.108 C 
BRANCH  21  22
HETATM   22  C10 UNL     1      27.886  10.264  85.864  1.00  0.00     0.355 C 
HETATM   23  F2  UNL     1      27.557  11.300  85.031  1.00  0.00    -0.214 F 
HETATM   24  F3  UNL     1      26.824   9.801  86.610  1.00  0.00    -0.214 F 
ENDBRANCH  21  22
ENDBRANCH  19  21
ENDBRANCH  18  19
ENDBRANCH  17  18
ENDBRANCH  16  17
ENDBRANCH  11  16
ENDBRANCH   4   9
BRANCH   5  25
HETATM   25  C13 UNL     1      31.924   5.734  91.410  1.00  0.00    -0.015 A 
HETATM   26  C14 UNL     1      32.253   5.925  92.711  1.00  0.00     0.039 A 
HETATM   27  C15 UNL     1      31.292   6.040  93.686  1.00  0.00     0.069 A 
HETATM   28 CL1  UNL     1      31.743   6.288  95.374  1.00  0.00    -0.081 Cl
HETATM   29  C16 UNL     1      29.956   5.966  93.371  1.00  0.00     0.109 A 
HETATM   30  C17 UNL     1      29.588   5.774  92.066  1.00  0.00     0.069 A 
HETATM   31 CL2  UNL     1      27.867   5.675  91.660  1.00  0.00    -0.081 Cl
HETATM   32  C18 UNL     1      30.571   5.661  91.110  1.00  0.00     0.039 A 
BRANCH  29  33
HETATM   33  O1  UNL     1      28.996   6.086  94.383  1.00  0.00    -0.357 OA
ATOM     34  H1  UNL     1      28.465   6.873  94.439  1.00  0.00     0.217 HD
ENDBRANCH  29  33
ENDBRANCH   5  25
BRANCH   1  35
HETATM   35  N1  UNL     1      35.432   5.378  87.211  1.00  0.00    -0.234 N 
ATOM     36  H12 UNL     1      35.994   6.193  86.968  1.00  0.00     0.174 HD
ATOM     37  H11 UNL     1      35.488   4.498  86.697  1.00  0.00     0.174 HD
ENDBRANCH   1  35
BRANCH   6  38
HETATM   38  N6  UNL     1      32.666   3.305  90.282  1.00  0.00    -0.384 N 
ATOM     39  H62 UNL     1      31.677   3.274  90.530  1.00  0.00     0.157 HD
ATOM     40  H61 UNL     1      33.272   2.499  90.438  1.00  0.00     0.157 HD
ENDBRANCH   6  38
TORSDOF 11
ENDMDL
MODEL 5
REMARK VINA RESULT: -6.528971356      2.030      2.858
REMARK  11 active torsions:
REMARK  status: ('A' for Active; 'I' for Inactive)
REMARK    1  A    between atoms: N1_1  and  C1_4 
REMARK    2  A    between atoms: C2_7  and  N3_8 
REMARK    3  A    between atoms: C4_10  and  C5_11 
REMARK    4  A    between atoms: C5_11  and  C6_12 
REMARK    5  A    between atoms: C6_12  and  C7_13 
REMARK    6  A    between atoms: C7_13  and  C8_14 
REMARK    7  A    between atoms: C8_14  and  C9_16 
REMARK    8  A    between atoms: C9_16  and  C10_17 
REMARK    9  A    between atoms: C12_24  and  C13_25 
REMARK   10  A    between atoms: C16_29  and  O1_30 
REMARK   11  A    between atoms: C19_35  and  N6_36 
ROOT
HETATM    1  C1  UNL     1      35.839   9.416  92.158  1.00  0.00     0.679 A 
HETATM    2  N2  UNL     1      34.910   9.660  91.232  1.00  0.00    -0.176 N 
ATOM      3  H2  UNL     1      35.164  10.109  90.351  1.00  0.00     0.186 HD
HETATM    4  C2  UNL     1      33.601   9.298  91.477  1.00  0.00     0.140 A 
HETATM    5  C12 UNL     1      33.263   8.690  92.666  1.00  0.00     0.063 A 
HETATM    6  C19 UNL     1      34.268   8.461  93.587  1.00  0.00     0.129 A 
HETATM    7  N7  UNL     1      35.555   8.825  93.328  1.00  0.00    -0.176 N 
ATOM      8  H7  UNL     1      36.291   8.651  94.013  1.00  0.00     0.186 HD
ENDROOT
BRANCH   4   9
HETATM    9  N3  UNL     1      32.615   9.528  90.518  1.00  0.00    -0.304 N 
HETATM   10  C3  UNL     1      32.072   8.595  89.538  1.00  0.00     0.158 C 
HETATM   11  C4  UNL     1      32.145   9.563  88.349  1.00  0.00     0.102 C 
HETATM   12  N4  UNL     1      31.653  10.771  88.948  1.00  0.00    -0.358 N 
HETATM   13  C11 UNL     1      31.938  10.739  90.231  1.00  0.00     0.192 C 
ATOM     14  H4  UNL     1      31.167  11.525  88.463  1.00  0.00     0.162 HD
HETATM   15  N5  UNL     1      31.636  11.759  91.191  1.00  0.00    -0.063 NA
BRANCH  11  16
HETATM   16  C5  UNL     1      31.419   9.089  87.143  1.00  0.00     0.027 C 
BRANCH  16  17
HETATM   17  C6  UNL     1      30.008   9.651  87.238  1.00  0.00     0.005 C 
BRANCH  17  18
HETATM   18  C7  UNL     1      29.437  10.027  85.914  1.00  0.00     0.037 C 
BRANCH  18  19
HETATM   19  C8  UNL     1      28.580  11.273  85.971  1.00  0.00     0.175 C 
HETATM   20  F1  UNL     1      29.186  12.216  86.748  1.00  0.00    -0.249 F 
BRANCH  19  21
HETATM   21  C9  UNL     1      27.270  10.885  86.619  1.00  0.00     0.108 C 
BRANCH  21  22
HETATM   22  C10 UNL     1      26.482   9.952  85.713  1.00  0.00     0.355 C 
HETATM   23  F2  UNL     1      25.241  10.464  85.444  1.00  0.00    -0.214 F 
HETATM   24  F3  UNL     1      26.450   8.675  86.230  1.00  0.00    -0.214 F 
ENDBRANCH  21  22
ENDBRANCH  19  21
ENDBRANCH  18  19
ENDBRANCH  17  18
ENDBRANCH  16  17
ENDBRANCH  11  16
ENDBRANCH   4   9
BRANCH   5  25
HETATM   25  C13 UNL     1      31.877   8.314  92.897  1.00  0.00    -0.015 A 
HETATM   26  C14 UNL     1      31.296   7.138  92.559  1.00  0.00     0.039 A 
HETATM   27  C15 UNL     1      29.970   6.890  92.820  1.00  0.00     0.069 A 
HETATM   28 CL1  UNL     1      29.233   5.351  92.370  1.00  0.00    -0.081 Cl
HETATM   29  C16 UNL     1      29.185   7.834  93.437  1.00  0.00     0.109 A 
HETATM   30  C17 UNL     1      29.740   9.035  93.793  1.00  0.00     0.069 A 
HETATM   31 CL2  UNL     1      28.728  10.253  94.587  1.00  0.00    -0.081 Cl
HETATM   32  C18 UNL     1      31.070   9.256  93.520  1.00  0.00     0.039 A 
BRANCH  29  33
HETATM   33  O1  UNL     1      27.836   7.558  93.692  1.00  0.00    -0.357 OA
ATOM     34  H1  UNL     1      27.483   7.692  94.564  1.00  0.00     0.217 HD
ENDBRANCH  29  33
ENDBRANCH   5  25
BRANCH   1  35
HETATM   35  N1  UNL     1      37.054   9.796  91.864  1.00  0.00    -0.234 N 
ATOM     36  H12 UNL     1      37.695   9.184  91.360  1.00  0.00     0.174 HD
ATOM     37  H11 UNL     1      37.317  10.732  92.174  1.00  0.00     0.174 HD
ENDBRANCH   1  35
BRANCH   6  38
HETATM   38  N6  UNL     1      33.945   7.889  94.705  1.00  0.00    -0.384 N 
ATOM     39  H62 UNL     1      33.670   6.908  94.736  1.00  0.00     0.157 HD
ATOM     40  H61 UNL     1      33.974   8.454  95.554  1.00  0.00     0.157 HD
ENDBRANCH   6  38
TORSDOF 11
ENDMDL
