MODEL 1
REMARK VINA RESULT: -7.243540956      0.000      0.000
REMARK  9 active torsions:
REMARK  status: ('A' for Active; 'I' for Inactive)
REMARK    1  A    between atoms: C3_3  and  C4_4 
REMARK    2  A    between atoms: C4_4  and  C5_5 
REMARK    3  A    between atoms: C5_5  and  O1_6 
REMARK    4  A    between atoms: N1_8  and  O2_10 
REMARK    5  A    between atoms: C9_18  and  N2_19 
REMARK    6  A    between atoms: N2_19  and  C10_21 
REMARK    7  A    between atoms: C12_26  and  C13_27 
REMARK       I    between atoms: C13_27  and  N4_29 
REMARK    8  A    between atoms: N4_29  and  C14_31 
REMARK    9  A    between atoms: C14_31  and  C15_32 
ROOT
HETATM    1  C10 UNL     1      30.899  11.836  91.549  1.00  0.00     0.684 A 
HETATM    2  N3  UNL     1      31.161  10.837  92.391  1.00  0.00    -0.178 N 
ATOM      3  H3  UNL     1      31.859  10.106  92.255  1.00  0.00     0.185 HD
HETATM    4  C11 UNL     1      30.354  10.960  93.438  1.00  0.00     0.152 A 
HETATM    5 CL1  UNL     1      30.400   9.823  94.775  1.00  0.00    -0.061 Cl
HETATM    6  C12 UNL     1      29.555  12.055  93.274  1.00  0.00     0.155 A 
HETATM    7  N6  UNL     1      29.926  12.577  92.079  1.00  0.00    -0.183 N 
ATOM      8  H6  UNL     1      29.521  13.410  91.651  1.00  0.00     0.184 HD
ENDROOT
BRANCH   1   9
HETATM    9  N2  UNL     1      31.554  12.075  90.277  1.00  0.00    -0.188 N 
ATOM     10  H2  UNL     1      32.298  12.769  90.197  1.00  0.00     0.184 HD
BRANCH   9  11
HETATM   11  C9  UNL     1      31.146  11.337  89.167  1.00  0.00     0.097 A 
HETATM   12  C2  UNL     1      30.214  11.805  88.232  1.00  0.00    -0.022 A 
HETATM   13  C1  UNL     1      29.644  13.135  88.443  1.00  0.00     0.051 C 
HETATM   14  C3  UNL     1      29.833  11.065  87.158  1.00  0.00    -0.001 A 
HETATM   15  C6  UNL     1      30.397   9.799  86.994  1.00  0.00     0.165 A 
HETATM   16  F1  UNL     1      30.004   9.067  85.910  1.00  0.00    -0.202 F 
HETATM   17  C7  UNL     1      31.322   9.296  87.893  1.00  0.00     0.196 A 
HETATM   18  F2  UNL     1      31.845   8.052  87.690  1.00  0.00    -0.199 F 
HETATM   19  C8  UNL     1      31.682  10.083  88.973  1.00  0.00     0.185 A 
HETATM   20  F3  UNL     1      32.593   9.541  89.826  1.00  0.00    -0.200 F 
BRANCH  14  21
HETATM   21  C4  UNL     1      28.858  11.602  86.206  1.00  0.00     0.128 C 
BRANCH  21  22
HETATM   22  C5  UNL     1      27.485  11.044  86.366  1.00  0.00     0.139 C 
HETATM   23  N1  UNL     1      26.864  10.549  85.364  1.00  0.00    -0.251 N 
ATOM     24  H1  UNL     1      27.337  10.551  84.461  1.00  0.00     0.196 HD
BRANCH  22  25
HETATM   25  O1  UNL     1      26.827  11.033  87.584  1.00  0.00    -0.348 OA
ATOM     26  H1  UNL     1      26.210  11.710  87.834  1.00  0.00     0.219 HD
ENDBRANCH  22  25
BRANCH  23  27
HETATM   27  O2  UNL     1      25.610  10.020  85.423  1.00  0.00    -0.288 OA
ATOM     28  H2  UNL     1      25.013   9.973  84.685  1.00  0.00     0.244 HD
ENDBRANCH  23  27
ENDBRANCH  21  22
ENDBRANCH  14  21
ENDBRANCH   9  11
ENDBRANCH   1   9
BRANCH   6  29
HETATM   29  C13 UNL     1      28.519  12.592  94.141  1.00  0.00     0.272 C 
HETATM   30  O3  UNL     1      28.918  13.467  94.989  1.00  0.00    -0.266 OA
HETATM   31  N4  UNL     1      27.159  12.239  94.124  1.00  0.00    -0.354 N 
ATOM     32  H4  UNL     1      26.833  11.546  93.449  1.00  0.00     0.162 HD
BRANCH  31  33
HETATM   33  C14 UNL     1      26.208  12.834  95.043  1.00  0.00     0.155 C 
BRANCH  33  34
HETATM   34  C15 UNL     1      25.065  13.549  94.409  1.00  0.00     0.203 C 
HETATM   35  C16 UNL     1      25.417  14.149  93.068  1.00  0.00     0.035 C 
HETATM   36  C17 UNL     1      26.238  15.407  93.199  1.00  0.00     0.004 C 
HETATM   37  C18 UNL     1      25.513  16.369  94.106  1.00  0.00     0.027 C 
HETATM   38  C19 UNL     1      25.429  15.686  95.474  1.00  0.00     0.233 C 
HETATM   39  N5  UNL     1      24.566  14.555  95.333  1.00  0.00    -0.069 N 
ATOM     40  H52 UNL     1      23.627  14.851  95.069  1.00  0.00     0.277 HD
ATOM     41  H51 UNL     1      24.366  14.140  96.243  1.00  0.00     0.277 HD
ENDBRANCH  33  34
ENDBRANCH  31  33
ENDBRANCH   6  29
TORSDOF 9
ENDMDL
MODEL 2
REMARK VINA RESULT: -7.166979174      1.168      1.521
REMARK  9 active torsions:
REMARK  status: ('A' for Active; 'I' for Inactive)
REMARK    1  A    between atoms: C3_3  and  C4_4 
REMARK    2  A    between atoms: C4_4  and  C5_5 
REMARK    3  A    between atoms: C5_5  and  O1_6 
REMARK    4  A    between atoms: N1_8  and  O2_10 
REMARK    5  A    between atoms: C9_18  and  N2_19 
REMARK    6  A    between atoms: N2_19  and  C10_21 
REMARK    7  A    between atoms: C12_26  and  C13_27 
REMARK       I    between atoms: C13_27  and  N4_29 
REMARK    8  A    between atoms: N4_29  and  C14_31 
REMARK    9  A    between atoms: C14_31  and  C15_32 
ROOT
HETATM    1  C10 UNL     1      30.968  11.821  91.475  1.00  0.00     0.684 A 
HETATM    2  N3  UNL     1      31.116  10.756  92.261  1.00  0.00    -0.178 N 
ATOM      3  H3  UNL     1      31.705   9.946  92.069  1.00  0.00     0.185 HD
HETATM    4  C11 UNL     1      30.362  10.934  93.339  1.00  0.00     0.152 A 
HETATM    5 CL1  UNL     1      30.291   9.736  94.622  1.00  0.00    -0.061 Cl
HETATM    6  C12 UNL     1      29.713  12.132  93.251  1.00  0.00     0.155 A 
HETATM    7  N6  UNL     1      30.118  12.658  92.070  1.00  0.00    -0.183 N 
ATOM      8  H6  UNL     1      29.818  13.557  91.693  1.00  0.00     0.184 HD
ENDROOT
BRANCH   1   9
HETATM    9  N2  UNL     1      31.615  12.033  90.194  1.00  0.00    -0.188 N 
ATOM     10  H2  UNL     1      32.370  12.712  90.098  1.00  0.00     0.184 HD
BRANCH   9  11
HETATM   11  C9  UNL     1      31.182  11.289  89.096  1.00  0.00     0.097 A 
HETATM   12  C2  UNL     1      30.225  11.750  88.183  1.00  0.00    -0.022 A 
HETATM   13  C1  UNL     1      29.656  13.078  88.404  1.00  0.00     0.051 C 
HETATM   14  C3  UNL     1      29.822  11.004  87.122  1.00  0.00    -0.001 A 
HETATM   15  C6  UNL     1      30.387   9.740  86.949  1.00  0.00     0.165 A 
HETATM   16  F1  UNL     1      29.970   9.002  85.877  1.00  0.00    -0.202 F 
HETATM   17  C7  UNL     1      31.336   9.243  87.826  1.00  0.00     0.196 A 
HETATM   18  F2  UNL     1      31.859   8.001  87.615  1.00  0.00    -0.199 F 
HETATM   19  C8  UNL     1      31.719  10.036  88.894  1.00  0.00     0.185 A 
HETATM   20  F3  UNL     1      32.653   9.501  89.726  1.00  0.00    -0.200 F 
BRANCH  14  21
HETATM   21  C4  UNL     1      28.821  11.533  86.192  1.00  0.00     0.128 C 
BRANCH  21  22
HETATM   22  C5  UNL     1      27.462  10.947  86.367  1.00  0.00     0.139 C 
HETATM   23  N1  UNL     1      26.877  10.360  85.394  1.00  0.00    -0.251 N 
ATOM     24  H1  UNL     1      27.369  10.308  84.502  1.00  0.00     0.196 HD
BRANCH  22  25
HETATM   25  O1  UNL     1      26.779  11.007  87.569  1.00  0.00    -0.348 OA
ATOM     26  H1  UNL     1      25.846  11.179  87.616  1.00  0.00     0.219 HD
ENDBRANCH  22  25
BRANCH  23  27
HETATM   27  O2  UNL     1      25.638   9.799  85.469  1.00  0.00    -0.288 OA
ATOM     28  H2  UNL     1      25.073   9.646  84.720  1.00  0.00     0.244 HD
ENDBRANCH  23  27
ENDBRANCH  21  22
ENDBRANCH  14  21
ENDBRANCH   9  11
ENDBRANCH   1   9
BRANCH   6  29
HETATM   29  C13 UNL     1      28.782  12.759  94.176  1.00  0.00     0.272 C 
HETATM   30  O3  UNL     1      27.641  12.182  94.273  1.00  0.00    -0.266 OA
HETATM   31  N4  UNL     1      29.026  13.909  94.945  1.00  0.00    -0.354 N 
ATOM     32  H4  UNL     1      29.933  14.371  94.875  1.00  0.00     0.162 HD
BRANCH  31  33
HETATM   33  C14 UNL     1      28.019  14.456  95.834  1.00  0.00     0.155 C 
BRANCH  33  34
HETATM   34  C15 UNL     1      27.728  15.906  95.658  1.00  0.00     0.203 C 
HETATM   35  C16 UNL     1      26.400  16.316  96.250  1.00  0.00     0.035 C 
HETATM   36  C17 UNL     1      25.233  15.893  95.392  1.00  0.00     0.004 C 
HETATM   37  C18 UNL     1      25.445  16.415  93.994  1.00  0.00     0.027 C 
HETATM   38  C19 UNL     1      26.716  15.739  93.472  1.00  0.00     0.233 C 
HETATM   39  N5  UNL     1      27.810  16.237  94.244  1.00  0.00    -0.069 N 
ATOM     40  H52 UNL     1      27.912  17.243  94.116  1.00  0.00     0.277 HD
ATOM     41  H51 UNL     1      28.699  15.923  93.853  1.00  0.00     0.277 HD
ENDBRANCH  33  34
ENDBRANCH  31  33
ENDBRANCH   6  29
TORSDOF 9
ENDMDL
MODEL 3
REMARK VINA RESULT: -7.111032698      4.952      8.199
REMARK  9 active torsions:
REMARK  status: ('A' for Active; 'I' for Inactive)
REMARK    1  A    between atoms: C3_3  and  C4_4 
REMARK    2  A    between atoms: C4_4  and  C5_5 
REMARK    3  A    between atoms: C5_5  and  O1_6 
REMARK    4  A    between atoms: N1_8  and  O2_10 
REMARK    5  A    between atoms: C9_18  and  N2_19 
REMARK    6  A    between atoms: N2_19  and  C10_21 
REMARK    7  A    between atoms: C12_26  and  C13_27 
REMARK       I    between atoms: C13_27  and  N4_29 
REMARK    8  A    between atoms: N4_29  and  C14_31 
REMARK    9  A    between atoms: C14_31  and  C15_32 
ROOT
HETATM    1  C10 UNL     1      32.709  12.078  92.791  1.00  0.00     0.684 A 
HETATM    2  N3  UNL     1      33.592  11.093  92.631  1.00  0.00    -0.178 N 
ATOM      3  H3  UNL     1      34.347  10.855  93.273  1.00  0.00     0.185 HD
HETATM    4  C11 UNL     1      33.316  10.476  91.488  1.00  0.00     0.152 A 
HETATM    5 CL1  UNL     1      34.266   9.111  90.926  1.00  0.00    -0.061 Cl
HETATM    6  C12 UNL     1      32.239  11.071  90.896  1.00  0.00     0.155 A 
HETATM    7  N6  UNL     1      31.887  12.070  91.741  1.00  0.00    -0.183 N 
ATOM      8  H6  UNL     1      31.111  12.716  91.597  1.00  0.00     0.184 HD
ENDROOT
BRANCH   1   9
HETATM    9  N2  UNL     1      32.653  13.002  93.908  1.00  0.00    -0.188 N 
ATOM     10  H2  UNL     1      32.180  12.743  94.774  1.00  0.00     0.184 HD
BRANCH   9  11
HETATM   11  C9  UNL     1      33.260  14.250  93.774  1.00  0.00     0.097 A 
HETATM   12  C2  UNL     1      32.561  15.412  93.422  1.00  0.00    -0.022 A 
HETATM   13  C1  UNL     1      31.123  15.296  93.183  1.00  0.00     0.051 C 
HETATM   14  C3  UNL     1      33.176  16.616  93.297  1.00  0.00    -0.001 A 
HETATM   15  C6  UNL     1      34.551  16.683  93.530  1.00  0.00     0.165 A 
HETATM   16  F1  UNL     1      35.155  17.901  93.401  1.00  0.00    -0.202 F 
HETATM   17  C7  UNL     1      35.283  15.561  93.880  1.00  0.00     0.196 A 
HETATM   18  F2  UNL     1      36.625  15.677  94.098  1.00  0.00    -0.199 F 
HETATM   19  C8  UNL     1      34.616  14.354  93.996  1.00  0.00     0.185 A 
HETATM   20  F3  UNL     1      35.381  13.283  94.341  1.00  0.00    -0.200 F 
BRANCH  14  21
HETATM   21  C4  UNL     1      32.400  17.803  92.932  1.00  0.00     0.128 C 
BRANCH  21  22
HETATM   22  C5  UNL     1      32.562  18.218  91.509  1.00  0.00     0.139 C 
HETATM   23  N1  UNL     1      31.835  17.701  90.594  1.00  0.00    -0.251 N 
ATOM     24  H1  UNL     1      31.146  17.001  90.870  1.00  0.00     0.196 HD
BRANCH  22  25
HETATM   25  O1  UNL     1      33.490  19.166  91.116  1.00  0.00    -0.348 OA
ATOM     26  H1  UNL     1      33.588  19.999  91.565  1.00  0.00     0.219 HD
ENDBRANCH  22  25
BRANCH  23  27
HETATM   27  O2  UNL     1      31.919  18.023  89.273  1.00  0.00    -0.288 OA
ATOM     28  H2  UNL     1      31.728  18.884  88.919  1.00  0.00     0.244 HD
ENDBRANCH  23  27
ENDBRANCH  21  22
ENDBRANCH  14  21
ENDBRANCH   9  11
ENDBRANCH   1   9
BRANCH   6  29
HETATM   29  C13 UNL     1      31.572  10.757  89.642  1.00  0.00     0.272 C 
HETATM   30  O3  UNL     1      31.871   9.616  89.138  1.00  0.00    -0.266 OA
HETATM   31  N4  UNL     1      30.657  11.578  88.961  1.00  0.00    -0.354 N 
ATOM     32  H4  UNL     1      30.412  12.485  89.359  1.00  0.00     0.162 HD
BRANCH  31  33
HETATM   33  C14 UNL     1      30.055  11.167  87.708  1.00  0.00     0.155 C 
BRANCH  33  34
HETATM   34  C15 UNL     1      29.000  12.074  87.176  1.00  0.00     0.203 C 
HETATM   35  C16 UNL     1      27.602  11.621  87.525  1.00  0.00     0.035 C 
HETATM   36  C17 UNL     1      27.147  10.459  86.677  1.00  0.00     0.004 C 
HETATM   37  C18 UNL     1      27.304  10.828  85.224  1.00  0.00     0.027 C 
HETATM   38  C19 UNL     1      28.802  11.050  84.998  1.00  0.00     0.233 C 
HETATM   39  N5  UNL     1      29.176  12.213  85.739  1.00  0.00    -0.069 N 
ATOM     40  H52 UNL     1      28.680  13.034  85.394  1.00  0.00     0.277 HD
ATOM     41  H51 UNL     1      30.134  12.487  85.520  1.00  0.00     0.277 HD
ENDBRANCH  33  34
ENDBRANCH  31  33
ENDBRANCH   6  29
TORSDOF 9
ENDMDL
MODEL 4
REMARK VINA RESULT: -6.898705003      7.111      9.724
REMARK  9 active torsions:
REMARK  status: ('A' for Active; 'I' for Inactive)
REMARK    1  A    between atoms: C3_3  and  C4_4 
REMARK    2  A    between atoms: C4_4  and  C5_5 
REMARK    3  A    between atoms: C5_5  and  O1_6 
REMARK    4  A    between atoms: N1_8  and  O2_10 
REMARK    5  A    between atoms: C9_18  and  N2_19 
REMARK    6  A    between atoms: N2_19  and  C10_21 
REMARK    7  A    between atoms: C12_26  and  C13_27 
REMARK       I    between atoms: C13_27  and  N4_29 
REMARK    8  A    between atoms: N4_29  and  C14_31 
REMARK    9  A    between atoms: C14_31  and  C15_32 
ROOT
HETATM    1  C10 UNL     1      35.162  12.075  93.434  1.00  0.00     0.684 A 
HETATM    2  N3  UNL     1      34.968  13.322  93.862  1.00  0.00    -0.178 N 
ATOM      3  H3  UNL     1      34.081  13.720  94.168  1.00  0.00     0.185 HD
HETATM    4  C11 UNL     1      36.134  13.956  93.819  1.00  0.00     0.152 A 
HETATM    5 CL1  UNL     1      36.288  15.635  94.311  1.00  0.00    -0.061 Cl
HETATM    6  C12 UNL     1      37.099  13.109  93.355  1.00  0.00     0.155 A 
HETATM    7  N6  UNL     1      36.452  11.941  93.125  1.00  0.00    -0.183 N 
ATOM      8  H6  UNL     1      36.886  11.089  92.769  1.00  0.00     0.184 HD
ENDROOT
BRANCH   1   9
HETATM    9  N2  UNL     1      34.148  11.045  93.320  1.00  0.00    -0.188 N 
ATOM     10  H2  UNL     1      34.050  10.329  94.041  1.00  0.00     0.184 HD
BRANCH   9  11
HETATM   11  C9  UNL     1      33.310  11.052  92.205  1.00  0.00     0.097 A 
HETATM   12  C2  UNL     1      33.572  10.319  91.041  1.00  0.00    -0.022 A 
HETATM   13  C1  UNL     1      34.790   9.511  91.003  1.00  0.00     0.051 C 
HETATM   14  C3  UNL     1      32.739  10.345  89.968  1.00  0.00    -0.001 A 
HETATM   15  C6  UNL     1      31.588  11.131  90.043  1.00  0.00     0.165 A 
HETATM   16  F1  UNL     1      30.761  11.147  88.957  1.00  0.00    -0.202 F 
HETATM   17  C7  UNL     1      31.289  11.872  91.174  1.00  0.00     0.196 A 
HETATM   18  F2  UNL     1      30.152  12.627  91.200  1.00  0.00    -0.199 F 
HETATM   19  C8  UNL     1      32.165  11.818  92.244  1.00  0.00     0.185 A 
HETATM   20  F3  UNL     1      31.825  12.565  93.329  1.00  0.00    -0.200 F 
BRANCH  14  21
HETATM   21  C4  UNL     1      33.055   9.556  88.775  1.00  0.00     0.128 C 
BRANCH  21  22
HETATM   22  C5  UNL     1      32.604   8.138  88.850  1.00  0.00     0.139 C 
HETATM   23  N1  UNL     1      33.192   7.232  88.166  1.00  0.00    -0.251 N 
ATOM     24  H1  UNL     1      33.973   7.513  87.573  1.00  0.00     0.196 HD
BRANCH  22  25
HETATM   25  O1  UNL     1      31.547   7.738  89.649  1.00  0.00    -0.348 OA
ATOM     26  H1  UNL     1      30.890   7.119  89.351  1.00  0.00     0.219 HD
ENDBRANCH  22  25
BRANCH  23  27
HETATM   27  O2  UNL     1      32.844   5.915  88.176  1.00  0.00    -0.288 OA
ATOM     28  H2  UNL     1      32.688   5.408  88.965  1.00  0.00     0.244 HD
ENDBRANCH  23  27
ENDBRANCH  21  22
ENDBRANCH  14  21
ENDBRANCH   9  11
ENDBRANCH   1   9
BRANCH   6  29
HETATM   29  C13 UNL     1      38.517  13.343  93.130  1.00  0.00     0.272 C 
HETATM   30  O3  UNL     1      39.306  12.585  93.799  1.00  0.00    -0.266 OA
HETATM   31  N4  UNL     1      39.072  14.303  92.268  1.00  0.00    -0.354 N 
ATOM     32  H4  UNL     1      38.450  14.907  91.729  1.00  0.00     0.162 HD
BRANCH  31  33
HETATM   33  C14 UNL     1      40.507  14.457  92.125  1.00  0.00     0.155 C 
BRANCH  33  34
HETATM   34  C15 UNL     1      40.967  14.990  90.812  1.00  0.00     0.203 C 
HETATM   35  C16 UNL     1      42.452  14.822  90.596  1.00  0.00     0.035 C 
HETATM   36  C17 UNL     1      43.264  15.823  91.380  1.00  0.00     0.004 C 
HETATM   37  C18 UNL     1      42.771  17.209  91.053  1.00  0.00     0.027 C 
HETATM   38  C19 UNL     1      41.316  17.270  91.526  1.00  0.00     0.233 C 
HETATM   39  N5  UNL     1      40.562  16.381  90.699  1.00  0.00    -0.069 N 
ATOM     40  H52 UNL     1      40.591  16.686  89.726  1.00  0.00     0.277 HD
ATOM     41  H51 UNL     1      39.563  16.481  90.880  1.00  0.00     0.277 HD
ENDBRANCH  33  34
ENDBRANCH  31  33
ENDBRANCH   6  29
TORSDOF 9
ENDMDL
MODEL 5
REMARK VINA RESULT: -6.785262846      4.299      8.032
REMARK  9 active torsions:
REMARK  status: ('A' for Active; 'I' for Inactive)
REMARK    1  A    between atoms: C3_3  and  C4_4 
REMARK    2  A    between atoms: C4_4  and  C5_5 
REMARK    3  A    between atoms: C5_5  and  O1_6 
REMARK    4  A    between atoms: N1_8  and  O2_10 
REMARK    5  A    between atoms: C9_18  and  N2_19 
REMARK    6  A    between atoms: N2_19  and  C10_21 
REMARK    7  A    between atoms: C12_26  and  C13_27 
REMARK       I    between atoms: C13_27  and  N4_29 
REMARK    8  A    between atoms: N4_29  and  C14_31 
REMARK    9  A    between atoms: C14_31  and  C15_32 
ROOT
HETATM    1  C10 UNL     1      32.698  11.686  92.602  1.00  0.00     0.684 A 
HETATM    2  N3  UNL     1      33.727  10.912  92.259  1.00  0.00    -0.178 N 
ATOM      3  H3  UNL     1      34.554  10.727  92.826  1.00  0.00     0.185 HD
HETATM    4  C11 UNL     1      33.487  10.425  91.047  1.00  0.00     0.152 A 
HETATM    5 CL1  UNL     1      34.622   9.351  90.245  1.00  0.00    -0.061 Cl
HETATM    6  C12 UNL     1      32.285  10.890  90.597  1.00  0.00     0.155 A 
HETATM    7  N6  UNL     1      31.821  11.677  91.598  1.00  0.00    -0.183 N 
ATOM      8  H6  UNL     1      30.937  12.185  91.585  1.00  0.00     0.184 HD
ENDROOT
BRANCH   1   9
HETATM    9  N2  UNL     1      32.557  12.415  93.849  1.00  0.00    -0.188 N 
ATOM     10  H2  UNL     1      33.015  12.086  94.699  1.00  0.00     0.184 HD
BRANCH   9  11
HETATM   11  C9  UNL     1      31.782  13.574  93.861  1.00  0.00     0.097 A 
HETATM   12  C2  UNL     1      32.323  14.863  93.756  1.00  0.00    -0.022 A 
HETATM   13  C1  UNL     1      33.775  14.985  93.633  1.00  0.00     0.051 C 
HETATM   14  C3  UNL     1      31.545  15.976  93.771  1.00  0.00    -0.001 A 
HETATM   15  C6  UNL     1      30.164  15.816  93.895  1.00  0.00     0.165 A 
HETATM   16  F1  UNL     1      29.396  16.946  93.908  1.00  0.00    -0.202 F 
HETATM   17  C7  UNL     1      29.586  14.563  94.001  1.00  0.00     0.196 A 
HETATM   18  F2  UNL     1      28.230  14.458  94.120  1.00  0.00    -0.199 F 
HETATM   19  C8  UNL     1      30.415  13.455  93.981  1.00  0.00     0.185 A 
HETATM   20  F3  UNL     1      29.796  12.248  94.089  1.00  0.00    -0.200 F 
BRANCH  14  21
HETATM   21  C4  UNL     1      32.159  17.301  93.655  1.00  0.00     0.128 C 
BRANCH  21  22
HETATM   22  C5  UNL     1      31.936  17.957  92.335  1.00  0.00     0.139 C 
HETATM   23  N1  UNL     1      32.440  17.462  91.269  1.00  0.00    -0.251 N 
ATOM     24  H1  UNL     1      32.994  16.609  91.355  1.00  0.00     0.196 HD
BRANCH  22  25
HETATM   25  O1  UNL     1      31.187  19.112  92.200  1.00  0.00    -0.348 OA
ATOM     26  H1  UNL     1      31.368  19.760  91.529  1.00  0.00     0.219 HD
ENDBRANCH  22  25
BRANCH  23  27
HETATM   27  O2  UNL     1      32.286  17.997  90.026  1.00  0.00    -0.288 OA
ATOM     28  H2  UNL     1      32.669  17.635  89.236  1.00  0.00     0.244 HD
ENDBRANCH  23  27
ENDBRANCH  21  22
ENDBRANCH  14  21
ENDBRANCH   9  11
ENDBRANCH   1   9
BRANCH   6  29
HETATM   29  C13 UNL     1      31.601  10.642  89.337  1.00  0.00     0.272 C 
HETATM   30  O3  UNL     1      31.864   9.513  88.789  1.00  0.00    -0.266 OA
HETATM   31  N4  UNL     1      30.705  11.513  88.695  1.00  0.00    -0.354 N 
ATOM     32  H4  UNL     1      30.487  12.411  89.128  1.00  0.00     0.162 HD
BRANCH  31  33
HETATM   33  C14 UNL     1      30.082  11.166  87.432  1.00  0.00     0.155 C 
BRANCH  33  34
HETATM   34  C15 UNL     1      28.955  12.044  87.010  1.00  0.00     0.203 C 
HETATM   35  C16 UNL     1      27.611  11.548  87.490  1.00  0.00     0.035 C 
HETATM   36  C17 UNL     1      27.109  10.377  86.683  1.00  0.00     0.004 C 
HETATM   37  C18 UNL     1      27.114  10.756  85.224  1.00  0.00     0.027 C 
HETATM   38  C19 UNL     1      28.577  11.022  84.856  1.00  0.00     0.233 C 
HETATM   39  N5  UNL     1      28.988  12.193  85.565  1.00  0.00    -0.069 N 
ATOM     40  H52 UNL     1      28.437  13.000  85.274  1.00  0.00     0.277 HD
ATOM     41  H51 UNL     1      29.911  12.495  85.255  1.00  0.00     0.277 HD
ENDBRANCH  33  34
ENDBRANCH  31  33
ENDBRANCH   6  29
TORSDOF 9
ENDMDL
