MODEL 1
REMARK VINA RESULT: -7.574432945      0.000      0.000
REMARK  10 active torsions:
REMARK  status: ('A' for Active; 'I' for Inactive)
REMARK    1  A    between atoms: C2_2  and  C3_3 
REMARK    2  A    between atoms: C3_3  and  C4_4 
REMARK    3  A    between atoms: C4_4  and  C5_5 
REMARK    4  A    between atoms: C7_7  and  N1_8 
REMARK    5  A    between atoms: N1_8  and  N2_10 
REMARK    6  A    between atoms: N2_10  and  C8_12 
REMARK    7  A    between atoms: C8_12  and  C9_17 
REMARK    8  A    between atoms: N3_13  and  O1_15 
REMARK    9  A    between atoms: C15_29  and  C16_30 
REMARK   10  A    between atoms: C17_33  and  O5_34 
ROOT
HETATM    1  N2  UNL     1      32.610   8.390  87.988  1.00  0.00    -0.283 N 
ATOM      2  H2  UNL     1      33.447   8.889  87.689  1.00  0.00     0.188 HD
ENDROOT
BRANCH   1   3
HETATM    3  N1  UNL     1      31.420   8.485  87.275  1.00  0.00    -0.299 N 
ATOM      4  H1  UNL     1      31.149   7.728  86.647  1.00  0.00     0.187 HD
BRANCH   3   5
HETATM    5  C7  UNL     1      30.568   9.633  87.412  1.00  0.00     0.049 A 
HETATM    6  C6  UNL     1      30.810  10.593  88.374  1.00  0.00     0.040 A 
HETATM    7  C5  UNL     1      29.985  11.677  88.488  1.00  0.00    -0.022 A 
HETATM    8  C17 UNL     1      28.875  11.845  87.632  1.00  0.00     0.089 A 
HETATM    9  C15 UNL     1      28.605  10.904  86.661  1.00  0.00     0.076 A 
HETATM   10  C14 UNL     1      29.490   9.813  86.596  1.00  0.00     0.052 A 
BRANCH   7  11
HETATM   11  C4  UNL     1      30.201  12.732  89.504  1.00  0.00     0.041 C 
BRANCH  11  12
HETATM   12  C3  UNL     1      31.001  12.166  90.642  1.00  0.00     0.004 C 
BRANCH  12  13
HETATM   13  C2  UNL     1      30.319  12.451  91.976  1.00  0.00    -0.004 C 
HETATM   14  C1  UNL     1      31.388  12.816  92.997  1.00  0.00     0.005 C 
ENDBRANCH  12  13
ENDBRANCH  11  12
ENDBRANCH   7  11
BRANCH   8  15
HETATM   15  O5  UNL     1      28.092  12.950  87.798  1.00  0.00    -0.359 OA
ATOM     16  H5  UNL     1      27.215  12.938  87.433  1.00  0.00     0.217 HD
ENDBRANCH   8  15
BRANCH   9  17
HETATM   17  C16 UNL     1      27.498  10.973  85.731  1.00  0.00     0.212 C 
HETATM   18  O3  UNL     1      27.637  10.940  84.510  1.00  0.00    -0.644 OA
HETATM   19  O4  UNL     1      26.212  11.082  86.228  1.00  0.00    -0.644 OA
ENDBRANCH   9  17
ENDBRANCH   3   5
ENDBRANCH   1   3
BRANCH   1  20
HETATM   20  C8  UNL     1      32.617   7.576  89.142  1.00  0.00     0.157 C 
HETATM   21  N3  UNL     1      32.879   6.313  89.006  1.00  0.00    -0.251 N 
ATOM     22  H3  UNL     1      32.885   5.722  89.837  1.00  0.00     0.196 HD
BRANCH  21  23
HETATM   23  O1  UNL     1      33.146   5.743  87.790  1.00  0.00    -0.288 OA
ATOM     24  H1  UNL     1      33.519   4.874  87.703  1.00  0.00     0.244 HD
ENDBRANCH  21  23
BRANCH  20  25
HETATM   25  C9  UNL     1      32.351   8.037  90.498  1.00  0.00     0.101 A 
HETATM   26  C10 UNL     1      33.084   9.073  91.064  1.00  0.00     0.122 A 
HETATM   27 CL1  UNL     1      34.342   9.802  90.085  1.00  0.00    -0.063 Cl
HETATM   28  N4  UNL     1      32.879   9.537  92.308  1.00  0.00    -0.335 N 
HETATM   29  C11 UNL     1      31.912   8.971  93.049  1.00  0.00     0.130 A 
ATOM     30  H4  UNL     1      33.443  10.300  92.681  1.00  0.00     0.168 HD
HETATM   31 CL2  UNL     1      31.610   9.551  94.687  1.00  0.00    -0.062 Cl
HETATM   32  C12 UNL     1      31.127   7.934  92.577  1.00  0.00     0.123 A 
HETATM   33 CL3  UNL     1      29.868   7.213  93.571  1.00  0.00    -0.077 Cl
HETATM   34  C13 UNL     1      31.367   7.480  91.286  1.00  0.00     0.213 A 
HETATM   35  O2  UNL     1      30.658   6.545  90.862  1.00  0.00    -0.285 OA
ENDBRANCH  20  25
ENDBRANCH   1  20
TORSDOF 10
ENDMDL
MODEL 2
REMARK VINA RESULT: -7.542475589      1.281      1.977
REMARK  10 active torsions:
REMARK  status: ('A' for Active; 'I' for Inactive)
REMARK    1  A    between atoms: C2_2  and  C3_3 
REMARK    2  A    between atoms: C3_3  and  C4_4 
REMARK    3  A    between atoms: C4_4  and  C5_5 
REMARK    4  A    between atoms: C7_7  and  N1_8 
REMARK    5  A    between atoms: N1_8  and  N2_10 
REMARK    6  A    between atoms: N2_10  and  C8_12 
REMARK    7  A    between atoms: C8_12  and  C9_17 
REMARK    8  A    between atoms: N3_13  and  O1_15 
REMARK    9  A    between atoms: C15_29  and  C16_30 
REMARK   10  A    between atoms: C17_33  and  O5_34 
ROOT
HETATM    1  N2  UNL     1      32.673   8.472  87.871  1.00  0.00    -0.283 N 
ATOM      2  H2  UNL     1      33.467   8.959  87.455  1.00  0.00     0.188 HD
ENDROOT
BRANCH   1   3
HETATM    3  N1  UNL     1      31.417   8.500  87.274  1.00  0.00    -0.299 N 
ATOM      4  H1  UNL     1      31.099   7.696  86.734  1.00  0.00     0.187 HD
BRANCH   3   5
HETATM    5  C7  UNL     1      30.562   9.646  87.409  1.00  0.00     0.049 A 
HETATM    6  C6  UNL     1      30.800  10.606  88.373  1.00  0.00     0.040 A 
HETATM    7  C5  UNL     1      29.973  11.689  88.485  1.00  0.00    -0.022 A 
HETATM    8  C17 UNL     1      28.864  11.855  87.627  1.00  0.00     0.089 A 
HETATM    9  C15 UNL     1      28.598  10.914  86.654  1.00  0.00     0.076 A 
HETATM   10  C14 UNL     1      29.486   9.825  86.591  1.00  0.00     0.052 A 
BRANCH   7  11
HETATM   11  C4  UNL     1      30.184  12.744  89.503  1.00  0.00     0.041 C 
BRANCH  11  12
HETATM   12  C3  UNL     1      30.994  12.183  90.636  1.00  0.00     0.004 C 
BRANCH  12  13
HETATM   13  C2  UNL     1      30.313  12.455  91.973  1.00  0.00    -0.004 C 
HETATM   14  C1  UNL     1      31.343  13.040  92.929  1.00  0.00     0.005 C 
ENDBRANCH  12  13
ENDBRANCH  11  12
ENDBRANCH   7  11
BRANCH   8  15
HETATM   15  O5  UNL     1      28.079  12.958  87.791  1.00  0.00    -0.359 OA
ATOM     16  H5  UNL     1      27.363  13.096  87.182  1.00  0.00     0.217 HD
ENDBRANCH   8  15
BRANCH   9  17
HETATM   17  C16 UNL     1      27.494  10.981  85.722  1.00  0.00     0.212 C 
HETATM   18  O3  UNL     1      27.637  10.965  84.501  1.00  0.00    -0.644 OA
HETATM   19  O4  UNL     1      26.205  11.067  86.216  1.00  0.00    -0.644 OA
ENDBRANCH   9  17
ENDBRANCH   3   5
ENDBRANCH   1   3
BRANCH   1  20
HETATM   20  C8  UNL     1      32.809   7.743  89.073  1.00  0.00     0.157 C 
HETATM   21  N3  UNL     1      33.023   6.466  89.000  1.00  0.00    -0.251 N 
ATOM     22  H3  UNL     1      33.122   5.936  89.866  1.00  0.00     0.196 HD
BRANCH  21  23
HETATM   23  O1  UNL     1      33.120   5.802  87.806  1.00  0.00    -0.288 OA
ATOM     24  H1  UNL     1      32.416   5.264  87.462  1.00  0.00     0.244 HD
ENDBRANCH  21  23
BRANCH  20  25
HETATM   25  C9  UNL     1      32.728   8.309  90.413  1.00  0.00     0.101 A 
HETATM   26  C10 UNL     1      31.793   7.851  91.332  1.00  0.00     0.122 A 
HETATM   27 CL1  UNL     1      30.713   6.569  90.817  1.00  0.00    -0.063 Cl
HETATM   28  N4  UNL     1      31.676   8.337  92.580  1.00  0.00    -0.335 N 
HETATM   29  C11 UNL     1      32.508   9.318  92.962  1.00  0.00     0.130 A 
ATOM     30  H4  UNL     1      30.973   7.969  93.220  1.00  0.00     0.168 HD
HETATM   31 CL2  UNL     1      32.388   9.982  94.593  1.00  0.00    -0.062 Cl
HETATM   32  C12 UNL     1      33.474   9.842  92.122  1.00  0.00     0.123 A 
HETATM   33 CL3  UNL     1      34.550  11.128  92.653  1.00  0.00    -0.077 Cl
HETATM   34  C13 UNL     1      33.566   9.315  90.839  1.00  0.00     0.213 A 
HETATM   35  O2  UNL     1      34.438   9.790  90.083  1.00  0.00    -0.285 OA
ENDBRANCH  20  25
ENDBRANCH   1  20
TORSDOF 10
ENDMDL
MODEL 3
REMARK VINA RESULT: -7.051938634      2.640      4.696
REMARK  10 active torsions:
REMARK  status: ('A' for Active; 'I' for Inactive)
REMARK    1  A    between atoms: C2_2  and  C3_3 
REMARK    2  A    between atoms: C3_3  and  C4_4 
REMARK    3  A    between atoms: C4_4  and  C5_5 
REMARK    4  A    between atoms: C7_7  and  N1_8 
REMARK    5  A    between atoms: N1_8  and  N2_10 
REMARK    6  A    between atoms: N2_10  and  C8_12 
REMARK    7  A    between atoms: C8_12  and  C9_17 
REMARK    8  A    between atoms: N3_13  and  O1_15 
REMARK    9  A    between atoms: C15_29  and  C16_30 
REMARK   10  A    between atoms: C17_33  and  O5_34 
ROOT
HETATM    1  N2  UNL     1      34.015   8.270  89.934  1.00  0.00    -0.283 N 
ATOM      2  H2  UNL     1      34.301   7.821  89.065  1.00  0.00     0.188 HD
ENDROOT
BRANCH   1   3
HETATM    3  N1  UNL     1      34.059   9.652  90.081  1.00  0.00    -0.299 N 
ATOM      4  H1  UNL     1      34.949  10.108  90.286  1.00  0.00     0.187 HD
BRANCH   3   5
HETATM    5  C7  UNL     1      32.870  10.447  89.947  1.00  0.00     0.049 A 
HETATM    6  C6  UNL     1      32.150  10.463  88.768  1.00  0.00     0.040 A 
HETATM    7  C5  UNL     1      31.022  11.228  88.661  1.00  0.00    -0.022 A 
HETATM    8  C17 UNL     1      30.566  12.013  89.742  1.00  0.00     0.089 A 
HETATM    9  C15 UNL     1      31.261  12.020  90.932  1.00  0.00     0.076 A 
HETATM   10  C14 UNL     1      32.413  11.213  90.978  1.00  0.00     0.052 A 
BRANCH   7  11
HETATM   11  C4  UNL     1      30.217  11.281  87.420  1.00  0.00     0.041 C 
BRANCH  11  12
HETATM   12  C3  UNL     1      29.952   9.882  86.942  1.00  0.00     0.004 C 
BRANCH  12  13
HETATM   13  C2  UNL     1      28.626   9.808  86.192  1.00  0.00    -0.004 C 
HETATM   14  C1  UNL     1      27.670  10.824  86.802  1.00  0.00     0.005 C 
ENDBRANCH  12  13
ENDBRANCH  11  12
ENDBRANCH   7  11
BRANCH   8  15
HETATM   15  O5  UNL     1      29.432  12.753  89.570  1.00  0.00    -0.359 OA
ATOM     16  H5  UNL     1      29.510  13.605  89.158  1.00  0.00     0.217 HD
ENDBRANCH   8  15
BRANCH   9  17
HETATM   17  C16 UNL     1      30.887  12.784  92.103  1.00  0.00     0.212 C 
HETATM   18  O3  UNL     1      30.553  12.269  93.168  1.00  0.00    -0.644 OA
HETATM   19  O4  UNL     1      30.901  14.165  92.033  1.00  0.00    -0.644 OA
ENDBRANCH   9  17
ENDBRANCH   3   5
ENDBRANCH   1   3
BRANCH   1  20
HETATM   20  C8  UNL     1      33.559   7.511  91.034  1.00  0.00     0.157 C 
HETATM   21  N3  UNL     1      34.284   7.485  92.110  1.00  0.00    -0.251 N 
ATOM     22  H3  UNL     1      33.959   6.938  92.907  1.00  0.00     0.196 HD
BRANCH  21  23
HETATM   23  O1  UNL     1      35.469   8.163  92.216  1.00  0.00    -0.288 OA
ATOM     24  H1  UNL     1      36.286   7.733  92.436  1.00  0.00     0.244 HD
ENDBRANCH  21  23
BRANCH  20  25
HETATM   25  C9  UNL     1      32.326   6.737  91.069  1.00  0.00     0.101 A 
HETATM   26  C10 UNL     1      32.200   5.549  90.359  1.00  0.00     0.122 A 
HETATM   27 CL1  UNL     1      33.581   5.019  89.420  1.00  0.00    -0.063 Cl
HETATM   28  N4  UNL     1      31.086   4.798  90.358  1.00  0.00    -0.335 N 
HETATM   29  C11 UNL     1      30.034   5.214  91.081  1.00  0.00     0.130 A 
ATOM     30  H4  UNL     1      31.040   3.932  89.820  1.00  0.00     0.168 HD
HETATM   31 CL2  UNL     1      28.553   4.256  91.106  1.00  0.00    -0.062 Cl
HETATM   32  C12 UNL     1      30.059   6.382  91.822  1.00  0.00     0.123 A 
HETATM   33 CL3  UNL     1      28.665   6.901  92.760  1.00  0.00    -0.077 Cl
HETATM   34  C13 UNL     1      31.228   7.134  91.800  1.00  0.00     0.213 A 
HETATM   35  O2  UNL     1      31.248   8.187  92.469  1.00  0.00    -0.285 OA
ENDBRANCH  20  25
ENDBRANCH   1  20
TORSDOF 10
ENDMDL
MODEL 4
REMARK VINA RESULT: -7.033835605      1.874      2.529
REMARK  10 active torsions:
REMARK  status: ('A' for Active; 'I' for Inactive)
REMARK    1  A    between atoms: C2_2  and  C3_3 
REMARK    2  A    between atoms: C3_3  and  C4_4 
REMARK    3  A    between atoms: C4_4  and  C5_5 
REMARK    4  A    between atoms: C7_7  and  N1_8 
REMARK    5  A    between atoms: N1_8  and  N2_10 
REMARK    6  A    between atoms: N2_10  and  C8_12 
REMARK    7  A    between atoms: C8_12  and  C9_17 
REMARK    8  A    between atoms: N3_13  and  O1_15 
REMARK    9  A    between atoms: C15_29  and  C16_30 
REMARK   10  A    between atoms: C17_33  and  O5_34 
ROOT
HETATM    1  N2  UNL     1      32.096   7.542  88.973  1.00  0.00    -0.283 N 
ATOM      2  H2  UNL     1      31.262   7.007  89.217  1.00  0.00     0.188 HD
ENDROOT
BRANCH   1   3
HETATM    3  N1  UNL     1      32.073   8.487  87.953  1.00  0.00    -0.299 N 
ATOM      4  H1  UNL     1      32.615   8.324  87.105  1.00  0.00     0.187 HD
BRANCH   3   5
HETATM    5  C7  UNL     1      31.297   9.689  88.080  1.00  0.00     0.049 A 
HETATM    6  C6  UNL     1      31.400  10.493  89.198  1.00  0.00     0.040 A 
HETATM    7  C5  UNL     1      30.652  11.633  89.299  1.00  0.00    -0.022 A 
HETATM    8  C17 UNL     1      29.762  12.016  88.272  1.00  0.00     0.089 A 
HETATM    9  C15 UNL     1      29.635  11.236  87.142  1.00  0.00     0.076 A 
HETATM   10  C14 UNL     1      30.432  10.078  87.100  1.00  0.00     0.052 A 
BRANCH   7  11
HETATM   11  C4  UNL     1      30.724  12.526  90.478  1.00  0.00     0.041 C 
BRANCH  11  12
HETATM   12  C3  UNL     1      31.535  11.860  91.552  1.00  0.00     0.004 C 
BRANCH  12  13
HETATM   13  C2  UNL     1      30.664  11.532  92.761  1.00  0.00    -0.004 C 
HETATM   14  C1  UNL     1      30.775  10.041  93.047  1.00  0.00     0.005 C 
ENDBRANCH  12  13
ENDBRANCH  11  12
ENDBRANCH   7  11
BRANCH   8  15
HETATM   15  O5  UNL     1      29.045  13.165  88.434  1.00  0.00    -0.359 OA
ATOM     16  H5  UNL     1      29.515  13.991  88.449  1.00  0.00     0.217 HD
ENDBRANCH   8  15
BRANCH   9  17
HETATM   17  C16 UNL     1      28.758  11.532  86.030  1.00  0.00     0.212 C 
HETATM   18  O3  UNL     1      28.867  12.537  85.331  1.00  0.00    -0.644 OA
HETATM   19  O4  UNL     1      27.741  10.645  85.725  1.00  0.00    -0.644 OA
ENDBRANCH   9  17
ENDBRANCH   3   5
ENDBRANCH   1   3
BRANCH   1  20
HETATM   20  C8  UNL     1      33.315   7.348  89.658  1.00  0.00     0.157 C 
HETATM   21  N3  UNL     1      34.248   6.658  89.077  1.00  0.00    -0.251 N 
ATOM     22  H3  UNL     1      35.130   6.516  89.568  1.00  0.00     0.196 HD
BRANCH  21  23
HETATM   23  O1  UNL     1      34.092   6.113  87.830  1.00  0.00    -0.288 OA
ATOM     24  H1  UNL     1      34.672   6.319  87.107  1.00  0.00     0.244 HD
ENDBRANCH  21  23
BRANCH  20  25
HETATM   25  C9  UNL     1      33.625   7.863  90.985  1.00  0.00     0.101 A 
HETATM   26  C10 UNL     1      33.274   7.159  92.130  1.00  0.00     0.122 A 
HETATM   27 CL1  UNL     1      32.443   5.630  91.917  1.00  0.00    -0.063 Cl
HETATM   28  N4  UNL     1      33.537   7.587  93.377  1.00  0.00    -0.335 N 
HETATM   29  C11 UNL     1      34.174   8.759  93.527  1.00  0.00     0.130 A 
ATOM     30  H4  UNL     1      33.259   7.035  94.188  1.00  0.00     0.168 HD
HETATM   31 CL2  UNL     1      34.538   9.356  95.147  1.00  0.00    -0.062 Cl
HETATM   32  C12 UNL     1      34.566   9.534  92.451  1.00  0.00     0.123 A 
HETATM   33 CL3  UNL     1      35.400  11.065  92.681  1.00  0.00    -0.077 Cl
HETATM   34  C13 UNL     1      34.278   9.060  91.177  1.00  0.00     0.213 A 
HETATM   35  O2  UNL     1      34.632   9.762  90.207  1.00  0.00    -0.285 OA
ENDBRANCH  20  25
ENDBRANCH   1  20
TORSDOF 10
ENDMDL
MODEL 5
REMARK VINA RESULT: -6.942457657      2.260      4.349
REMARK  10 active torsions:
REMARK  status: ('A' for Active; 'I' for Inactive)
REMARK    1  A    between atoms: C2_2  and  C3_3 
REMARK    2  A    between atoms: C3_3  and  C4_4 
REMARK    3  A    between atoms: C4_4  and  C5_5 
REMARK    4  A    between atoms: C7_7  and  N1_8 
REMARK    5  A    between atoms: N1_8  and  N2_10 
REMARK    6  A    between atoms: N2_10  and  C8_12 
REMARK    7  A    between atoms: C8_12  and  C9_17 
REMARK    8  A    between atoms: N3_13  and  O1_15 
REMARK    9  A    between atoms: C15_29  and  C16_30 
REMARK   10  A    between atoms: C17_33  and  O5_34 
ROOT
HETATM    1  N2  UNL     1      32.128   7.401  89.067  1.00  0.00    -0.283 N 
ATOM      2  H2  UNL     1      31.316   6.848  89.342  1.00  0.00     0.188 HD
ENDROOT
BRANCH   1   3
HETATM    3  N1  UNL     1      32.055   8.326  88.032  1.00  0.00    -0.299 N 
ATOM      4  H1  UNL     1      32.498   8.115  87.137  1.00  0.00     0.187 HD
BRANCH   3   5
HETATM    5  C7  UNL     1      31.364   9.573  88.204  1.00  0.00     0.049 A 
HETATM    6  C6  UNL     1      30.505  10.054  87.236  1.00  0.00     0.040 A 
HETATM    7  C5  UNL     1      29.858  11.245  87.420  1.00  0.00    -0.022 A 
HETATM    8  C17 UNL     1      30.049  12.007  88.593  1.00  0.00     0.089 A 
HETATM    9  C15 UNL     1      30.901  11.556  89.578  1.00  0.00     0.076 A 
HETATM   10  C14 UNL     1      31.535  10.325  89.329  1.00  0.00     0.052 A 
BRANCH   7  11
HETATM   11  C4  UNL     1      28.928  11.804  86.412  1.00  0.00     0.041 C 
BRANCH  11  12
HETATM   12  C3  UNL     1      28.324  10.680  85.620  1.00  0.00     0.004 C 
BRANCH  12  13
HETATM   13  C2  UNL     1      26.819  10.603  85.854  1.00  0.00    -0.004 C 
HETATM   14  C1  UNL     1      26.419   9.137  85.952  1.00  0.00     0.005 C 
ENDBRANCH  12  13
ENDBRANCH  11  12
ENDBRANCH   7  11
BRANCH   8  15
HETATM   15  O5  UNL     1      29.373  13.186  88.714  1.00  0.00    -0.359 OA
ATOM     16  H5  UNL     1      29.853  13.952  89.008  1.00  0.00     0.217 HD
ENDBRANCH   8  15
BRANCH   9  17
HETATM   17  C16 UNL     1      31.171  12.252  90.818  1.00  0.00     0.212 C 
HETATM   18  O3  UNL     1      30.612  13.298  91.142  1.00  0.00    -0.644 OA
HETATM   19  O4  UNL     1      32.104  11.724  91.692  1.00  0.00    -0.644 OA
ENDBRANCH   9  17
ENDBRANCH   3   5
ENDBRANCH   1   3
BRANCH   1  20
HETATM   20  C8  UNL     1      33.369   7.253  89.725  1.00  0.00     0.157 C 
HETATM   21  N3  UNL     1      34.314   6.600  89.123  1.00  0.00    -0.251 N 
ATOM     22  H3  UNL     1      35.212   6.491  89.594  1.00  0.00     0.196 HD
BRANCH  21  23
HETATM   23  O1  UNL     1      34.152   6.052  87.878  1.00  0.00    -0.288 OA
ATOM     24  H1  UNL     1      34.877   5.930  87.275  1.00  0.00     0.244 HD
ENDBRANCH  21  23
BRANCH  20  25
HETATM   25  C9  UNL     1      33.688   7.776  91.047  1.00  0.00     0.101 A 
HETATM   26  C10 UNL     1      33.294   7.109  92.200  1.00  0.00     0.122 A 
HETATM   27 CL1  UNL     1      32.398   5.615  92.004  1.00  0.00    -0.063 Cl
HETATM   28  N4  UNL     1      33.562   7.547  93.442  1.00  0.00    -0.335 N 
HETATM   29  C11 UNL     1      34.250   8.692  93.579  1.00  0.00     0.130 A 
ATOM     30  H4  UNL     1      33.252   7.022  94.260  1.00  0.00     0.168 HD
HETATM   31 CL2  UNL     1      34.623   9.301  95.193  1.00  0.00    -0.062 Cl
HETATM   32  C12 UNL     1      34.686   9.430  92.495  1.00  0.00     0.123 A 
HETATM   33 CL3  UNL     1      35.585  10.927  92.707  1.00  0.00    -0.077 Cl
HETATM   34  C13 UNL     1      34.391   8.947  91.225  1.00  0.00     0.213 A 
HETATM   35  O2  UNL     1      34.786   9.615  90.248  1.00  0.00    -0.285 OA
ENDBRANCH  20  25
ENDBRANCH   1  20
TORSDOF 10
ENDMDL
