MODEL 1
REMARK VINA RESULT: -4.179946504      0.000      0.000
REMARK  4 active torsions:
REMARK  status: ('A' for Active; 'I' for Inactive)
REMARK    1  A    between atoms: N1_1  and  C1_4 
REMARK    2  A    between atoms: N3_7  and  C2_8 
REMARK    3  A    between atoms: C2_8  and  C3_9 
REMARK    4  A    between atoms: C3_9  and  N4_10 
ROOT
HETATM    1  C1  UNL     1       9.930   2.973   4.717  1.00  0.00     0.145 A 
HETATM    2  N2  UNL     1      10.485   1.989   5.445  1.00  0.00    -0.280 N 
ATOM      3  H2  UNL     1       9.982   1.170   5.787  1.00  0.00     0.189 HD
HETATM    4  N3  UNL     1      11.769   2.223   5.660  1.00  0.00    -0.271 N 
HETATM    5  C4  UNL     1      12.086   3.401   5.057  1.00  0.00     0.154 A 
HETATM    6  N5  UNL     1      13.036   4.313   4.783  1.00  0.00    -0.335 N 
ATOM      7  H5  UNL     1      14.011   4.263   5.078  1.00  0.00     0.168 HD
HETATM    8  C5  UNL     1      12.490   5.300   4.056  1.00  0.00     0.182 A 
HETATM    9  N6  UNL     1      11.181   5.047   3.846  1.00  0.00    -0.346 N 
ATOM     10  H6  UNL     1      10.517   5.622   3.329  1.00  0.00     0.167 HD
HETATM   11  C6  UNL     1      10.937   3.880   4.462  1.00  0.00     0.124 A 
ENDROOT
BRANCH   4  12
HETATM   12  C2  UNL     1      12.701   1.396   6.399  1.00  0.00     0.178 C 
BRANCH  12  13
HETATM   13  C3  UNL     1      12.113   0.050   6.759  1.00  0.00     0.251 C 
BRANCH  13  14
HETATM   14  N4  UNL     1      11.753   0.025   8.164  1.00  0.00    -0.078 N 
ATOM     15  H43 UNL     1      12.377  -0.571   8.708  1.00  0.00     0.274 HD
ATOM     16  H42 UNL     1      11.955   0.912   8.625  1.00  0.00     0.274 HD
ATOM     17  H41 UNL     1      10.776  -0.247   8.269  1.00  0.00     0.274 HD
ENDBRANCH  13  14
ENDBRANCH  12  13
ENDBRANCH   4  12
BRANCH   1  18
HETATM   18  N1  UNL     1       8.684   3.067   4.320  1.00  0.00    -0.382 N 
ATOM     19  H12 UNL     1       7.991   3.732   4.663  1.00  0.00     0.157 HD
ATOM     20  H11 UNL     1       8.212   2.499   3.616  1.00  0.00     0.157 HD
ENDBRANCH   1  18
TORSDOF 4
ENDMDL
MODEL 2
REMARK VINA RESULT: -4.112062431      3.243      4.672
REMARK  4 active torsions:
REMARK  status: ('A' for Active; 'I' for Inactive)
REMARK    1  A    between atoms: N1_1  and  C1_4 
REMARK    2  A    between atoms: N3_7  and  C2_8 
REMARK    3  A    between atoms: C2_8  and  C3_9 
REMARK    4  A    between atoms: C3_9  and  N4_10 
ROOT
HETATM    1  C1  UNL     1      10.635   4.261   3.209  1.00  0.00     0.145 A 
HETATM    2  N2  UNL     1       9.700   3.583   3.895  1.00  0.00    -0.280 N 
ATOM      3  H2  UNL     1       9.454   3.762   4.869  1.00  0.00     0.189 HD
HETATM    4  N3  UNL     1       9.140   2.651   3.141  1.00  0.00    -0.271 N 
HETATM    5  C4  UNL     1       9.717   2.706   1.910  1.00  0.00     0.154 A 
HETATM    6  N5  UNL     1       9.775   2.206   0.663  1.00  0.00    -0.335 N 
ATOM      7  H5  UNL     1       9.203   1.441   0.303  1.00  0.00     0.168 HD
HETATM    8  C5  UNL     1      10.707   2.877  -0.030  1.00  0.00     0.182 A 
HETATM    9  N6  UNL     1      11.269   3.822   0.753  1.00  0.00    -0.346 N 
ATOM     10  H6  UNL     1      12.003   4.481   0.495  1.00  0.00     0.167 HD
HETATM   11  C6  UNL     1      10.658   3.715   1.943  1.00  0.00     0.124 A 
ENDROOT
BRANCH   4  12
HETATM   12  C2  UNL     1       8.095   1.722   3.524  1.00  0.00     0.178 C 
BRANCH  12  13
HETATM   13  C3  UNL     1       6.728   2.173   3.062  1.00  0.00     0.251 C 
BRANCH  13  14
HETATM   14  N4  UNL     1       6.168   3.113   4.014  1.00  0.00    -0.078 N 
ATOM     15  H43 UNL     1       5.934   2.666   4.900  1.00  0.00     0.274 HD
ATOM     16  H42 UNL     1       6.867   3.770   4.359  1.00  0.00     0.274 HD
ATOM     17  H41 UNL     1       5.365   3.589   3.603  1.00  0.00     0.274 HD
ENDBRANCH  13  14
ENDBRANCH  12  13
ENDBRANCH   4  12
BRANCH   1  18
HETATM   18  N1  UNL     1      11.384   5.247   3.641  1.00  0.00    -0.382 N 
ATOM     19  H12 UNL     1      11.123   5.938   4.345  1.00  0.00     0.157 HD
ATOM     20  H11 UNL     1      12.333   5.480   3.348  1.00  0.00     0.157 HD
ENDBRANCH   1  18
TORSDOF 4
ENDMDL
MODEL 3
REMARK VINA RESULT: -4.067855329      3.194      5.094
REMARK  4 active torsions:
REMARK  status: ('A' for Active; 'I' for Inactive)
REMARK    1  A    between atoms: N1_1  and  C1_4 
REMARK    2  A    between atoms: N3_7  and  C2_8 
REMARK    3  A    between atoms: C2_8  and  C3_9 
REMARK    4  A    between atoms: C3_9  and  N4_10 
ROOT
HETATM    1  C1  UNL     1       7.041   2.492   3.621  1.00  0.00     0.145 A 
HETATM    2  N2  UNL     1       7.043   1.585   2.629  1.00  0.00    -0.280 N 
ATOM      3  H2  UNL     1       6.223   1.330   2.078  1.00  0.00     0.189 HD
HETATM    4  N3  UNL     1       8.248   1.068   2.460  1.00  0.00    -0.271 N 
HETATM    5  C4  UNL     1       9.082   1.645   3.368  1.00  0.00     0.154 A 
HETATM    6  N5  UNL     1      10.327   1.728   3.869  1.00  0.00    -0.335 N 
ATOM      7  H5  UNL     1      11.134   1.193   3.548  1.00  0.00     0.168 HD
HETATM    8  C5  UNL     1      10.335   2.630   4.862  1.00  0.00     0.182 A 
HETATM    9  N6  UNL     1       9.098   3.147   5.021  1.00  0.00    -0.346 N 
ATOM     10  H6  UNL     1       8.807   3.852   5.699  1.00  0.00     0.167 HD
HETATM   11  C6  UNL     1       8.332   2.541   4.102  1.00  0.00     0.124 A 
ENDROOT
BRANCH   4  12
HETATM   12  C2  UNL     1       8.647   0.066   1.492  1.00  0.00     0.178 C 
BRANCH  12  13
HETATM   13  C3  UNL     1       9.023   0.673   0.159  1.00  0.00     0.251 C 
BRANCH  13  14
HETATM   14  N4  UNL     1       7.871   0.690  -0.721  1.00  0.00    -0.078 N 
ATOM     15  H43 UNL     1       7.199  -0.040  -0.486  1.00  0.00     0.274 HD
ATOM     16  H42 UNL     1       7.275   1.501  -0.554  1.00  0.00     0.274 HD
ATOM     17  H41 UNL     1       8.174   0.632  -1.693  1.00  0.00     0.274 HD
ENDBRANCH  13  14
ENDBRANCH  12  13
ENDBRANCH   4  12
BRANCH   1  18
HETATM   18  N1  UNL     1       6.024   3.196   4.057  1.00  0.00    -0.382 N 
ATOM     19  H12 UNL     1       5.054   3.102   3.758  1.00  0.00     0.157 HD
ATOM     20  H11 UNL     1       6.038   3.941   4.754  1.00  0.00     0.157 HD
ENDBRANCH   1  18
TORSDOF 4
ENDMDL
MODEL 4
REMARK VINA RESULT: -4.048840846      3.232      4.881
REMARK  4 active torsions:
REMARK  status: ('A' for Active; 'I' for Inactive)
REMARK    1  A    between atoms: N1_1  and  C1_4 
REMARK    2  A    between atoms: N3_7  and  C2_8 
REMARK    3  A    between atoms: C2_8  and  C3_9 
REMARK    4  A    between atoms: C3_9  and  N4_10 
ROOT
HETATM    1  C1  UNL     1       9.166   2.794   4.182  1.00  0.00     0.145 A 
HETATM    2  N2  UNL     1       8.677   1.594   3.824  1.00  0.00    -0.280 N 
ATOM      3  H2  UNL     1       8.271   0.919   4.472  1.00  0.00     0.189 HD
HETATM    4  N3  UNL     1       8.791   1.404   2.520  1.00  0.00    -0.271 N 
HETATM    5  C4  UNL     1       9.375   2.511   1.985  1.00  0.00     0.154 A 
HETATM    6  N5  UNL     1       9.826   3.131   0.881  1.00  0.00    -0.335 N 
ATOM      7  H5  UNL     1       9.798   2.753  -0.067  1.00  0.00     0.168 HD
HETATM    8  C5  UNL     1      10.318   4.330   1.229  1.00  0.00     0.182 A 
HETATM    9  N6  UNL     1      10.194   4.508   2.561  1.00  0.00    -0.346 N 
ATOM     10  H6  UNL     1      10.482   5.322   3.103  1.00  0.00     0.167 HD
HETATM   11  C6  UNL     1       9.615   3.389   3.022  1.00  0.00     0.124 A 
ENDROOT
BRANCH   4  12
HETATM   12  C2  UNL     1       8.378   0.240   1.762  1.00  0.00     0.178 C 
BRANCH  12  13
HETATM   13  C3  UNL     1       7.073   0.464   1.031  1.00  0.00     0.251 C 
BRANCH  13  14
HETATM   14  N4  UNL     1       7.325   0.673  -0.381  1.00  0.00    -0.078 N 
ATOM     15  H43 UNL     1       8.237   1.099  -0.549  1.00  0.00     0.274 HD
ATOM     16  H42 UNL     1       7.479  -0.206  -0.876  1.00  0.00     0.274 HD
ATOM     17  H41 UNL     1       6.568   1.217  -0.795  1.00  0.00     0.274 HD
ENDBRANCH  13  14
ENDBRANCH  12  13
ENDBRANCH   4  12
BRANCH   1  18
HETATM   18  N1  UNL     1       9.215   3.308   5.386  1.00  0.00    -0.382 N 
ATOM     19  H12 UNL     1       9.991   3.231   6.044  1.00  0.00     0.157 HD
ATOM     20  H11 UNL     1       8.497   3.860   5.855  1.00  0.00     0.157 HD
ENDBRANCH   1  18
TORSDOF 4
ENDMDL
MODEL 5
REMARK VINA RESULT: -4.030310862      2.747      4.598
REMARK  4 active torsions:
REMARK  status: ('A' for Active; 'I' for Inactive)
REMARK    1  A    between atoms: N1_1  and  C1_4 
REMARK    2  A    between atoms: N3_7  and  C2_8 
REMARK    3  A    between atoms: C2_8  and  C3_9 
REMARK    4  A    between atoms: C3_9  and  N4_10 
ROOT
HETATM    1  C1  UNL     1       7.116   2.602   3.713  1.00  0.00     0.145 A 
HETATM    2  N2  UNL     1       8.217   2.961   4.395  1.00  0.00    -0.280 N 
ATOM      3  H2  UNL     1       8.265   3.749   5.041  1.00  0.00     0.189 HD
HETATM    4  N3  UNL     1       9.230   2.158   4.118  1.00  0.00    -0.271 N 
HETATM    5  C4  UNL     1       8.796   1.230   3.222  1.00  0.00     0.154 A 
HETATM    6  N5  UNL     1       9.094   0.154   2.472  1.00  0.00    -0.335 N 
ATOM      7  H5  UNL     1      10.002  -0.309   2.431  1.00  0.00     0.168 HD
HETATM    8  C5  UNL     1       7.999  -0.211   1.787  1.00  0.00     0.182 A 
HETATM    9  N6  UNL     1       6.976   0.618   2.080  1.00  0.00    -0.346 N 
ATOM     10  H6  UNL     1       6.027   0.581   1.709  1.00  0.00     0.167 HD
HETATM   11  C6  UNL     1       7.468   1.501   2.962  1.00  0.00     0.124 A 
ENDROOT
BRANCH   4  12
HETATM   12  C2  UNL     1      10.575   2.223   4.654  1.00  0.00     0.178 C 
BRANCH  12  13
HETATM   13  C3  UNL     1      11.059   3.645   4.819  1.00  0.00     0.251 C 
BRANCH  13  14
HETATM   14  N4  UNL     1      10.808   4.102   6.172  1.00  0.00    -0.078 N 
ATOM     15  H43 UNL     1      10.495   3.345   6.779  1.00  0.00     0.274 HD
ATOM     16  H42 UNL     1      11.671   4.338   6.662  1.00  0.00     0.274 HD
ATOM     17  H41 UNL     1      10.150   4.881   6.161  1.00  0.00     0.274 HD
ENDBRANCH  13  14
ENDBRANCH  12  13
ENDBRANCH   4  12
BRANCH   1  18
HETATM   18  N1  UNL     1       5.936   3.173   3.745  1.00  0.00    -0.382 N 
ATOM     19  H12 UNL     1       5.596   3.890   3.104  1.00  0.00     0.157 HD
ATOM     20  H11 UNL     1       5.179   2.997   4.405  1.00  0.00     0.157 HD
ENDBRANCH   1  18
TORSDOF 4
ENDMDL
