MODEL 1
REMARK VINA RESULT: -4.543261135      0.000      0.000
REMARK  6 active torsions:
REMARK  status: ('A' for Active; 'I' for Inactive)
REMARK    1  A    between atoms: C2_2  and  C3_3 
REMARK    2  A    between atoms: C3_3  and  C4_4 
REMARK    3  A    between atoms: C4_4  and  N1_5 
REMARK    4  A    between atoms: C4_4  and  N6_15 
REMARK    5  A    between atoms: N1_5  and  C5_7 
REMARK    6  A    between atoms: N6_15  and  N7_16 
ROOT
HETATM    1  N1  UNL     1      12.783   4.542   4.377  1.00  0.00    -0.204 N 
ATOM      2  H1  UNL     1      13.633   4.253   3.893  1.00  0.00     0.179 HD
ENDROOT
BRANCH   1   3
HETATM    3  C4  UNL     1      12.021   3.527   5.068  1.00  0.00     0.213 C 
BRANCH   3   4
HETATM    4  C3  UNL     1      13.010   2.642   5.810  1.00  0.00     0.044 C 
BRANCH   4   5
HETATM    5  C2  UNL     1      12.440   1.266   6.057  1.00  0.00    -0.001 C 
HETATM    6  C1  UNL     1      12.799   0.864   7.462  1.00  0.00     0.005 C 
ENDBRANCH   4   5
ENDBRANCH   3   4
BRANCH   3   7
HETATM    7  N6  UNL     1      11.182   4.145   6.066  1.00  0.00    -0.122 NA
BRANCH   7   8
HETATM    8  N7  UNL     1       9.850   3.836   5.874  1.00  0.00    -0.346 N 
ATOM      9  H72 UNL     1       9.484   3.453   5.003  1.00  0.00     0.172 HD
ATOM     10  H71 UNL     1       9.293   4.038   6.704  1.00  0.00     0.172 HD
ENDBRANCH   7   8
ENDBRANCH   3   7
ENDBRANCH   1   3
BRANCH   1  11
HETATM   11  C5  UNL     1      12.464   5.778   4.332  1.00  0.00     0.708 A 
HETATM   12  N2  UNL     1      13.188   6.742   4.932  1.00  0.00    -0.118 N 
HETATM   13  N3  UNL     1      12.640   7.921   4.732  1.00  0.00    -0.212 N 
ATOM     14  H2  UNL     1      14.041   6.580   5.468  1.00  0.00     0.207 HD
HETATM   15  N4  UNL     1      11.556   7.706   3.996  1.00  0.00     0.009 NA
ATOM     16  H3  UNL     1      12.981   8.820   5.073  1.00  0.00     0.206 HD
HETATM   17  N5  UNL     1      11.440   6.405   3.748  1.00  0.00    -0.114 N 
ATOM     18  H5  UNL     1      10.697   5.963   3.206  1.00  0.00     0.203 HD
ENDBRANCH   1  11
TORSDOF 6
ENDMDL
MODEL 2
REMARK VINA RESULT: -4.420431569      4.155      5.292
REMARK  6 active torsions:
REMARK  status: ('A' for Active; 'I' for Inactive)
REMARK    1  A    between atoms: C2_2  and  C3_3 
REMARK    2  A    between atoms: C3_3  and  C4_4 
REMARK    3  A    between atoms: C4_4  and  N1_5 
REMARK    4  A    between atoms: C4_4  and  N6_15 
REMARK    5  A    between atoms: N1_5  and  C5_7 
REMARK    6  A    between atoms: N6_15  and  N7_16 
ROOT
HETATM    1  N1  UNL     1       9.255   2.295   3.388  1.00  0.00    -0.204 N 
ATOM      2  H1  UNL     1       9.774   1.528   2.960  1.00  0.00     0.179 HD
ENDROOT
BRANCH   1   3
HETATM    3  C4  UNL     1       7.841   2.395   3.105  1.00  0.00     0.213 C 
BRANCH   3   4
HETATM    4  C3  UNL     1       7.405   1.073   2.495  1.00  0.00     0.044 C 
BRANCH   4   5
HETATM    5  C2  UNL     1       7.948   0.907   1.096  1.00  0.00    -0.001 C 
HETATM    6  C1  UNL     1       6.839   0.367   0.233  1.00  0.00     0.005 C 
ENDBRANCH   4   5
ENDBRANCH   3   4
BRANCH   3   7
HETATM    7  N6  UNL     1       7.109   2.550   4.338  1.00  0.00    -0.122 NA
BRANCH   7   8
HETATM    8  N7  UNL     1       5.967   3.305   4.161  1.00  0.00    -0.346 N 
ATOM      9  H72 UNL     1       5.658   3.648   3.252  1.00  0.00     0.172 HD
ATOM     10  H71 UNL     1       5.484   3.469   5.044  1.00  0.00     0.172 HD
ENDBRANCH   7   8
ENDBRANCH   3   7
ENDBRANCH   1   3
BRANCH   1  11
HETATM   11  C5  UNL     1       9.899   3.102   4.139  1.00  0.00     0.708 A 
HETATM   12  N2  UNL     1       9.724   3.155   5.474  1.00  0.00    -0.118 N 
HETATM   13  N3  UNL     1      10.507   4.071   6.005  1.00  0.00    -0.212 N 
ATOM     14  H2  UNL     1       9.076   2.568   6.000  1.00  0.00     0.207 HD
HETATM   15  N4  UNL     1      11.187   4.606   4.997  1.00  0.00     0.009 NA
ATOM     16  H3  UNL     1      10.577   4.319   6.992  1.00  0.00     0.206 HD
HETATM   17  N5  UNL     1      10.824   4.024   3.858  1.00  0.00    -0.114 N 
ATOM     18  H5  UNL     1      11.188   4.243   2.931  1.00  0.00     0.203 HD
ENDBRANCH   1  11
TORSDOF 6
ENDMDL
MODEL 3
REMARK VINA RESULT: -4.361165581      4.260      5.904
REMARK  6 active torsions:
REMARK  status: ('A' for Active; 'I' for Inactive)
REMARK    1  A    between atoms: C2_2  and  C3_3 
REMARK    2  A    between atoms: C3_3  and  C4_4 
REMARK    3  A    between atoms: C4_4  and  N1_5 
REMARK    4  A    between atoms: C4_4  and  N6_15 
REMARK    5  A    between atoms: N1_5  and  C5_7 
REMARK    6  A    between atoms: N6_15  and  N7_16 
ROOT
HETATM    1  N1  UNL     1      10.558   3.845   2.200  1.00  0.00    -0.204 N 
ATOM      2  H1  UNL     1      11.308   4.531   2.288  1.00  0.00     0.179 HD
ENDROOT
BRANCH   1   3
HETATM    3  C4  UNL     1      10.293   3.299   0.889  1.00  0.00     0.213 C 
BRANCH   3   4
HETATM    4  C3  UNL     1      11.535   3.528   0.042  1.00  0.00     0.044 C 
BRANCH   4   5
HETATM    5  C2  UNL     1      11.189   4.172  -1.279  1.00  0.00    -0.001 C 
HETATM    6  C1  UNL     1      12.459   4.724  -1.869  1.00  0.00     0.005 C 
ENDBRANCH   4   5
ENDBRANCH   3   4
BRANCH   3   7
HETATM    7  N6  UNL     1      10.109   1.872   0.985  1.00  0.00    -0.122 NA
BRANCH   7   8
HETATM    8  N7  UNL     1       9.135   1.424   0.117  1.00  0.00    -0.346 N 
ATOM      9  H72 UNL     1       9.325   1.154  -0.848  1.00  0.00     0.172 HD
ATOM     10  H71 UNL     1       8.217   1.399   0.560  1.00  0.00     0.172 HD
ENDBRANCH   7   8
ENDBRANCH   3   7
ENDBRANCH   1   3
BRANCH   1  11
HETATM   11  C5  UNL     1       9.916   3.525   3.257  1.00  0.00     0.708 A 
HETATM   12  N2  UNL     1      10.371   3.794   4.497  1.00  0.00    -0.118 N 
HETATM   13  N3  UNL     1       9.521   3.359   5.403  1.00  0.00    -0.212 N 
ATOM     14  H2  UNL     1      11.250   4.267   4.704  1.00  0.00     0.207 HD
HETATM   15  N4  UNL     1       8.514   2.808   4.732  1.00  0.00     0.009 NA
ATOM     16  H3  UNL     1       9.616   3.431   6.415  1.00  0.00     0.206 HD
HETATM   17  N5  UNL     1       8.746   2.904   3.427  1.00  0.00    -0.114 N 
ATOM     18  H5  UNL     1       8.137   2.563   2.684  1.00  0.00     0.203 HD
ENDBRANCH   1  11
TORSDOF 6
ENDMDL
MODEL 4
REMARK VINA RESULT: -4.333940406      6.220      7.662
REMARK  6 active torsions:
REMARK  status: ('A' for Active; 'I' for Inactive)
REMARK    1  A    between atoms: C2_2  and  C3_3 
REMARK    2  A    between atoms: C3_3  and  C4_4 
REMARK    3  A    between atoms: C4_4  and  N1_5 
REMARK    4  A    between atoms: C4_4  and  N6_15 
REMARK    5  A    between atoms: N1_5  and  C5_7 
REMARK    6  A    between atoms: N6_15  and  N7_16 
ROOT
HETATM    1  N1  UNL     1      10.721   1.561   0.282  1.00  0.00    -0.204 N 
ATOM      2  H1  UNL     1      11.441   0.890   0.552  1.00  0.00     0.179 HD
ENDROOT
BRANCH   1   3
HETATM    3  C4  UNL     1      10.873   2.929   0.724  1.00  0.00     0.213 C 
BRANCH   3   4
HETATM    4  C3  UNL     1      11.037   3.792  -0.516  1.00  0.00     0.044 C 
BRANCH   4   5
HETATM    5  C2  UNL     1      12.433   3.682  -1.082  1.00  0.00    -0.001 C 
HETATM    6  C1  UNL     1      12.651   4.856  -1.999  1.00  0.00     0.005 C 
ENDBRANCH   4   5
ENDBRANCH   3   4
BRANCH   3   7
HETATM    7  N6  UNL     1       9.665   3.364   1.381  1.00  0.00    -0.122 NA
BRANCH   7   8
HETATM    8  N7  UNL     1       9.749   4.682   1.780  1.00  0.00    -0.346 N 
ATOM      9  H72 UNL     1      10.570   5.265   1.620  1.00  0.00     0.172 HD
ATOM     10  H71 UNL     1       8.896   4.989   2.249  1.00  0.00     0.172 HD
ENDBRANCH   7   8
ENDBRANCH   3   7
ENDBRANCH   1   3
BRANCH   1  11
HETATM   11  C5  UNL     1       9.746   1.136  -0.424  1.00  0.00     0.708 A 
HETATM   12  N2  UNL     1       8.494   1.011   0.059  1.00  0.00    -0.118 N 
HETATM   13  N3  UNL     1       7.685   0.553  -0.871  1.00  0.00    -0.212 N 
ATOM     14  H2  UNL     1       8.213   1.240   1.013  1.00  0.00     0.207 HD
HETATM   15  N4  UNL     1       8.429   0.384  -1.959  1.00  0.00     0.009 NA
ATOM     16  H3  UNL     1       6.687   0.365  -0.777  1.00  0.00     0.206 HD
HETATM   17  N5  UNL     1       9.684   0.735  -1.696  1.00  0.00    -0.114 N 
ATOM     18  H5  UNL     1      10.465   0.704  -2.352  1.00  0.00     0.203 HD
ENDBRANCH   1  11
TORSDOF 6
ENDMDL
MODEL 5
REMARK VINA RESULT: -4.305304135      2.589      4.427
REMARK  6 active torsions:
REMARK  status: ('A' for Active; 'I' for Inactive)
REMARK    1  A    between atoms: C2_2  and  C3_3 
REMARK    2  A    between atoms: C3_3  and  C4_4 
REMARK    3  A    between atoms: C4_4  and  N1_5 
REMARK    4  A    between atoms: C4_4  and  N6_15 
REMARK    5  A    between atoms: N1_5  and  C5_7 
REMARK    6  A    between atoms: N6_15  and  N7_16 
ROOT
HETATM    1  N1  UNL     1      11.253   5.053   3.593  1.00  0.00    -0.204 N 
ATOM      2  H1  UNL     1      11.208   6.053   3.399  1.00  0.00     0.179 HD
ENDROOT
BRANCH   1   3
HETATM    3  C4  UNL     1      12.242   4.592   4.540  1.00  0.00     0.213 C 
BRANCH   3   4
HETATM    4  C3  UNL     1      13.267   5.703   4.703  1.00  0.00     0.044 C 
BRANCH   4   5
HETATM    5  C2  UNL     1      12.616   7.064   4.654  1.00  0.00    -0.001 C 
HETATM    6  C1  UNL     1      13.653   8.085   5.041  1.00  0.00     0.005 C 
ENDBRANCH   4   5
ENDBRANCH   3   4
BRANCH   3   7
HETATM    7  N6  UNL     1      11.626   4.399   5.830  1.00  0.00    -0.122 NA
BRANCH   7   8
HETATM    8  N7  UNL     1      11.654   3.074   6.215  1.00  0.00    -0.346 N 
ATOM      9  H72 UNL     1      12.487   2.616   6.584  1.00  0.00     0.172 HD
ATOM     10  H71 UNL     1      10.749   2.623   6.083  1.00  0.00     0.172 HD
ENDBRANCH   7   8
ENDBRANCH   3   7
ENDBRANCH   1   3
BRANCH   1  11
HETATM   11  C5  UNL     1      10.430   4.290   2.981  1.00  0.00     0.708 A 
HETATM   12  N2  UNL     1       9.466   3.598   3.617  1.00  0.00    -0.118 N 
HETATM   13  N3  UNL     1       8.762   2.894   2.757  1.00  0.00    -0.212 N 
ATOM     14  H2  UNL     1       9.304   3.616   4.624  1.00  0.00     0.207 HD
HETATM   15  N4  UNL     1       9.284   3.141   1.560  1.00  0.00     0.009 NA
ATOM     16  H3  UNL     1       7.974   2.281   2.966  1.00  0.00     0.206 HD
HETATM   17  N5  UNL     1      10.300   3.989   1.687  1.00  0.00    -0.114 N 
ATOM     18  H5  UNL     1      10.879   4.348   0.927  1.00  0.00     0.203 HD
ENDBRANCH   1  11
TORSDOF 6
ENDMDL
