MODEL 1
REMARK VINA RESULT: -9.250130754      0.000      0.000
REMARK  1 active torsions:
REMARK  status: ('A' for Active; 'I' for Inactive)
REMARK    1  A    between atoms: O1_1  and  N1_3 
ROOT
HETATM    1  N1  UNL     1      25.157   9.799  32.147  1.00  0.00    -0.234 N 
HETATM    2  C1  UNL     1      26.287  10.172  31.523  1.00  0.00     0.123 A 
HETATM    3  C2  UNL     1      26.504  11.507  31.255  1.00  0.00     0.022 A 
HETATM    4  C3  UNL     1      25.538  12.435  31.643  1.00  0.00     0.033 A 
HETATM    5  C4  UNL     1      24.383  12.015  32.287  1.00  0.00     0.062 A 
HETATM    6  N2  UNL     1      23.450  12.908  32.663  1.00  0.00    -0.354 N 
ATOM      7  H2  UNL     1      23.608  13.896  32.466  1.00  0.00     0.166 HD
HETATM    8  C5  UNL     1      22.320  12.546  33.287  1.00  0.00     0.044 A 
HETATM    9  C6  UNL     1      21.390  13.490  33.656  1.00  0.00     0.033 A 
HETATM   10  C7  UNL     1      20.236  13.122  34.293  1.00  0.00     0.033 A 
HETATM   11  C8  UNL     1      20.003  11.797  34.568  1.00  0.00     0.044 A 
HETATM   12  N3  UNL     1      18.990  11.157  35.164  1.00  0.00    -0.355 N 
ATOM     13  H3  UNL     1      18.155  11.603  35.543  1.00  0.00     0.166 HD
HETATM   14  C9  UNL     1      19.240   9.848  35.189  1.00  0.00     0.043 A 
HETATM   15  C10 UNL     1      18.484   8.787  35.701  1.00  0.00     0.030 A 
HETATM   16  C11 UNL     1      18.901   7.481  35.640  1.00  0.00     0.002 A 
HETATM   17  C12 UNL     1      20.111   7.234  35.045  1.00  0.00     0.001 A 
HETATM   18  C13 UNL     1      20.868   8.294  34.532  1.00  0.00     0.014 A 
HETATM   19  C14 UNL     1      20.469   9.603  34.584  1.00  0.00     0.004 A 
HETATM   20  C15 UNL     1      20.947  10.835  34.194  1.00  0.00     0.016 A 
HETATM   21  C16 UNL     1      22.108  11.205  33.553  1.00  0.00     0.006 A 
HETATM   22  C17 UNL     1      23.034  10.262  33.186  1.00  0.00     0.049 A 
HETATM   23  C18 UNL     1      24.211  10.673  32.532  1.00  0.00     0.089 A 
ENDROOT
BRANCH   1  24
HETATM   24  O1  UNL     1      24.984   8.459  32.392  1.00  0.00    -0.283 OA
ATOM     25  H1  UNL     1      24.150   8.074  32.150  1.00  0.00     0.245 HD
ENDBRANCH   1  24
TORSDOF 1
ENDMDL
MODEL 2
REMARK VINA RESULT: -8.675510879      1.966      5.872
REMARK  1 active torsions:
REMARK  status: ('A' for Active; 'I' for Inactive)
REMARK    1  A    between atoms: O1_1  and  N1_3 
ROOT
HETATM    1  N1  UNL     1      19.303   8.807  32.786  1.00  0.00    -0.234 N 
HETATM    2  C1  UNL     1      18.029   8.488  33.066  1.00  0.00     0.123 A 
HETATM    3  C2  UNL     1      17.296   9.300  33.906  1.00  0.00     0.022 A 
HETATM    4  C3  UNL     1      17.905  10.434  34.443  1.00  0.00     0.033 A 
HETATM    5  C4  UNL     1      19.223  10.734  34.132  1.00  0.00     0.062 A 
HETATM    6  N2  UNL     1      19.812  11.828  34.648  1.00  0.00    -0.354 N 
ATOM      7  H2  UNL     1      19.273  12.430  35.270  1.00  0.00     0.166 HD
HETATM    8  C5  UNL     1      21.084  12.155  34.374  1.00  0.00     0.044 A 
HETATM    9  C6  UNL     1      21.650  13.283  34.922  1.00  0.00     0.033 A 
HETATM   10  C7  UNL     1      22.946  13.618  34.643  1.00  0.00     0.033 A 
HETATM   11  C8  UNL     1      23.692  12.822  33.808  1.00  0.00     0.044 A 
HETATM   12  N3  UNL     1      24.953  12.897  33.366  1.00  0.00    -0.355 N 
ATOM     13  H3  UNL     1      25.617  13.633  33.608  1.00  0.00     0.166 HD
HETATM   14  C9  UNL     1      25.208  11.866  32.562  1.00  0.00     0.043 A 
HETATM   15  C10 UNL     1      26.374  11.519  31.870  1.00  0.00     0.030 A 
HETATM   16  C11 UNL     1      26.461  10.404  31.075  1.00  0.00     0.002 A 
HETATM   17  C12 UNL     1      25.346   9.615  30.973  1.00  0.00     0.001 A 
HETATM   18  C13 UNL     1      24.178   9.961  31.665  1.00  0.00     0.014 A 
HETATM   19  C14 UNL     1      24.072  11.068  32.463  1.00  0.00     0.004 A 
HETATM   20  C15 UNL     1      23.118  11.675  33.250  1.00  0.00     0.016 A 
HETATM   21  C16 UNL     1      21.813  11.337  33.530  1.00  0.00     0.006 A 
HETATM   22  C17 UNL     1      21.250  10.213  32.984  1.00  0.00     0.049 A 
HETATM   23  C18 UNL     1      19.914   9.895  33.289  1.00  0.00     0.089 A 
ENDROOT
BRANCH   1  24
HETATM   24  O1  UNL     1      19.994   7.970  31.944  1.00  0.00    -0.283 OA
ATOM     25  H1  UNL     1      20.793   8.304  31.554  1.00  0.00     0.245 HD
ENDBRANCH   1  24
TORSDOF 1
ENDMDL
MODEL 3
REMARK VINA RESULT: -8.296132927      1.594      5.829
REMARK  1 active torsions:
REMARK  status: ('A' for Active; 'I' for Inactive)
REMARK    1  A    between atoms: O1_1  and  N1_3 
ROOT
HETATM    1  N1  UNL     1      19.695   8.509  34.956  1.00  0.00    -0.234 N 
HETATM    2  C1  UNL     1      18.531   8.227  35.565  1.00  0.00     0.123 A 
HETATM    3  C2  UNL     1      17.679   9.256  35.907  1.00  0.00     0.022 A 
HETATM    4  C3  UNL     1      18.053  10.566  35.608  1.00  0.00     0.033 A 
HETATM    5  C4  UNL     1      19.263  10.821  34.978  1.00  0.00     0.062 A 
HETATM    6  N2  UNL     1      19.626  12.083  34.688  1.00  0.00    -0.354 N 
ATOM      7  H2  UNL     1      18.998  12.846  34.940  1.00  0.00     0.166 HD
HETATM    8  C5  UNL     1      20.786  12.375  34.080  1.00  0.00     0.044 A 
HETATM    9  C6  UNL     1      21.121  13.679  33.800  1.00  0.00     0.033 A 
HETATM   10  C7  UNL     1      22.303  13.978  33.180  1.00  0.00     0.033 A 
HETATM   11  C8  UNL     1      23.164  12.966  32.831  1.00  0.00     0.044 A 
HETATM   12  N3  UNL     1      24.360  12.957  32.230  1.00  0.00    -0.355 N 
ATOM     13  H3  UNL     1      24.862  13.785  31.908  1.00  0.00     0.166 HD
HETATM   14  C9  UNL     1      24.794  11.703  32.117  1.00  0.00     0.043 A 
HETATM   15  C10 UNL     1      25.977  11.196  31.565  1.00  0.00     0.030 A 
HETATM   16  C11 UNL     1      26.266   9.855  31.533  1.00  0.00     0.002 A 
HETATM   17  C12 UNL     1      25.342   8.999  32.071  1.00  0.00     0.001 A 
HETATM   18  C13 UNL     1      24.158   9.505  32.623  1.00  0.00     0.014 A 
HETATM   19  C14 UNL     1      23.852  10.838  32.665  1.00  0.00     0.004 A 
HETATM   20  C15 UNL     1      22.825  11.640  33.115  1.00  0.00     0.016 A 
HETATM   21  C16 UNL     1      21.636  11.338  33.739  1.00  0.00     0.006 A 
HETATM   22  C17 UNL     1      21.303  10.038  34.017  1.00  0.00     0.049 A 
HETATM   23  C18 UNL     1      20.080   9.762  34.656  1.00  0.00     0.089 A 
ENDROOT
BRANCH   1  24
HETATM   24  O1  UNL     1      20.512   7.453  34.634  1.00  0.00    -0.283 OA
ATOM     25  H1  UNL     1      21.449   7.590  34.699  1.00  0.00     0.245 HD
ENDBRANCH   1  24
TORSDOF 1
ENDMDL
MODEL 4
REMARK VINA RESULT: -7.390253538      1.725      3.354
REMARK  1 active torsions:
REMARK  status: ('A' for Active; 'I' for Inactive)
REMARK    1  A    between atoms: O1_1  and  N1_3 
ROOT
HETATM    1  N1  UNL     1      24.491  12.566  32.180  1.00  0.00    -0.234 N 
HETATM    2  C1  UNL     1      25.753  12.657  31.728  1.00  0.00     0.123 A 
HETATM    3  C2  UNL     1      26.608  11.587  31.888  1.00  0.00     0.022 A 
HETATM    4  C3  UNL     1      26.134  10.436  32.518  1.00  0.00     0.033 A 
HETATM    5  C4  UNL     1      24.825  10.377  32.973  1.00  0.00     0.062 A 
HETATM    6  N2  UNL     1      24.365   9.269  33.581  1.00  0.00    -0.354 N 
ATOM      7  H2  UNL     1      24.995   8.476  33.701  1.00  0.00     0.166 HD
HETATM    8  C5  UNL     1      23.107   9.168  34.035  1.00  0.00     0.044 A 
HETATM    9  C6  UNL     1      22.675   8.017  34.652  1.00  0.00     0.033 A 
HETATM   10  C7  UNL     1      21.392   7.913  35.115  1.00  0.00     0.033 A 
HETATM   11  C8  UNL     1      20.525   8.969  34.965  1.00  0.00     0.044 A 
HETATM   12  N3  UNL     1      19.246   9.150  35.311  1.00  0.00    -0.355 N 
ATOM     13  H3  UNL     1      18.662   8.462  35.786  1.00  0.00     0.166 HD
HETATM   14  C9  UNL     1      18.850  10.367  34.939  1.00  0.00     0.043 A 
HETATM   15  C10 UNL     1      17.612  11.005  35.083  1.00  0.00     0.030 A 
HETATM   16  C11 UNL     1      17.377  12.280  34.634  1.00  0.00     0.002 A 
HETATM   17  C12 UNL     1      18.415  12.934  34.024  1.00  0.00     0.001 A 
HETATM   18  C13 UNL     1      19.654  12.297  33.879  1.00  0.00     0.014 A 
HETATM   19  C14 UNL     1      19.908  11.026  34.320  1.00  0.00     0.004 A 
HETATM   20  C15 UNL     1      20.963  10.140  34.339  1.00  0.00     0.016 A 
HETATM   21  C16 UNL     1      22.254  10.245  33.871  1.00  0.00     0.006 A 
HETATM   22  C17 UNL     1      22.683  11.393  33.258  1.00  0.00     0.049 A 
HETATM   23  C18 UNL     1      24.009  11.469  32.791  1.00  0.00     0.089 A 
ENDROOT
BRANCH   1  24
HETATM   24  O1  UNL     1      23.675  13.656  31.999  1.00  0.00    -0.283 OA
ATOM     25  H1  UNL     1      22.935  13.555  31.413  1.00  0.00     0.245 HD
ENDBRANCH   1  24
TORSDOF 1
ENDMDL
MODEL 5
REMARK VINA RESULT: -7.173577938      1.794      1.862
REMARK  1 active torsions:
REMARK  status: ('A' for Active; 'I' for Inactive)
REMARK    1  A    between atoms: O1_1  and  N1_3 
ROOT
HETATM    1  N1  UNL     1      25.068  10.465  31.238  1.00  0.00    -0.234 N 
HETATM    2  C1  UNL     1      26.371  10.743  31.071  1.00  0.00     0.123 A 
HETATM    3  C2  UNL     1      26.954  11.738  31.827  1.00  0.00     0.022 A 
HETATM    4  C3  UNL     1      26.167  12.430  32.747  1.00  0.00     0.033 A 
HETATM    5  C4  UNL     1      24.824  12.117  32.894  1.00  0.00     0.062 A 
HETATM    6  N2  UNL     1      24.063  12.782  33.781  1.00  0.00    -0.354 N 
ATOM      7  H2  UNL     1      24.491  13.519  34.341  1.00  0.00     0.166 HD
HETATM    8  C5  UNL     1      22.761  12.512  33.955  1.00  0.00     0.044 A 
HETATM    9  C6  UNL     1      22.016  13.215  34.873  1.00  0.00     0.033 A 
HETATM   10  C7  UNL     1      20.688  12.941  35.053  1.00  0.00     0.033 A 
HETATM   11  C8  UNL     1      20.090  11.952  34.309  1.00  0.00     0.044 A 
HETATM   12  N3  UNL     1      18.841  11.475  34.268  1.00  0.00    -0.355 N 
ATOM     13  H3  UNL     1      18.066  11.807  34.842  1.00  0.00     0.166 HD
HETATM   14  C9  UNL     1      18.764  10.500  33.364  1.00  0.00     0.043 A 
HETATM   15  C10 UNL     1      17.678   9.709  32.969  1.00  0.00     0.030 A 
HETATM   16  C11 UNL     1      17.779   8.735  32.008  1.00  0.00     0.002 A 
HETATM   17  C12 UNL     1      19.005   8.551  31.425  1.00  0.00     0.001 A 
HETATM   18  C13 UNL     1      20.092   9.342  31.819  1.00  0.00     0.014 A 
HETATM   19  C14 UNL     1      20.011  10.317  32.776  1.00  0.00     0.004 A 
HETATM   20  C15 UNL     1      20.846  11.236  33.375  1.00  0.00     0.016 A 
HETATM   21  C16 UNL     1      22.182  11.512  33.194  1.00  0.00     0.006 A 
HETATM   22  C17 UNL     1      22.923  10.810  32.279  1.00  0.00     0.049 A 
HETATM   23  C18 UNL     1      24.287  11.116  32.118  1.00  0.00     0.089 A 
ENDROOT
BRANCH   1  24
HETATM   24  O1  UNL     1      24.531   9.466  30.463  1.00  0.00    -0.283 OA
ATOM     25  H1  UNL     1      23.586   9.366  30.472  1.00  0.00     0.245 HD
ENDBRANCH   1  24
TORSDOF 1
ENDMDL
