MODEL 1
REMARK VINA RESULT: -1.209479539      0.000      0.000
REMARK  3 active torsions:
REMARK  status: ('A' for Active; 'I' for Inactive)
REMARK    1  A    between atoms: O1_1  and  C1_3 
REMARK    2  A    between atoms: C12_14  and  C13_15 
REMARK    3  A    between atoms: C14_16  and  C15_17 
ROOT
HETATM    1  C1  UNL     1      26.608  11.582  32.213  1.00  0.00     0.076 A 
HETATM    2  C2  UNL     1      26.763  10.566  31.260  1.00  0.00     0.037 A 
HETATM    3  C3  UNL     1      25.641   9.858  30.909  1.00  0.00     0.004 A 
HETATM    4  C4  UNL     1      24.407  10.113  31.457  1.00  0.00     0.013 A 
HETATM    5  C5  UNL     1      24.291  11.111  32.384  1.00  0.00    -0.012 A 
HETATM    6  C6  UNL     1      25.378  11.870  32.787  1.00  0.00     0.008 A 
HETATM    7  C7  UNL     1      25.250  12.873  33.721  1.00  0.00     0.016 A 
HETATM    8  C8  UNL     1      24.038  13.162  34.292  1.00  0.00     0.013 A 
HETATM    9  C9  UNL     1      22.920  12.428  33.919  1.00  0.00    -0.025 A 
HETATM   10  C10 UNL     1      21.692  12.704  34.482  1.00  0.00     0.014 A 
HETATM   11  C11 UNL     1      20.611  11.955  34.086  1.00  0.00     0.021 A 
HETATM   12  C12 UNL     1      20.688  10.956  33.169  1.00  0.00     0.019 A 
HETATM   13  C20 UNL     1      21.945  10.691  32.607  1.00  0.00     0.033 A 
HETATM   14  C21 UNL     1      23.053  11.422  32.980  1.00  0.00    -0.013 A 
ENDROOT
BRANCH  12  15
HETATM   15  C13 UNL     1      19.560  10.165  32.746  1.00  0.00    -0.060 C 
HETATM   16  C14 UNL     1      18.621   9.489  32.375  1.00  0.00    -0.043 C 
BRANCH  16  17
HETATM   17  C15 UNL     1      17.518   8.674  31.919  1.00  0.00     0.086 A 
HETATM   18  C16 UNL     1      17.289   8.494  30.550  1.00  0.00     0.039 A 
HETATM   19  C17 UNL     1      16.246   7.723  30.083  1.00  0.00     0.004 A 
HETATM   20  C18 UNL     1      15.432   7.132  31.030  1.00  0.00     0.017 A 
HETATM   21  C19 UNL     1      15.689   7.332  32.371  1.00  0.00     0.089 A 
HETATM   22  N1  UNL     1      16.714   8.090  32.798  1.00  0.00    -0.359 N 
ATOM     23  H1  UNL     1      16.873   8.216  33.798  1.00  0.00     0.166 HD
ENDBRANCH  16  17
ENDBRANCH  12  15
BRANCH   1  24
HETATM   24  O1  UNL     1      27.718  12.303  32.577  1.00  0.00    -0.360 OA
ATOM     25  H1  UNL     1      28.031  12.226  33.471  1.00  0.00     0.217 HD
ENDBRANCH   1  24
TORSDOF 3
ENDMDL
MODEL 2
REMARK VINA RESULT: 0.223880821      3.008      4.888
REMARK  3 active torsions:
REMARK  status: ('A' for Active; 'I' for Inactive)
REMARK    1  A    between atoms: O1_1  and  C1_3 
REMARK    2  A    between atoms: C12_14  and  C13_15 
REMARK    3  A    between atoms: C14_16  and  C15_17 
ROOT
HETATM    1  C1  UNL     1      22.076  12.145  34.275  1.00  0.00     0.076 A 
HETATM    2  C2  UNL     1      21.358  13.338  34.122  1.00  0.00     0.037 A 
HETATM    3  C3  UNL     1      20.018  13.234  33.845  1.00  0.00     0.004 A 
HETATM    4  C4  UNL     1      19.384  12.022  33.716  1.00  0.00     0.013 A 
HETATM    5  C5  UNL     1      20.113  10.876  33.872  1.00  0.00    -0.012 A 
HETATM    6  C6  UNL     1      21.470  10.902  34.154  1.00  0.00     0.008 A 
HETATM    7  C7  UNL     1      22.195   9.742  34.309  1.00  0.00     0.016 A 
HETATM    8  C8  UNL     1      21.603   8.513  34.190  1.00  0.00     0.013 A 
HETATM    9  C9  UNL     1      20.246   8.437  33.908  1.00  0.00    -0.025 A 
HETATM   10  C10 UNL     1      19.632   7.209  33.785  1.00  0.00     0.014 A 
HETATM   11  C11 UNL     1      18.287   7.178  33.506  1.00  0.00     0.021 A 
HETATM   12  C12 UNL     1      17.531   8.294  33.345  1.00  0.00     0.019 A 
HETATM   13  C20 UNL     1      18.173   9.534  33.474  1.00  0.00     0.033 A 
HETATM   14  C21 UNL     1      19.521   9.605  33.754  1.00  0.00    -0.013 A 
ENDROOT
BRANCH  12  15
HETATM   15  C13 UNL     1      16.119   8.273  33.052  1.00  0.00    -0.060 C 
HETATM   16  C14 UNL     1      14.926   8.262  32.824  1.00  0.00    -0.043 C 
BRANCH  16  17
HETATM   17  C15 UNL     1      13.503   8.262  32.573  1.00  0.00     0.086 A 
HETATM   18  C16 UNL     1      13.013   8.422  31.272  1.00  0.00     0.039 A 
HETATM   19  C17 UNL     1      11.661   8.427  31.000  1.00  0.00     0.004 A 
HETATM   20  C18 UNL     1      10.806   8.267  32.073  1.00  0.00     0.017 A 
HETATM   21  C19 UNL     1      11.326   8.112  33.342  1.00  0.00     0.089 A 
HETATM   22  N1  UNL     1      12.650   8.111  33.578  1.00  0.00    -0.359 N 
ATOM     23  H1  UNL     1      12.998   7.994  34.530  1.00  0.00     0.166 HD
ENDBRANCH  16  17
ENDBRANCH  12  15
BRANCH   1  24
HETATM   24  O1  UNL     1      23.418  12.227  34.553  1.00  0.00    -0.360 OA
ATOM     25  H1  UNL     1      23.684  12.653  35.359  1.00  0.00     0.217 HD
ENDBRANCH   1  24
TORSDOF 3
ENDMDL
MODEL 3
REMARK VINA RESULT: 2.337529001      2.623      4.022
REMARK  3 active torsions:
REMARK  status: ('A' for Active; 'I' for Inactive)
REMARK    1  A    between atoms: O1_1  and  C1_3 
REMARK    2  A    between atoms: C12_14  and  C13_15 
REMARK    3  A    between atoms: C14_16  and  C15_17 
ROOT
HETATM    1  C1  UNL     1      23.392  10.208  32.020  1.00  0.00     0.076 A 
HETATM    2  C2  UNL     1      23.059  10.760  30.776  1.00  0.00     0.037 A 
HETATM    3  C3  UNL     1      21.745  10.689  30.388  1.00  0.00     0.004 A 
HETATM    4  C4  UNL     1      20.776  10.104  31.170  1.00  0.00     0.013 A 
HETATM    5  C5  UNL     1      21.135   9.576  32.379  1.00  0.00    -0.012 A 
HETATM    6  C6  UNL     1      22.442   9.611  32.837  1.00  0.00     0.008 A 
HETATM    7  C7  UNL     1      22.792   9.076  34.056  1.00  0.00     0.016 A 
HETATM    8  C8  UNL     1      21.860   8.485  34.867  1.00  0.00     0.013 A 
HETATM    9  C9  UNL     1      20.537   8.426  34.450  1.00  0.00    -0.025 A 
HETATM   10  C10 UNL     1      19.584   7.836  35.252  1.00  0.00     0.014 A 
HETATM   11  C11 UNL     1      18.287   7.798  34.801  1.00  0.00     0.021 A 
HETATM   12  C12 UNL     1      17.893   8.312  33.608  1.00  0.00     0.019 A 
HETATM   13  C20 UNL     1      18.877   8.909  32.806  1.00  0.00     0.033 A 
HETATM   14  C21 UNL     1      20.189   8.965  33.224  1.00  0.00    -0.013 A 
ENDROOT
BRANCH  12  15
HETATM   15  C13 UNL     1      16.534   8.278  33.126  1.00  0.00    -0.060 C 
HETATM   16  C14 UNL     1      15.383   8.251  32.740  1.00  0.00    -0.043 C 
BRANCH  16  17
HETATM   17  C15 UNL     1      14.006   8.224  32.303  1.00  0.00     0.086 A 
HETATM   18  C16 UNL     1      13.696   8.198  30.939  1.00  0.00     0.039 A 
HETATM   19  C17 UNL     1      12.393   8.173  30.490  1.00  0.00     0.004 A 
HETATM   20  C18 UNL     1      11.400   8.174  31.450  1.00  0.00     0.017 A 
HETATM   21  C19 UNL     1      11.744   8.199  32.787  1.00  0.00     0.089 A 
HETATM   22  N1  UNL     1      13.024   8.224  33.197  1.00  0.00    -0.359 N 
ATOM     23  H1  UNL     1      13.241   8.243  34.193  1.00  0.00     0.166 HD
ENDBRANCH  16  17
ENDBRANCH  12  15
BRANCH   1  24
HETATM   24  O1  UNL     1      24.702  10.270  32.427  1.00  0.00    -0.360 OA
ATOM     25  H1  UNL     1      25.029   9.582  32.994  1.00  0.00     0.217 HD
ENDBRANCH   1  24
TORSDOF 3
ENDMDL
MODEL 4
REMARK VINA RESULT: 2.397888070      1.661      2.337
REMARK  3 active torsions:
REMARK  status: ('A' for Active; 'I' for Inactive)
REMARK    1  A    between atoms: O1_1  and  C1_3 
REMARK    2  A    between atoms: C12_14  and  C13_15 
REMARK    3  A    between atoms: C14_16  and  C15_17 
ROOT
HETATM    1  C1  UNL     1      25.742  13.584  32.994  1.00  0.00     0.076 A 
HETATM    2  C2  UNL     1      25.044  14.470  32.161  1.00  0.00     0.037 A 
HETATM    3  C3  UNL     1      23.796  14.085  31.739  1.00  0.00     0.004 A 
HETATM    4  C4  UNL     1      23.233  12.885  32.102  1.00  0.00     0.013 A 
HETATM    5  C5  UNL     1      23.940  12.044  32.915  1.00  0.00    -0.012 A 
HETATM    6  C6  UNL     1      25.205  12.364  33.382  1.00  0.00     0.008 A 
HETATM    7  C7  UNL     1      25.909  11.510  34.201  1.00  0.00     0.016 A 
HETATM    8  C8  UNL     1      25.385  10.305  34.588  1.00  0.00     0.013 A 
HETATM    9  C9  UNL     1      24.121   9.941  34.145  1.00  0.00    -0.025 A 
HETATM   10  C10 UNL     1      23.577   8.731  34.524  1.00  0.00     0.014 A 
HETATM   11  C11 UNL     1      22.324   8.409  34.063  1.00  0.00     0.021 A 
HETATM   12  C12 UNL     1      21.592   9.218  33.255  1.00  0.00     0.019 A 
HETATM   13  C20 UNL     1      22.162  10.443  32.881  1.00  0.00     0.033 A 
HETATM   14  C21 UNL     1      23.418  10.801  33.323  1.00  0.00    -0.013 A 
ENDROOT
BRANCH  12  15
HETATM   15  C13 UNL     1      20.275   8.888  32.767  1.00  0.00    -0.060 C 
HETATM   16  C14 UNL     1      19.174   8.593  32.351  1.00  0.00    -0.043 C 
BRANCH  16  17
HETATM   17  C15 UNL     1      17.870   8.218  31.851  1.00  0.00     0.086 A 
HETATM   18  C16 UNL     1      17.594   8.275  30.480  1.00  0.00     0.039 A 
HETATM   19  C17 UNL     1      16.360   7.925  29.973  1.00  0.00     0.004 A 
HETATM   20  C18 UNL     1      15.404   7.514  30.881  1.00  0.00     0.017 A 
HETATM   21  C19 UNL     1      15.713   7.471  32.225  1.00  0.00     0.089 A 
HETATM   22  N1  UNL     1      16.925   7.818  32.693  1.00  0.00    -0.359 N 
ATOM     23  H1  UNL     1      17.118   7.774  33.693  1.00  0.00     0.166 HD
ENDBRANCH  16  17
ENDBRANCH  12  15
BRANCH   1  24
HETATM   24  O1  UNL     1      26.991  13.951  33.427  1.00  0.00    -0.360 OA
ATOM     25  H1  UNL     1      27.746  13.592  32.976  1.00  0.00     0.217 HD
ENDBRANCH   1  24
TORSDOF 3
ENDMDL
MODEL 5
REMARK VINA RESULT: 2.778946583      1.689      1.947
REMARK  3 active torsions:
REMARK  status: ('A' for Active; 'I' for Inactive)
REMARK    1  A    between atoms: O1_1  and  C1_3 
REMARK    2  A    between atoms: C12_14  and  C13_15 
REMARK    3  A    between atoms: C14_16  and  C15_17 
ROOT
HETATM    1  C1  UNL     1      26.194  11.482  31.631  1.00  0.00     0.076 A 
HETATM    2  C2  UNL     1      26.013  11.642  30.251  1.00  0.00     0.037 A 
HETATM    3  C3  UNL     1      24.797  11.274  29.730  1.00  0.00     0.004 A 
HETATM    4  C4  UNL     1      23.785  10.766  30.508  1.00  0.00     0.013 A 
HETATM    5  C5  UNL     1      23.995  10.623  31.852  1.00  0.00    -0.012 A 
HETATM    6  C6  UNL     1      25.195  10.973  32.449  1.00  0.00     0.008 A 
HETATM    7  C7  UNL     1      25.396  10.825  33.803  1.00  0.00     0.016 A 
HETATM    8  C8  UNL     1      24.414  10.324  34.616  1.00  0.00     0.013 A 
HETATM    9  C9  UNL     1      23.194   9.960  34.062  1.00  0.00    -0.025 A 
HETATM   10  C10 UNL     1      22.194   9.453  34.865  1.00  0.00     0.014 A 
HETATM   11  C11 UNL     1      21.002   9.104  34.277  1.00  0.00     0.021 A 
HETATM   12  C12 UNL     1      20.757   9.232  32.948  1.00  0.00     0.019 A 
HETATM   13  C20 UNL     1      21.787   9.750  32.148  1.00  0.00     0.033 A 
HETATM   14  C21 UNL     1      22.997  10.110  32.702  1.00  0.00    -0.013 A 
ENDROOT
BRANCH  12  15
HETATM   15  C13 UNL     1      19.510   8.870  32.322  1.00  0.00    -0.060 C 
HETATM   16  C14 UNL     1      18.469   8.552  31.782  1.00  0.00    -0.043 C 
BRANCH  16  17
HETATM   17  C15 UNL     1      17.243   8.156  31.128  1.00  0.00     0.086 A 
HETATM   18  C16 UNL     1      16.111   7.828  31.883  1.00  0.00     0.039 A 
HETATM   19  C17 UNL     1      14.927   7.446  31.289  1.00  0.00     0.004 A 
HETATM   20  C18 UNL     1      14.905   7.400  29.908  1.00  0.00     0.017 A 
HETATM   21  C19 UNL     1      16.041   7.731  29.197  1.00  0.00     0.089 A 
HETATM   22  N1  UNL     1      17.184   8.100  29.803  1.00  0.00    -0.359 N 
ATOM     23  H1  UNL     1      18.004   8.337  29.245  1.00  0.00     0.166 HD
ENDBRANCH  16  17
ENDBRANCH  12  15
BRANCH   1  24
HETATM   24  O1  UNL     1      27.403  11.844  32.172  1.00  0.00    -0.360 OA
ATOM     25  H1  UNL     1      27.882  11.196  32.675  1.00  0.00     0.217 HD
ENDBRANCH   1  24
TORSDOF 3
ENDMDL
