MODEL 1
REMARK VINA RESULT: -7.940401943      0.000      0.000
REMARK  6 active torsions:
REMARK  status: ('A' for Active; 'I' for Inactive)
REMARK    1  A    between atoms: N1_1  and  C1_4 
REMARK    2  A    between atoms: C3_6  and  N2_7 
REMARK    3  A    between atoms: N3_13  and  C9_14 
REMARK    4  A    between atoms: C9_14  and  C10_15 
REMARK    5  A    between atoms: C14_19  and  C15_20 
REMARK    6  A    between atoms: C15_20  and  O1_21 
ROOT
HETATM    1  N2  UNL     1      -9.449  48.052  37.230  1.00  0.00    -0.381 N 
HETATM    2  C4  UNL     1      -9.709  49.068  38.194  1.00  0.00     0.123 C 
HETATM    3  C5  UNL     1      -8.863  49.130  39.397  1.00  0.00     0.030 C 
HETATM    4  C6  UNL     1      -7.793  48.096  39.574  1.00  0.00    -0.023 C 
HETATM    5  C7  UNL     1      -6.461  48.794  39.339  1.00  0.00     0.055 C 
HETATM    6  C8  UNL     1      -5.662  49.098  40.535  1.00  0.00     0.064 C 
HETATM    7  N3  UNL     1      -6.298  49.137  41.792  1.00  0.00    -0.373 N 
HETATM    8  C13 UNL     1      -7.403  48.321  42.048  1.00  0.00     0.070 C 
HETATM    9  C14 UNL     1      -7.912  47.484  40.925  1.00  0.00     0.057 C 
HETATM   10  C16 UNL     1      -7.857  46.974  38.568  1.00  0.00     0.030 C 
HETATM   11  C17 UNL     1      -8.127  47.518  37.155  1.00  0.00     0.123 C 
ENDROOT
BRANCH   9  12
HETATM   12  C15 UNL     1      -7.417  46.076  41.053  1.00  0.00     0.174 C 
BRANCH  12  13
HETATM   13  O1  UNL     1      -8.357  45.151  41.426  1.00  0.00    -0.400 OA
ATOM     14  H1  UNL     1      -8.187  44.260  41.146  1.00  0.00     0.209 HD
ENDBRANCH  12  13
ENDBRANCH   9  12
BRANCH   1  15
HETATM   15  C3  UNL     1     -10.493  47.619  36.376  1.00  0.00     0.035 A 
HETATM   16  C2  UNL     1     -10.172  46.742  35.343  1.00  0.00     0.077 A 
HETATM   17  C1  UNL     1     -11.156  46.311  34.484  1.00  0.00     0.100 A 
HETATM   18  N4  UNL     1     -12.448  46.698  34.588  1.00  0.00    -0.353 N 
HETATM   19  C19 UNL     1     -12.758  47.544  35.585  1.00  0.00     0.092 A 
ATOM     20  H4  UNL     1     -13.156  46.362  33.936  1.00  0.00     0.166 HD
HETATM   21  C18 UNL     1     -11.801  48.010  36.480  1.00  0.00     0.046 A 
BRANCH  17  22
HETATM   22  N1  UNL     1     -10.861  45.493  33.520  1.00  0.00    -0.385 N 
ATOM     23  H12 UNL     1     -11.064  44.505  33.672  1.00  0.00     0.157 HD
ATOM     24  H11 UNL     1     -10.446  45.850  32.660  1.00  0.00     0.157 HD
ENDBRANCH  17  22
ENDBRANCH   1  15
BRANCH   7  25
HETATM   25  C9  UNL     1      -6.368  50.444  42.366  1.00  0.00     0.131 C 
BRANCH  25  26
HETATM   26  C10 UNL     1      -7.561  51.243  41.913  1.00  0.00     0.004 A 
HETATM   27  C11 UNL     1      -8.512  51.585  43.048  1.00  0.00     0.007 A 
HETATM   28  C12 UNL     1      -7.634  52.648  42.317  1.00  0.00     0.007 A 
ENDBRANCH  25  26
ENDBRANCH   7  25
TORSDOF 6
ENDMDL
MODEL 2
REMARK VINA RESULT: -7.791536579      0.539      1.309
REMARK  6 active torsions:
REMARK  status: ('A' for Active; 'I' for Inactive)
REMARK    1  A    between atoms: N1_1  and  C1_4 
REMARK    2  A    between atoms: C3_6  and  N2_7 
REMARK    3  A    between atoms: N3_13  and  C9_14 
REMARK    4  A    between atoms: C9_14  and  C10_15 
REMARK    5  A    between atoms: C14_19  and  C15_20 
REMARK    6  A    between atoms: C15_20  and  O1_21 
ROOT
HETATM    1  N2  UNL     1      -8.969  47.822  37.181  1.00  0.00    -0.381 N 
HETATM    2  C4  UNL     1      -9.352  48.868  38.068  1.00  0.00     0.123 C 
HETATM    3  C5  UNL     1      -8.640  49.001  39.350  1.00  0.00     0.030 C 
HETATM    4  C6  UNL     1      -7.573  48.003  39.682  1.00  0.00    -0.023 C 
HETATM    5  C7  UNL     1      -6.239  48.727  39.559  1.00  0.00     0.055 C 
HETATM    6  C8  UNL     1      -5.578  49.099  40.818  1.00  0.00     0.064 C 
HETATM    7  N3  UNL     1      -6.344  49.171  41.998  1.00  0.00    -0.373 N 
HETATM    8  C13 UNL     1      -7.452  48.337  42.172  1.00  0.00     0.070 C 
HETATM    9  C14 UNL     1      -7.820  47.443  41.038  1.00  0.00     0.057 C 
HETATM   10  C16 UNL     1      -7.504  46.840  38.723  1.00  0.00     0.030 C 
HETATM   11  C17 UNL     1      -7.635  47.321  37.269  1.00  0.00     0.123 C 
ENDROOT
BRANCH   9  12
HETATM   12  C15 UNL     1      -7.311  46.054  41.277  1.00  0.00     0.174 C 
BRANCH  12  13
HETATM   13  O1  UNL     1      -8.265  45.117  41.574  1.00  0.00    -0.400 OA
ATOM     14  H1  UNL     1      -8.490  45.038  42.493  1.00  0.00     0.209 HD
ENDBRANCH  12  13
ENDBRANCH   9  12
BRANCH   1  15
HETATM   15  C3  UNL     1      -9.906  47.328  36.241  1.00  0.00     0.035 A 
HETATM   16  C2  UNL     1     -11.209  47.815  36.298  1.00  0.00     0.077 A 
HETATM   17  C1  UNL     1     -12.151  47.348  35.410  1.00  0.00     0.100 A 
HETATM   18  N4  UNL     1     -11.877  46.423  34.463  1.00  0.00    -0.353 N 
HETATM   19  C19 UNL     1     -10.620  45.953  34.408  1.00  0.00     0.092 A 
ATOM     20  H4  UNL     1     -12.596  46.094  33.818  1.00  0.00     0.166 HD
HETATM   21  C18 UNL     1      -9.631  46.390  35.281  1.00  0.00     0.046 A 
BRANCH  17  22
HETATM   22  N1  UNL     1     -13.367  47.800  35.459  1.00  0.00    -0.385 N 
ATOM     23  H12 UNL     1     -14.072  47.190  35.873  1.00  0.00     0.157 HD
ATOM     24  H11 UNL     1     -13.580  48.728  35.094  1.00  0.00     0.157 HD
ENDBRANCH  17  22
ENDBRANCH   1  15
BRANCH   7  25
HETATM   25  C9  UNL     1      -6.504  50.498  42.506  1.00  0.00     0.131 C 
BRANCH  25  26
HETATM   26  C10 UNL     1      -7.669  51.241  41.907  1.00  0.00     0.004 A 
HETATM   27  C11 UNL     1      -8.698  51.663  42.942  1.00  0.00     0.007 A 
HETATM   28  C12 UNL     1      -7.779  52.673  42.186  1.00  0.00     0.007 A 
ENDBRANCH  25  26
ENDBRANCH   7  25
TORSDOF 6
ENDMDL
MODEL 3
REMARK VINA RESULT: -6.883988472      4.158      6.462
REMARK  6 active torsions:
REMARK  status: ('A' for Active; 'I' for Inactive)
REMARK    1  A    between atoms: N1_1  and  C1_4 
REMARK    2  A    between atoms: C3_6  and  N2_7 
REMARK    3  A    between atoms: N3_13  and  C9_14 
REMARK    4  A    between atoms: C9_14  and  C10_15 
REMARK    5  A    between atoms: C14_19  and  C15_20 
REMARK    6  A    between atoms: C15_20  and  O1_21 
ROOT
HETATM    1  N2  UNL     1      -5.303  44.154  40.663  1.00  0.00    -0.381 N 
HETATM    2  C4  UNL     1      -4.731  45.425  40.960  1.00  0.00     0.123 C 
HETATM    3  C5  UNL     1      -5.516  46.636  40.666  1.00  0.00     0.030 C 
HETATM    4  C6  UNL     1      -6.862  46.479  40.028  1.00  0.00    -0.023 C 
HETATM    5  C7  UNL     1      -7.897  46.801  41.097  1.00  0.00     0.055 C 
HETATM    6  C8  UNL     1      -8.559  48.110  40.992  1.00  0.00     0.064 C 
HETATM    7  N3  UNL     1      -7.948  49.128  40.233  1.00  0.00    -0.373 N 
HETATM    8  C13 UNL     1      -7.166  48.804  39.120  1.00  0.00     0.070 C 
HETATM    9  C14 UNL     1      -6.951  47.359  38.831  1.00  0.00     0.057 C 
HETATM   10  C16 UNL     1      -7.161  45.072  39.572  1.00  0.00     0.030 C 
HETATM   11  C17 UNL     1      -6.726  44.048  40.633  1.00  0.00     0.123 C 
ENDROOT
BRANCH   9  12
HETATM   12  C15 UNL     1      -7.875  46.897  37.745  1.00  0.00     0.174 C 
BRANCH  12  13
HETATM   13  O1  UNL     1      -8.872  47.773  37.406  1.00  0.00    -0.400 OA
ATOM     14  H1  UNL     1      -9.597  47.400  36.919  1.00  0.00     0.209 HD
ENDBRANCH  12  13
ENDBRANCH   9  12
BRANCH   1  15
HETATM   15  C3  UNL     1      -4.452  43.047  40.425  1.00  0.00     0.035 A 
HETATM   16  C2  UNL     1      -4.928  42.018  39.616  1.00  0.00     0.077 A 
HETATM   17  C1  UNL     1      -4.136  40.919  39.374  1.00  0.00     0.100 A 
HETATM   18  N4  UNL     1      -2.893  40.778  39.888  1.00  0.00    -0.353 N 
HETATM   19  C19 UNL     1      -2.434  41.771  40.667  1.00  0.00     0.092 A 
ATOM     20  H4  UNL     1      -2.329  39.952  39.691  1.00  0.00     0.166 HD
HETATM   21  C18 UNL     1      -3.194  42.902  40.944  1.00  0.00     0.046 A 
BRANCH  17  22
HETATM   22  N1  UNL     1      -4.576  39.959  38.620  1.00  0.00    -0.385 N 
ATOM     23  H12 UNL     1      -3.973  39.143  38.509  1.00  0.00     0.157 HD
ATOM     24  H11 UNL     1      -5.487  40.041  38.171  1.00  0.00     0.157 HD
ENDBRANCH  17  22
ENDBRANCH   1  15
BRANCH   7  25
HETATM   25  C9  UNL     1      -7.461  50.221  41.014  1.00  0.00     0.131 C 
BRANCH  25  26
HETATM   26  C10 UNL     1      -8.540  51.160  41.484  1.00  0.00     0.004 A 
HETATM   27  C11 UNL     1      -8.474  51.440  42.976  1.00  0.00     0.007 A 
HETATM   28  C12 UNL     1      -8.143  52.508  41.889  1.00  0.00     0.007 A 
ENDBRANCH  25  26
ENDBRANCH   7  25
TORSDOF 6
ENDMDL
MODEL 4
REMARK VINA RESULT: -6.812553444      4.156      6.537
REMARK  6 active torsions:
REMARK  status: ('A' for Active; 'I' for Inactive)
REMARK    1  A    between atoms: N1_1  and  C1_4 
REMARK    2  A    between atoms: C3_6  and  N2_7 
REMARK    3  A    between atoms: N3_13  and  C9_14 
REMARK    4  A    between atoms: C9_14  and  C10_15 
REMARK    5  A    between atoms: C14_19  and  C15_20 
REMARK    6  A    between atoms: C15_20  and  O1_21 
ROOT
HETATM    1  N2  UNL     1      -5.539  43.940  40.425  1.00  0.00    -0.381 N 
HETATM    2  C4  UNL     1      -4.846  45.130  40.788  1.00  0.00     0.123 C 
HETATM    3  C5  UNL     1      -5.520  46.425  40.592  1.00  0.00     0.030 C 
HETATM    4  C6  UNL     1      -6.887  46.434  39.979  1.00  0.00    -0.023 C 
HETATM    5  C7  UNL     1      -7.866  46.779  41.093  1.00  0.00     0.055 C 
HETATM    6  C8  UNL     1      -8.406  48.147  41.088  1.00  0.00     0.064 C 
HETATM    7  N3  UNL     1      -7.718  49.152  40.381  1.00  0.00    -0.373 N 
HETATM    8  C13 UNL     1      -6.991  48.832  39.230  1.00  0.00     0.070 C 
HETATM    9  C14 UNL     1      -6.917  47.395  38.844  1.00  0.00     0.057 C 
HETATM   10  C16 UNL     1      -7.325  45.094  39.443  1.00  0.00     0.030 C 
HETATM   11  C17 UNL     1      -6.966  43.966  40.425  1.00  0.00     0.123 C 
ENDROOT
BRANCH   9  12
HETATM   12  C15 UNL     1      -7.900  47.093  37.754  1.00  0.00     0.174 C 
BRANCH  12  13
HETATM   13  O1  UNL     1      -8.924  47.993  37.616  1.00  0.00    -0.400 OA
ATOM     14  H1  UNL     1      -9.550  47.799  36.928  1.00  0.00     0.209 HD
ENDBRANCH  12  13
ENDBRANCH   9  12
BRANCH   1  15
HETATM   15  C3  UNL     1      -4.799  42.777  40.096  1.00  0.00     0.035 A 
HETATM   16  C2  UNL     1      -3.533  42.628  40.654  1.00  0.00     0.077 A 
HETATM   17  C1  UNL     1      -2.779  41.518  40.347  1.00  0.00     0.100 A 
HETATM   18  N4  UNL     1      -3.208  40.542  39.515  1.00  0.00    -0.353 N 
HETATM   19  C19 UNL     1      -4.431  40.686  38.977  1.00  0.00     0.092 A 
ATOM     20  H4  UNL     1      -2.628  39.730  39.305  1.00  0.00     0.166 HD
HETATM   21  C18 UNL     1      -5.232  41.788  39.254  1.00  0.00     0.046 A 
BRANCH  17  22
HETATM   22  N1  UNL     1      -1.598  41.374  40.865  1.00  0.00    -0.385 N 
ATOM     23  H12 UNL     1      -1.551  41.180  41.866  1.00  0.00     0.157 HD
ATOM     24  H11 UNL     1      -0.770  41.456  40.275  1.00  0.00     0.157 HD
ENDBRANCH  17  22
ENDBRANCH   1  15
BRANCH   7  25
HETATM   25  C9  UNL     1      -7.116  50.143  41.217  1.00  0.00     0.131 C 
BRANCH  25  26
HETATM   26  C10 UNL     1      -8.109  50.959  42.001  1.00  0.00     0.004 A 
HETATM   27  C11 UNL     1      -7.491  52.193  42.638  1.00  0.00     0.007 A 
HETATM   28  C12 UNL     1      -8.507  52.257  41.456  1.00  0.00     0.007 A 
ENDBRANCH  25  26
ENDBRANCH   7  25
TORSDOF 6
ENDMDL
MODEL 5
REMARK VINA RESULT: -6.461204453      3.469      5.266
REMARK  6 active torsions:
REMARK  status: ('A' for Active; 'I' for Inactive)
REMARK    1  A    between atoms: N1_1  and  C1_4 
REMARK    2  A    between atoms: C3_6  and  N2_7 
REMARK    3  A    between atoms: N3_13  and  C9_14 
REMARK    4  A    between atoms: C9_14  and  C10_15 
REMARK    5  A    between atoms: C14_19  and  C15_20 
REMARK    6  A    between atoms: C15_20  and  O1_21 
ROOT
HETATM    1  N2  UNL     1      -7.501  45.037  39.393  1.00  0.00    -0.381 N 
HETATM    2  C4  UNL     1      -7.964  45.402  40.689  1.00  0.00     0.123 C 
HETATM    3  C5  UNL     1      -8.054  46.833  41.028  1.00  0.00     0.030 C 
HETATM    4  C6  UNL     1      -7.614  47.838  40.009  1.00  0.00    -0.023 C 
HETATM    5  C7  UNL     1      -8.874  48.506  39.475  1.00  0.00     0.055 C 
HETATM    6  C8  UNL     1      -9.149  49.867  39.961  1.00  0.00     0.064 C 
HETATM    7  N3  UNL     1      -8.533  50.307  41.149  1.00  0.00    -0.373 N 
HETATM    8  C13 UNL     1      -7.270  49.827  41.509  1.00  0.00     0.070 C 
HETATM    9  C14 UNL     1      -6.656  48.791  40.632  1.00  0.00     0.057 C 
HETATM   10  C16 UNL     1      -6.927  47.232  38.810  1.00  0.00     0.030 C 
HETATM   11  C17 UNL     1      -7.670  45.975  38.330  1.00  0.00     0.123 C 
ENDROOT
BRANCH   9  12
HETATM   12  C15 UNL     1      -5.654  49.413  39.707  1.00  0.00     0.174 C 
BRANCH  12  13
HETATM   13  O1  UNL     1      -4.349  49.341  40.116  1.00  0.00    -0.400 OA
ATOM     14  H1  UNL     1      -3.773  50.011  39.768  1.00  0.00     0.209 HD
ENDBRANCH  12  13
ENDBRANCH   9  12
BRANCH   1  15
HETATM   15  C3  UNL     1      -6.909  43.766  39.198  1.00  0.00     0.035 A 
HETATM   16  C2  UNL     1      -5.958  43.338  40.121  1.00  0.00     0.077 A 
HETATM   17  C1  UNL     1      -5.351  42.114  39.957  1.00  0.00     0.100 A 
HETATM   18  N4  UNL     1      -5.631  41.284  38.928  1.00  0.00    -0.353 N 
HETATM   19  C19 UNL     1      -6.549  41.696  38.037  1.00  0.00     0.092 A 
ATOM     20  H4  UNL     1      -5.164  40.382  38.831  1.00  0.00     0.166 HD
HETATM   21  C18 UNL     1      -7.191  42.923  38.156  1.00  0.00     0.046 A 
BRANCH  17  22
HETATM   22  N1  UNL     1      -4.465  41.711  40.815  1.00  0.00    -0.385 N 
ATOM     23  H12 UNL     1      -3.640  42.299  40.942  1.00  0.00     0.157 HD
ATOM     24  H11 UNL     1      -4.611  40.842  41.328  1.00  0.00     0.157 HD
ENDBRANCH  17  22
ENDBRANCH   1  15
BRANCH   7  25
HETATM   25  C9  UNL     1      -9.440  50.490  42.239  1.00  0.00     0.131 C 
BRANCH  25  26
HETATM   26  C10 UNL     1      -8.838  51.211  43.416  1.00  0.00     0.004 A 
HETATM   27  C11 UNL     1      -9.607  50.986  44.706  1.00  0.00     0.007 A 
HETATM   28  C12 UNL     1      -8.183  50.406  44.446  1.00  0.00     0.007 A 
ENDBRANCH  25  26
ENDBRANCH   7  25
TORSDOF 6
ENDMDL
