MODEL 1
REMARK VINA RESULT: -6.781533190      0.000      0.000
REMARK  11 active torsions:
REMARK  status: ('A' for Active; 'I' for Inactive)
REMARK    1  A    between atoms: N1_1  and  C1_5 
REMARK    2  A    between atoms: C1_5  and  C2_6 
REMARK    3  A    between atoms: C1_5  and  C12_22 
REMARK    4  A    between atoms: C2_6  and  N2_7 
REMARK    5  A    between atoms: N2_7  and  C3_9 
REMARK    6  A    between atoms: C3_9  and  C4_10 
REMARK    7  A    between atoms: C4_10  and  C5_11 
REMARK    8  A    between atoms: C5_11  and  O1_12 
REMARK    9  A    between atoms: C5_11  and  C6_14 
REMARK       I    between atoms: C6_14  and  N3_16 
REMARK   10  A    between atoms: C12_22  and  O3_23 
REMARK   11  A    between atoms: O3_23  and  C13_24 
ROOT
HETATM    1  C2  UNL     1     -24.031  41.269  14.823  1.00  0.00     0.094 C 
ENDROOT
BRANCH   1   2
HETATM    2  C1  UNL     1     -24.953  40.101  14.562  1.00  0.00     0.245 C 
BRANCH   2   3
HETATM    3  N1  UNL     1     -25.407  40.111  13.226  1.00  0.00    -0.069 N 
ATOM      4  H13 UNL     1     -25.185  40.991  12.759  1.00  0.00     0.275 HD
ATOM      5  H12 UNL     1     -24.861  39.482  12.637  1.00  0.00     0.275 HD
ATOM      6  H11 UNL     1     -26.404  39.901  13.181  1.00  0.00     0.275 HD
ENDBRANCH   2   3
BRANCH   2   7
HETATM    7  C12 UNL     1     -24.234  38.846  15.002  1.00  0.00     0.208 C 
BRANCH   7   8
HETATM    8  O3  UNL     1     -22.980  38.951  15.444  1.00  0.00    -0.357 OA
BRANCH   8   9
HETATM    9  C13 UNL     1     -22.378  38.048  16.235  1.00  0.00     0.320 C 
HETATM   10  C14 UNL     1     -21.024  37.722  15.595  1.00  0.00     0.061 C 
HETATM   11  C15 UNL     1     -20.393  36.484  16.144  1.00  0.00     0.006 C 
HETATM   12  C16 UNL     1     -21.375  35.336  16.023  1.00  0.00     0.028 C 
HETATM   13  C17 UNL     1     -22.570  35.736  16.880  1.00  0.00     0.235 C 
HETATM   14  N4  UNL     1     -23.219  36.844  16.253  1.00  0.00    -0.049 N 
ATOM     15  H42 UNL     1     -24.124  37.033  16.685  1.00  0.00     0.280 HD
ATOM     16  H41 UNL     1     -23.535  36.602  15.314  1.00  0.00     0.280 HD
ENDBRANCH   8   9
ENDBRANCH   7   8
ENDBRANCH   2   7
ENDBRANCH   1   2
BRANCH   1  17
HETATM   17  N2  UNL     1     -23.832  41.668  16.136  1.00  0.00    -0.380 N 
ATOM     18  H2  UNL     1     -22.926  42.064  16.387  1.00  0.00     0.164 HD
BRANCH  17  19
HETATM   19  C3  UNL     1     -24.803  41.558  17.134  1.00  0.00     0.063 C 
BRANCH  19  20
HETATM   20  C4  UNL     1     -24.434  40.625  18.271  1.00  0.00     0.086 C 
BRANCH  20  21
HETATM   21  C5  UNL     1     -23.980  41.526  19.440  1.00  0.00     0.214 C 
BRANCH  21  22
HETATM   22  O1  UNL     1     -24.186  42.869  19.075  1.00  0.00    -0.386 OA
ATOM     23  H1  UNL     1     -24.138  43.404  19.858  1.00  0.00     0.210 HD
ENDBRANCH  21  22
BRANCH  21  24
HETATM   24  C6  UNL     1     -24.788  41.237  20.638  1.00  0.00     0.248 C 
HETATM   25  O2  UNL     1     -26.059  41.198  20.478  1.00  0.00    -0.270 OA
HETATM   26  N3  UNL     1     -24.281  41.003  21.943  1.00  0.00    -0.350 N 
HETATM   27  C7  UNL     1     -25.208  40.684  23.039  1.00  0.00     0.126 C 
HETATM   28  C11 UNL     1     -22.893  41.072  22.305  1.00  0.00     0.126 C 
HETATM   29  C8  UNL     1     -24.667  39.488  23.787  1.00  0.00     0.020 C 
HETATM   30  C9  UNL     1     -23.324  39.806  24.419  1.00  0.00     0.003 C 
HETATM   31  C10 UNL     1     -22.783  41.067  23.833  1.00  0.00     0.020 C 
ENDBRANCH  21  24
ENDBRANCH  20  21
ENDBRANCH  19  20
ENDBRANCH  17  19
ENDBRANCH   1  17
TORSDOF 11
ENDMDL
MODEL 2
REMARK VINA RESULT: -6.656098866      1.476      2.149
REMARK  11 active torsions:
REMARK  status: ('A' for Active; 'I' for Inactive)
REMARK    1  A    between atoms: N1_1  and  C1_5 
REMARK    2  A    between atoms: C1_5  and  C2_6 
REMARK    3  A    between atoms: C1_5  and  C12_22 
REMARK    4  A    between atoms: C2_6  and  N2_7 
REMARK    5  A    between atoms: N2_7  and  C3_9 
REMARK    6  A    between atoms: C3_9  and  C4_10 
REMARK    7  A    between atoms: C4_10  and  C5_11 
REMARK    8  A    between atoms: C5_11  and  O1_12 
REMARK    9  A    between atoms: C5_11  and  C6_14 
REMARK       I    between atoms: C6_14  and  N3_16 
REMARK   10  A    between atoms: C12_22  and  O3_23 
REMARK   11  A    between atoms: O3_23  and  C13_24 
ROOT
HETATM    1  C2  UNL     1     -24.210  41.930  16.888  1.00  0.00     0.094 C 
ENDROOT
BRANCH   1   2
HETATM    2  C1  UNL     1     -23.825  40.483  17.089  1.00  0.00     0.245 C 
BRANCH   2   3
HETATM    3  N1  UNL     1     -24.689  39.859  18.013  1.00  0.00    -0.069 N 
ATOM      4  H13 UNL     1     -24.750  40.384  18.886  1.00  0.00     0.275 HD
ATOM      5  H12 UNL     1     -25.664  39.927  17.723  1.00  0.00     0.275 HD
ATOM      6  H11 UNL     1     -24.409  38.891  18.173  1.00  0.00     0.275 HD
ENDBRANCH   2   3
BRANCH   2   7
HETATM    7  C12 UNL     1     -23.747  39.839  15.723  1.00  0.00     0.208 C 
BRANCH   7   8
HETATM    8  O3  UNL     1     -22.684  39.088  15.432  1.00  0.00    -0.357 OA
BRANCH   8   9
HETATM    9  C13 UNL     1     -22.199  38.121  16.228  1.00  0.00     0.320 C 
HETATM   10  C14 UNL     1     -20.872  37.659  15.616  1.00  0.00     0.061 C 
HETATM   11  C15 UNL     1     -20.388  36.357  16.167  1.00  0.00     0.006 C 
HETATM   12  C16 UNL     1     -21.482  35.320  16.012  1.00  0.00     0.028 C 
HETATM   13  C17 UNL     1     -22.650  35.837  16.844  1.00  0.00     0.235 C 
HETATM   14  N4  UNL     1     -23.163  37.011  16.213  1.00  0.00    -0.049 N 
ATOM     15  H42 UNL     1     -24.053  37.291  16.626  1.00  0.00     0.280 HD
ATOM     16  H41 UNL     1     -23.479  36.811  15.264  1.00  0.00     0.280 HD
ENDBRANCH   8   9
ENDBRANCH   7   8
ENDBRANCH   2   7
ENDBRANCH   1   2
BRANCH   1  17
HETATM   17  N2  UNL     1     -24.153  42.782  17.980  1.00  0.00    -0.380 N 
ATOM     18  H2  UNL     1     -23.236  43.017  18.360  1.00  0.00     0.164 HD
BRANCH  17  19
HETATM   19  C3  UNL     1     -25.281  43.338  18.589  1.00  0.00     0.063 C 
BRANCH  19  20
HETATM   20  C4  UNL     1     -25.084  43.726  20.041  1.00  0.00     0.086 C 
BRANCH  20  21
HETATM   21  C5  UNL     1     -25.325  42.445  20.868  1.00  0.00     0.214 C 
BRANCH  21  22
HETATM   22  O1  UNL     1     -25.838  41.452  20.014  1.00  0.00    -0.386 OA
ATOM     23  H1  UNL     1     -25.300  40.674  20.099  1.00  0.00     0.210 HD
ENDBRANCH  21  22
BRANCH  21  24
HETATM   24  C6  UNL     1     -24.052  41.964  21.432  1.00  0.00     0.248 C 
HETATM   25  O2  UNL     1     -22.981  42.481  20.954  1.00  0.00    -0.270 OA
HETATM   26  N3  UNL     1     -23.914  40.986  22.452  1.00  0.00    -0.350 N 
HETATM   27  C7  UNL     1     -22.574  40.634  22.948  1.00  0.00     0.126 C 
HETATM   28  C11 UNL     1     -25.004  40.268  23.049  1.00  0.00     0.126 C 
HETATM   29  C8  UNL     1     -22.612  40.639  24.458  1.00  0.00     0.020 C 
HETATM   30  C9  UNL     1     -23.570  39.583  24.980  1.00  0.00     0.003 C 
HETATM   31  C10 UNL     1     -24.437  39.103  23.865  1.00  0.00     0.020 C 
ENDBRANCH  21  24
ENDBRANCH  20  21
ENDBRANCH  19  20
ENDBRANCH  17  19
ENDBRANCH   1  17
TORSDOF 11
ENDMDL
MODEL 3
REMARK VINA RESULT: -6.622565563      0.979      1.122
REMARK  11 active torsions:
REMARK  status: ('A' for Active; 'I' for Inactive)
REMARK    1  A    between atoms: N1_1  and  C1_5 
REMARK    2  A    between atoms: C1_5  and  C2_6 
REMARK    3  A    between atoms: C1_5  and  C12_22 
REMARK    4  A    between atoms: C2_6  and  N2_7 
REMARK    5  A    between atoms: N2_7  and  C3_9 
REMARK    6  A    between atoms: C3_9  and  C4_10 
REMARK    7  A    between atoms: C4_10  and  C5_11 
REMARK    8  A    between atoms: C5_11  and  O1_12 
REMARK    9  A    between atoms: C5_11  and  C6_14 
REMARK       I    between atoms: C6_14  and  N3_16 
REMARK   10  A    between atoms: C12_22  and  O3_23 
REMARK   11  A    between atoms: O3_23  and  C13_24 
ROOT
HETATM    1  C2  UNL     1     -24.522  41.193  14.924  1.00  0.00     0.094 C 
ENDROOT
BRANCH   1   2
HETATM    2  C1  UNL     1     -25.246  39.938  14.497  1.00  0.00     0.245 C 
BRANCH   2   3
HETATM    3  N1  UNL     1     -25.509  39.959  13.111  1.00  0.00    -0.069 N 
ATOM      4  H13 UNL     1     -25.493  39.021  12.710  1.00  0.00     0.275 HD
ATOM      5  H12 UNL     1     -26.483  40.193  12.916  1.00  0.00     0.275 HD
ATOM      6  H11 UNL     1     -24.866  40.587  12.630  1.00  0.00     0.275 HD
ENDBRANCH   2   3
BRANCH   2   7
HETATM    7  C12 UNL     1     -24.444  38.757  14.997  1.00  0.00     0.208 C 
BRANCH   7   8
HETATM    8  O3  UNL     1     -23.238  38.982  15.520  1.00  0.00    -0.357 OA
BRANCH   8   9
HETATM    9  C13 UNL     1     -22.582  38.114  16.307  1.00  0.00     0.320 C 
HETATM   10  C14 UNL     1     -21.288  37.736  15.578  1.00  0.00     0.061 C 
HETATM   11  C15 UNL     1     -20.625  36.521  16.141  1.00  0.00     0.006 C 
HETATM   12  C16 UNL     1     -21.624  35.381  16.163  1.00  0.00     0.028 C 
HETATM   13  C17 UNL     1     -22.742  35.843  17.091  1.00  0.00     0.235 C 
HETATM   14  N4  UNL     1     -23.430  36.924  16.459  1.00  0.00    -0.049 N 
ATOM     15  H42 UNL     1     -24.295  37.148  16.952  1.00  0.00     0.280 HD
ATOM     16  H41 UNL     1     -23.823  36.636  15.563  1.00  0.00     0.280 HD
ENDBRANCH   8   9
ENDBRANCH   7   8
ENDBRANCH   2   7
ENDBRANCH   1   2
BRANCH   1  17
HETATM   17  N2  UNL     1     -24.888  41.787  16.122  1.00  0.00    -0.380 N 
ATOM     18  H2  UNL     1     -25.778  42.285  16.161  1.00  0.00     0.164 HD
BRANCH  17  19
HETATM   19  C3  UNL     1     -24.107  41.741  17.280  1.00  0.00     0.063 C 
BRANCH  19  20
HETATM   20  C4  UNL     1     -24.696  40.910  18.402  1.00  0.00     0.086 C 
BRANCH  20  21
HETATM   21  C5  UNL     1     -25.556  41.873  19.250  1.00  0.00     0.214 C 
BRANCH  21  22
HETATM   22  O1  UNL     1     -26.888  41.791  18.803  1.00  0.00    -0.386 OA
ATOM     23  H1  UNL     1     -27.428  42.331  19.368  1.00  0.00     0.210 HD
ENDBRANCH  21  22
BRANCH  21  24
HETATM   24  C6  UNL     1     -25.512  41.470  20.666  1.00  0.00     0.248 C 
HETATM   25  O2  UNL     1     -26.608  41.048  21.178  1.00  0.00    -0.270 OA
HETATM   26  N3  UNL     1     -24.366  41.512  21.504  1.00  0.00    -0.350 N 
HETATM   27  C7  UNL     1     -24.462  41.036  22.893  1.00  0.00     0.126 C 
HETATM   28  C11 UNL     1     -23.081  42.014  21.108  1.00  0.00     0.126 C 
HETATM   29  C8  UNL     1     -23.290  40.122  23.163  1.00  0.00     0.020 C 
HETATM   30  C9  UNL     1     -21.976  40.873  23.040  1.00  0.00     0.003 C 
HETATM   31  C10 UNL     1     -22.211  42.179  22.358  1.00  0.00     0.020 C 
ENDBRANCH  21  24
ENDBRANCH  20  21
ENDBRANCH  19  20
ENDBRANCH  17  19
ENDBRANCH   1  17
TORSDOF 11
ENDMDL
MODEL 4
REMARK VINA RESULT: -6.512855753      1.230      1.878
REMARK  11 active torsions:
REMARK  status: ('A' for Active; 'I' for Inactive)
REMARK    1  A    between atoms: N1_1  and  C1_5 
REMARK    2  A    between atoms: C1_5  and  C2_6 
REMARK    3  A    between atoms: C1_5  and  C12_22 
REMARK    4  A    between atoms: C2_6  and  N2_7 
REMARK    5  A    between atoms: N2_7  and  C3_9 
REMARK    6  A    between atoms: C3_9  and  C4_10 
REMARK    7  A    between atoms: C4_10  and  C5_11 
REMARK    8  A    between atoms: C5_11  and  O1_12 
REMARK    9  A    between atoms: C5_11  and  C6_14 
REMARK       I    between atoms: C6_14  and  N3_16 
REMARK   10  A    between atoms: C12_22  and  O3_23 
REMARK   11  A    between atoms: O3_23  and  C13_24 
ROOT
HETATM    1  C2  UNL     1     -24.798  41.365  14.436  1.00  0.00     0.094 C 
ENDROOT
BRANCH   1   2
HETATM    2  C1  UNL     1     -25.469  40.043  14.142  1.00  0.00     0.245 C 
BRANCH   2   3
HETATM    3  N1  UNL     1     -25.717  39.904  12.761  1.00  0.00    -0.069 N 
ATOM      4  H13 UNL     1     -25.789  40.810  12.297  1.00  0.00     0.275 HD
ATOM      5  H12 UNL     1     -24.901  39.542  12.266  1.00  0.00     0.275 HD
ATOM      6  H11 UNL     1     -26.543  39.329  12.597  1.00  0.00     0.275 HD
ENDBRANCH   2   3
BRANCH   2   7
HETATM    7  C12 UNL     1     -24.628  38.956  14.773  1.00  0.00     0.208 C 
BRANCH   7   8
HETATM    8  O3  UNL     1     -23.636  39.310  15.591  1.00  0.00    -0.357 OA
BRANCH   8   9
HETATM    9  C13 UNL     1     -22.945  38.452  16.358  1.00  0.00     0.320 C 
HETATM   10  C14 UNL     1     -21.621  38.173  15.638  1.00  0.00     0.061 C 
HETATM   11  C15 UNL     1     -20.900  36.976  16.168  1.00  0.00     0.006 C 
HETATM   12  C16 UNL     1     -21.833  35.783  16.131  1.00  0.00     0.028 C 
HETATM   13  C17 UNL     1     -22.990  36.147  17.056  1.00  0.00     0.235 C 
HETATM   14  N4  UNL     1     -23.727  37.211  16.451  1.00  0.00    -0.049 N 
ATOM     15  H42 UNL     1     -24.611  37.369  16.936  1.00  0.00     0.280 HD
ATOM     16  H41 UNL     1     -24.090  36.936  15.538  1.00  0.00     0.280 HD
ENDBRANCH   8   9
ENDBRANCH   7   8
ENDBRANCH   2   7
ENDBRANCH   1   2
BRANCH   1  17
HETATM   17  N2  UNL     1     -25.047  41.970  15.658  1.00  0.00    -0.380 N 
ATOM     18  H2  UNL     1     -24.262  42.394  16.153  1.00  0.00     0.164 HD
BRANCH  17  19
HETATM   19  C3  UNL     1     -26.311  42.034  16.247  1.00  0.00     0.063 C 
BRANCH  19  20
HETATM   20  C4  UNL     1     -26.324  42.615  17.647  1.00  0.00     0.086 C 
BRANCH  20  21
HETATM   21  C5  UNL     1     -25.904  41.471  18.596  1.00  0.00     0.214 C 
BRANCH  21  22
HETATM   22  O1  UNL     1     -25.690  40.312  17.828  1.00  0.00    -0.386 OA
ATOM     23  H1  UNL     1     -25.930  39.557  18.351  1.00  0.00     0.210 HD
ENDBRANCH  21  22
BRANCH  21  24
HETATM   24  C6  UNL     1     -24.645  41.821  19.277  1.00  0.00     0.248 C 
HETATM   25  O2  UNL     1     -23.773  42.454  18.584  1.00  0.00    -0.270 OA
HETATM   26  N3  UNL     1     -24.321  41.516  20.626  1.00  0.00    -0.350 N 
HETATM   27  C7  UNL     1     -23.039  41.967  21.187  1.00  0.00     0.126 C 
HETATM   28  C11 UNL     1     -25.157  40.761  21.517  1.00  0.00     0.126 C 
HETATM   29  C8  UNL     1     -23.306  42.604  22.530  1.00  0.00     0.020 C 
HETATM   30  C9  UNL     1     -23.886  41.594  23.504  1.00  0.00     0.003 C 
HETATM   31  C10 UNL     1     -24.340  40.385  22.757  1.00  0.00     0.020 C 
ENDBRANCH  21  24
ENDBRANCH  20  21
ENDBRANCH  19  20
ENDBRANCH  17  19
ENDBRANCH   1  17
TORSDOF 11
ENDMDL
MODEL 5
REMARK VINA RESULT: -6.479973456      1.700      2.330
REMARK  11 active torsions:
REMARK  status: ('A' for Active; 'I' for Inactive)
REMARK    1  A    between atoms: N1_1  and  C1_5 
REMARK    2  A    between atoms: C1_5  and  C2_6 
REMARK    3  A    between atoms: C1_5  and  C12_22 
REMARK    4  A    between atoms: C2_6  and  N2_7 
REMARK    5  A    between atoms: N2_7  and  C3_9 
REMARK    6  A    between atoms: C3_9  and  C4_10 
REMARK    7  A    between atoms: C4_10  and  C5_11 
REMARK    8  A    between atoms: C5_11  and  O1_12 
REMARK    9  A    between atoms: C5_11  and  C6_14 
REMARK       I    between atoms: C6_14  and  N3_16 
REMARK   10  A    between atoms: C12_22  and  O3_23 
REMARK   11  A    between atoms: O3_23  and  C13_24 
ROOT
HETATM    1  C2  UNL     1     -24.144  42.323  17.498  1.00  0.00     0.094 C 
ENDROOT
BRANCH   1   2
HETATM    2  C1  UNL     1     -24.154  40.825  17.295  1.00  0.00     0.245 C 
BRANCH   2   3
HETATM    3  N1  UNL     1     -25.365  40.267  17.756  1.00  0.00    -0.069 N 
ATOM      4  H13 UNL     1     -25.468  40.371  18.766  1.00  0.00     0.275 HD
ATOM      5  H12 UNL     1     -26.171  40.818  17.462  1.00  0.00     0.275 HD
ATOM      6  H11 UNL     1     -25.447  39.292  17.467  1.00  0.00     0.275 HD
ENDBRANCH   2   3
BRANCH   2   7
HETATM    7  C12 UNL     1     -23.818  40.560  15.845  1.00  0.00     0.208 C 
BRANCH   7   8
HETATM    8  O3  UNL     1     -23.460  39.326  15.489  1.00  0.00    -0.357 OA
BRANCH   8   9
HETATM    9  C13 UNL     1     -22.793  38.473  16.283  1.00  0.00     0.320 C 
HETATM   10  C14 UNL     1     -21.475  38.139  15.578  1.00  0.00     0.061 C 
HETATM   11  C15 UNL     1     -20.787  36.939  16.145  1.00  0.00     0.006 C 
HETATM   12  C16 UNL     1     -21.752  35.770  16.137  1.00  0.00     0.028 C 
HETATM   13  C17 UNL     1     -22.902  36.191  17.046  1.00  0.00     0.235 C 
HETATM   14  N4  UNL     1     -23.609  37.256  16.408  1.00  0.00    -0.049 N 
ATOM     15  H42 UNL     1     -24.489  37.450  16.885  1.00  0.00     0.280 HD
ATOM     16  H41 UNL     1     -23.975  36.964  15.502  1.00  0.00     0.280 HD
ENDBRANCH   8   9
ENDBRANCH   7   8
ENDBRANCH   2   7
ENDBRANCH   1   2
BRANCH   1  17
HETATM   17  N2  UNL     1     -24.192  42.810  18.795  1.00  0.00    -0.380 N 
ATOM     18  H2  UNL     1     -23.385  42.653  19.399  1.00  0.00     0.164 HD
BRANCH  17  19
HETATM   19  C3  UNL     1     -25.284  43.505  19.321  1.00  0.00     0.063 C 
BRANCH  19  20
HETATM   20  C4  UNL     1     -25.415  43.421  20.829  1.00  0.00     0.086 C 
BRANCH  20  21
HETATM   21  C5  UNL     1     -26.326  42.208  21.118  1.00  0.00     0.214 C 
BRANCH  21  22
HETATM   22  O1  UNL     1     -26.956  41.828  19.919  1.00  0.00    -0.386 OA
ATOM     23  H1  UNL     1     -27.462  41.041  20.081  1.00  0.00     0.210 HD
ENDBRANCH  21  22
BRANCH  21  24
HETATM   24  C6  UNL     1     -25.517  41.076  21.601  1.00  0.00     0.248 C 
HETATM   25  O2  UNL     1     -24.956  40.348  20.707  1.00  0.00    -0.270 OA
HETATM   26  N3  UNL     1     -25.309  40.726  22.961  1.00  0.00    -0.350 N 
HETATM   27  C7  UNL     1     -24.438  39.589  23.296  1.00  0.00     0.126 C 
HETATM   28  C11 UNL     1     -25.912  41.396  24.079  1.00  0.00     0.126 C 
HETATM   29  C8  UNL     1     -23.488  40.024  24.388  1.00  0.00     0.020 C 
HETATM   30  C9  UNL     1     -24.246  40.391  25.652  1.00  0.00     0.003 C 
HETATM   31  C10 UNL     1     -25.696  40.547  25.336  1.00  0.00     0.020 C 
ENDBRANCH  21  24
ENDBRANCH  20  21
ENDBRANCH  19  20
ENDBRANCH  17  19
ENDBRANCH   1  17
TORSDOF 11
ENDMDL
