MODEL 1
REMARK VINA RESULT: -7.129474469      0.000      0.000
REMARK  10 active torsions:
REMARK  status: ('A' for Active; 'I' for Inactive)
REMARK    1  A    between atoms: C2_2  and  C4_4 
REMARK    2  A    between atoms: C4_4  and  C5_5 
REMARK    3  A    between atoms: C5_5  and  N1_6 
REMARK    4  A    between atoms: C5_5  and  C11_20 
REMARK       I    between atoms: N1_6  and  C6_8 
REMARK    5  A    between atoms: C6_8  and  C7_10 
REMARK    6  A    between atoms: C7_10  and  C8_11 
REMARK    7  A    between atoms: C10_14  and  O3_15 
REMARK       I    between atoms: C11_20  and  N3_22 
REMARK    8  A    between atoms: N3_22  and  C12_24 
REMARK    9  A    between atoms: C12_24  and  C13_25 
REMARK   10  A    between atoms: C12_24  and  C15_28 
ROOT
HETATM    1  C13 UNL     1     -26.651  42.088  20.717  1.00  0.00     0.149 C 
HETATM    2  C14 UNL     1     -27.240  42.456  19.469  1.00  0.00     0.061 C 
HETATM    3  N4  UNL     1     -27.761  42.750  18.469  1.00  0.00    -0.197 NA
ENDROOT
BRANCH   1   4
HETATM    4  C12 UNL     1     -25.265  41.527  20.649  1.00  0.00     0.101 C 
BRANCH   4   5
HETATM    5  N3  UNL     1     -25.256  40.697  19.417  1.00  0.00    -0.353 N 
HETATM    6  C11 UNL     1     -24.263  40.937  18.480  1.00  0.00     0.240 C 
HETATM    7  O4  UNL     1     -23.395  41.878  18.675  1.00  0.00    -0.271 OA
ATOM      8  H3  UNL     1     -25.958  39.973  19.266  1.00  0.00     0.163 HD
BRANCH   6   9
HETATM    9  C5  UNL     1     -24.048  40.196  17.182  1.00  0.00     0.177 C 
BRANCH   9  10
HETATM   10  C4  UNL     1     -24.120  38.760  17.386  1.00  0.00     0.038 C 
BRANCH  10  11
HETATM   11  C2  UNL     1     -23.466  37.809  16.463  1.00  0.00    -0.020 C 
HETATM   12  C1  UNL     1     -22.094  38.159  15.973  1.00  0.00     0.009 C 
HETATM   13  C3  UNL     1     -23.325  36.418  17.137  1.00  0.00     0.009 C 
ENDBRANCH  10  11
ENDBRANCH   9  10
BRANCH   9  14
HETATM   14  N1  UNL     1     -24.722  40.827  16.106  1.00  0.00    -0.348 N 
HETATM   15  C6  UNL     1     -26.116  40.697  15.848  1.00  0.00     0.220 C 
HETATM   16  O1  UNL     1     -26.753  39.955  16.658  1.00  0.00    -0.274 OA
ATOM     17  H1  UNL     1     -24.172  41.411  15.475  1.00  0.00     0.163 HD
BRANCH  15  18
HETATM   18  C7  UNL     1     -26.831  41.342  14.744  1.00  0.00     0.138 C 
BRANCH  18  19
HETATM   19  C8  UNL     1     -25.989  41.764  13.587  1.00  0.00     0.224 C 
HETATM   20  C9  UNL     1     -26.901  42.420  12.535  1.00  0.00     0.206 C 
HETATM   21  O2  UNL     1     -27.735  41.299  12.280  1.00  0.00    -0.337 OA
HETATM   22  C10 UNL     1     -26.876  40.242  12.103  1.00  0.00     0.467 C 
HETATM   23  N2  UNL     1     -25.649  40.549  12.827  1.00  0.00    -0.018 N 
ATOM     24  H22 UNL     1     -24.821  40.639  12.237  1.00  0.00     0.283 HD
ATOM     25  H21 UNL     1     -25.291  39.782  13.396  1.00  0.00     0.283 HD
BRANCH  22  26
HETATM   26  O3  UNL     1     -27.389  39.018  12.493  1.00  0.00    -0.350 OA
ATOM     27  H3  UNL     1     -27.040  38.276  12.012  1.00  0.00     0.214 HD
ENDBRANCH  22  26
ENDBRANCH  18  19
ENDBRANCH  15  18
ENDBRANCH   9  14
ENDBRANCH   6   9
ENDBRANCH   4   5
BRANCH   4  28
HETATM   28  C15 UNL     1     -24.923  40.639  21.811  1.00  0.00     0.001 C 
HETATM   29  C16 UNL     1     -23.666  41.165  22.518  1.00  0.00     0.011 C 
HETATM   30  C17 UNL     1     -26.014  40.725  22.852  1.00  0.00     0.011 C 
ENDBRANCH   4  28
ENDBRANCH   1   4
TORSDOF 10
ENDMDL
MODEL 2
REMARK VINA RESULT: -7.043744965      1.721      1.968
REMARK  10 active torsions:
REMARK  status: ('A' for Active; 'I' for Inactive)
REMARK    1  A    between atoms: C2_2  and  C4_4 
REMARK    2  A    between atoms: C4_4  and  C5_5 
REMARK    3  A    between atoms: C5_5  and  N1_6 
REMARK    4  A    between atoms: C5_5  and  C11_20 
REMARK       I    between atoms: N1_6  and  C6_8 
REMARK    5  A    between atoms: C6_8  and  C7_10 
REMARK    6  A    between atoms: C7_10  and  C8_11 
REMARK    7  A    between atoms: C10_14  and  O3_15 
REMARK       I    between atoms: C11_20  and  N3_22 
REMARK    8  A    between atoms: N3_22  and  C12_24 
REMARK    9  A    between atoms: C12_24  and  C13_25 
REMARK   10  A    between atoms: C12_24  and  C15_28 
ROOT
HETATM    1  C13 UNL     1     -25.321  42.615  18.721  1.00  0.00     0.149 C 
HETATM    2  C14 UNL     1     -25.696  42.739  17.348  1.00  0.00     0.061 C 
HETATM    3  N4  UNL     1     -26.039  42.862  16.241  1.00  0.00    -0.197 NA
ENDROOT
BRANCH   1   4
HETATM    4  C12 UNL     1     -24.393  41.487  19.048  1.00  0.00     0.101 C 
BRANCH   4   5
HETATM    5  N3  UNL     1     -24.843  40.367  18.182  1.00  0.00    -0.353 N 
HETATM    6  C11 UNL     1     -23.919  39.808  17.312  1.00  0.00     0.240 C 
HETATM    7  O4  UNL     1     -22.715  40.277  17.250  1.00  0.00    -0.271 OA
ATOM      8  H3  UNL     1     -25.801  40.020  18.227  1.00  0.00     0.163 HD
BRANCH   6   9
HETATM    9  C5  UNL     1     -24.151  38.649  16.373  1.00  0.00     0.177 C 
BRANCH   9  10
HETATM   10  C4  UNL     1     -23.603  37.420  16.918  1.00  0.00     0.038 C 
BRANCH  10  11
HETATM   11  C2  UNL     1     -22.575  36.638  16.199  1.00  0.00    -0.020 C 
HETATM   12  C1  UNL     1     -21.224  37.264  16.036  1.00  0.00     0.009 C 
HETATM   13  C3  UNL     1     -22.325  35.288  16.921  1.00  0.00     0.009 C 
ENDBRANCH  10  11
ENDBRANCH   9  10
BRANCH   9  14
HETATM   14  N1  UNL     1     -25.448  38.693  15.803  1.00  0.00    -0.348 N 
HETATM   15  C6  UNL     1     -25.781  39.422  14.625  1.00  0.00     0.220 C 
HETATM   16  O1  UNL     1     -24.823  40.062  14.092  1.00  0.00    -0.274 OA
ATOM     17  H1  UNL     1     -26.191  38.168  16.265  1.00  0.00     0.163 HD
BRANCH  15  18
HETATM   18  C7  UNL     1     -27.113  39.477  14.019  1.00  0.00     0.138 C 
BRANCH  18  19
HETATM   19  C8  UNL     1     -27.617  40.842  13.691  1.00  0.00     0.224 C 
HETATM   20  C9  UNL     1     -28.973  40.700  12.974  1.00  0.00     0.206 C 
HETATM   21  O2  UNL     1     -28.520  39.953  11.854  1.00  0.00    -0.337 OA
HETATM   22  C10 UNL     1     -27.400  40.613  11.408  1.00  0.00     0.467 C 
HETATM   23  N2  UNL     1     -26.836  41.333  12.543  1.00  0.00    -0.018 N 
ATOM     24  H22 UNL     1     -26.832  42.348  12.439  1.00  0.00     0.283 HD
ATOM     25  H21 UNL     1     -25.826  41.233  12.646  1.00  0.00     0.283 HD
BRANCH  22  26
HETATM   26  O3  UNL     1     -26.454  39.796  10.818  1.00  0.00    -0.350 OA
ATOM     27  H3  UNL     1     -26.707  39.452   9.970  1.00  0.00     0.214 HD
ENDBRANCH  22  26
ENDBRANCH  18  19
ENDBRANCH  15  18
ENDBRANCH   9  14
ENDBRANCH   6   9
ENDBRANCH   4   5
BRANCH   4  28
HETATM   28  C15 UNL     1     -24.483  41.036  20.477  1.00  0.00     0.001 C 
HETATM   29  C16 UNL     1     -23.380  41.706  21.308  1.00  0.00     0.011 C 
HETATM   30  C17 UNL     1     -25.775  41.530  21.084  1.00  0.00     0.011 C 
ENDBRANCH   4  28
ENDBRANCH   1   4
TORSDOF 10
ENDMDL
MODEL 3
REMARK VINA RESULT: -6.865465843      2.174      6.064
REMARK  10 active torsions:
REMARK  status: ('A' for Active; 'I' for Inactive)
REMARK    1  A    between atoms: C2_2  and  C4_4 
REMARK    2  A    between atoms: C4_4  and  C5_5 
REMARK    3  A    between atoms: C5_5  and  N1_6 
REMARK    4  A    between atoms: C5_5  and  C11_20 
REMARK       I    between atoms: N1_6  and  C6_8 
REMARK    5  A    between atoms: C6_8  and  C7_10 
REMARK    6  A    between atoms: C7_10  and  C8_11 
REMARK    7  A    between atoms: C10_14  and  O3_15 
REMARK       I    between atoms: C11_20  and  N3_22 
REMARK    8  A    between atoms: N3_22  and  C12_24 
REMARK    9  A    between atoms: C12_24  and  C13_25 
REMARK   10  A    between atoms: C12_24  and  C15_28 
ROOT
HETATM    1  C13 UNL     1     -27.269  42.121  14.003  1.00  0.00     0.149 C 
HETATM    2  C14 UNL     1     -27.945  42.545  15.188  1.00  0.00     0.061 C 
HETATM    3  N4  UNL     1     -28.473  42.929  16.153  1.00  0.00    -0.197 NA
ENDROOT
BRANCH   1   4
HETATM    4  C12 UNL     1     -27.197  40.643  13.781  1.00  0.00     0.101 C 
BRANCH   4   5
HETATM    5  N3  UNL     1     -26.017  40.202  14.569  1.00  0.00    -0.353 N 
HETATM    6  C11 UNL     1     -26.240  39.407  15.683  1.00  0.00     0.240 C 
HETATM    7  O4  UNL     1     -27.447  39.091  16.027  1.00  0.00    -0.271 OA
ATOM      8  H3  UNL     1     -25.072  40.476  14.299  1.00  0.00     0.163 HD
BRANCH   6   9
HETATM    9  C5  UNL     1     -25.192  38.825  16.600  1.00  0.00     0.177 C 
BRANCH   9  10
HETATM   10  C4  UNL     1     -24.094  38.255  15.840  1.00  0.00     0.038 C 
BRANCH  10  11
HETATM   11  C2  UNL     1     -22.848  37.800  16.492  1.00  0.00    -0.020 C 
HETATM   12  C1  UNL     1     -22.597  36.324  16.543  1.00  0.00     0.009 C 
HETATM   13  C3  UNL     1     -21.614  38.408  15.774  1.00  0.00     0.009 C 
ENDBRANCH  10  11
ENDBRANCH   9  10
BRANCH   9  14
HETATM   14  N1  UNL     1     -24.961  39.661  17.722  1.00  0.00    -0.348 N 
HETATM   15  C6  UNL     1     -24.297  40.919  17.660  1.00  0.00     0.220 C 
HETATM   16  O1  UNL     1     -23.900  41.269  16.506  1.00  0.00    -0.274 OA
ATOM     17  H1  UNL     1     -25.292  39.340  18.633  1.00  0.00     0.163 HD
BRANCH  15  18
HETATM   18  C7  UNL     1     -24.051  41.797  18.806  1.00  0.00     0.138 C 
BRANCH  18  19
HETATM   19  C8  UNL     1     -24.484  43.215  18.639  1.00  0.00     0.224 C 
HETATM   20  C9  UNL     1     -24.871  43.772  20.021  1.00  0.00     0.206 C 
HETATM   21  O2  UNL     1     -25.926  42.863  20.304  1.00  0.00    -0.337 OA
HETATM   22  C10 UNL     1     -26.694  42.834  19.165  1.00  0.00     0.467 C 
HETATM   23  N2  UNL     1     -25.832  43.194  18.046  1.00  0.00    -0.018 N 
ATOM     24  H22 UNL     1     -26.097  44.057  17.570  1.00  0.00     0.283 HD
ATOM     25  H21 UNL     1     -25.925  42.590  17.230  1.00  0.00     0.283 HD
BRANCH  22  26
HETATM   26  O3  UNL     1     -27.327  41.627  18.934  1.00  0.00    -0.350 OA
ATOM     27  H3  UNL     1     -27.617  41.501  18.038  1.00  0.00     0.214 HD
ENDBRANCH  22  26
ENDBRANCH  18  19
ENDBRANCH  15  18
ENDBRANCH   9  14
ENDBRANCH   6   9
ENDBRANCH   4   5
BRANCH   4  28
HETATM   28  C15 UNL     1     -26.966  40.265  12.346  1.00  0.00     0.001 C 
HETATM   29  C16 UNL     1     -28.287  39.821  11.703  1.00  0.00     0.011 C 
HETATM   30  C17 UNL     1     -26.548  41.487  11.562  1.00  0.00     0.011 C 
ENDBRANCH   4  28
ENDBRANCH   1   4
TORSDOF 10
ENDMDL
MODEL 4
REMARK VINA RESULT: -6.856816453      2.143      5.220
REMARK  10 active torsions:
REMARK  status: ('A' for Active; 'I' for Inactive)
REMARK    1  A    between atoms: C2_2  and  C4_4 
REMARK    2  A    between atoms: C4_4  and  C5_5 
REMARK    3  A    between atoms: C5_5  and  N1_6 
REMARK    4  A    between atoms: C5_5  and  C11_20 
REMARK       I    between atoms: N1_6  and  C6_8 
REMARK    5  A    between atoms: C6_8  and  C7_10 
REMARK    6  A    between atoms: C7_10  and  C8_11 
REMARK    7  A    between atoms: C10_14  and  O3_15 
REMARK       I    between atoms: C11_20  and  N3_22 
REMARK    8  A    between atoms: N3_22  and  C12_24 
REMARK    9  A    between atoms: C12_24  and  C13_25 
REMARK   10  A    between atoms: C12_24  and  C15_28 
ROOT
HETATM    1  C13 UNL     1     -21.391  37.973  15.898  1.00  0.00     0.149 C 
HETATM    2  C14 UNL     1     -20.138  37.349  15.616  1.00  0.00     0.061 C 
HETATM    3  N4  UNL     1     -19.102  36.877  15.364  1.00  0.00    -0.197 NA
ENDROOT
BRANCH   1   4
HETATM    4  C12 UNL     1     -22.547  37.050  16.130  1.00  0.00     0.101 C 
BRANCH   4   5
HETATM    5  N3  UNL     1     -23.525  37.860  16.901  1.00  0.00    -0.353 N 
HETATM    6  C11 UNL     1     -24.157  38.907  16.249  1.00  0.00     0.240 C 
HETATM    7  O4  UNL     1     -23.873  39.175  15.015  1.00  0.00    -0.271 OA
ATOM      8  H3  UNL     1     -23.725  37.651  17.879  1.00  0.00     0.163 HD
BRANCH   6   9
HETATM    9  C5  UNL     1     -25.202  39.831  16.828  1.00  0.00     0.177 C 
BRANCH   9  10
HETATM   10  C4  UNL     1     -24.835  40.256  18.167  1.00  0.00     0.038 C 
BRANCH  10  11
HETATM   11  C2  UNL     1     -23.930  41.401  18.401  1.00  0.00    -0.020 C 
HETATM   12  C1  UNL     1     -24.350  42.732  17.855  1.00  0.00     0.009 C 
HETATM   13  C3  UNL     1     -23.724  41.621  19.923  1.00  0.00     0.009 C 
ENDBRANCH  10  11
ENDBRANCH   9  10
BRANCH   9  14
HETATM   14  N1  UNL     1     -25.673  40.754  15.860  1.00  0.00    -0.348 N 
HETATM   15  C6  UNL     1     -26.884  40.597  15.129  1.00  0.00     0.220 C 
HETATM   16  O1  UNL     1     -27.547  39.545  15.389  1.00  0.00    -0.274 OA
ATOM     17  H1  UNL     1     -25.108  41.584  15.677  1.00  0.00     0.163 HD
BRANCH  15  18
HETATM   18  C7  UNL     1     -27.390  41.540  14.128  1.00  0.00     0.138 C 
BRANCH  18  19
HETATM   19  C8  UNL     1     -26.494  41.789  12.963  1.00  0.00     0.224 C 
HETATM   20  C9  UNL     1     -27.356  42.256  11.776  1.00  0.00     0.206 C 
HETATM   21  O2  UNL     1     -28.165  41.093  11.660  1.00  0.00    -0.337 OA
HETATM   22  C10 UNL     1     -27.287  40.037  11.695  1.00  0.00     0.467 C 
HETATM   23  N2  UNL     1     -26.102  40.477  12.422  1.00  0.00    -0.018 N 
ATOM     24  H22 UNL     1     -25.246  40.487  11.867  1.00  0.00     0.283 HD
ATOM     25  H21 UNL     1     -25.767  39.815  13.122  1.00  0.00     0.283 HD
BRANCH  22  26
HETATM   26  O3  UNL     1     -27.807  38.881  12.248  1.00  0.00    -0.350 OA
ATOM     27  H3  UNL     1     -28.575  38.544  11.800  1.00  0.00     0.214 HD
ENDBRANCH  22  26
ENDBRANCH  18  19
ENDBRANCH  15  18
ENDBRANCH   9  14
ENDBRANCH   6   9
ENDBRANCH   4   5
BRANCH   4  28
HETATM   28  C15 UNL     1     -22.192  35.843  16.950  1.00  0.00     0.001 C 
HETATM   29  C16 UNL     1     -23.447  35.295  17.644  1.00  0.00     0.011 C 
HETATM   30  C17 UNL     1     -21.737  34.727  16.039  1.00  0.00     0.011 C 
ENDBRANCH   4  28
ENDBRANCH   1   4
TORSDOF 10
ENDMDL
MODEL 5
REMARK VINA RESULT: -6.777800024      1.939      6.386
REMARK  10 active torsions:
REMARK  status: ('A' for Active; 'I' for Inactive)
REMARK    1  A    between atoms: C2_2  and  C4_4 
REMARK    2  A    between atoms: C4_4  and  C5_5 
REMARK    3  A    between atoms: C5_5  and  N1_6 
REMARK    4  A    between atoms: C5_5  and  C11_20 
REMARK       I    between atoms: N1_6  and  C6_8 
REMARK    5  A    between atoms: C6_8  and  C7_10 
REMARK    6  A    between atoms: C7_10  and  C8_11 
REMARK    7  A    between atoms: C10_14  and  O3_15 
REMARK       I    between atoms: C11_20  and  N3_22 
REMARK    8  A    between atoms: N3_22  and  C12_24 
REMARK    9  A    between atoms: C12_24  and  C13_25 
REMARK   10  A    between atoms: C12_24  and  C15_28 
ROOT
HETATM    1  C13 UNL     1     -27.878  42.122  14.990  1.00  0.00     0.149 C 
HETATM    2  C14 UNL     1     -27.093  42.800  15.972  1.00  0.00     0.061 C 
HETATM    3  N4  UNL     1     -26.478  43.389  16.767  1.00  0.00    -0.197 NA
ENDROOT
BRANCH   1   4
HETATM    4  C12 UNL     1     -27.214  40.974  14.296  1.00  0.00     0.101 C 
BRANCH   4   5
HETATM    5  N3  UNL     1     -26.091  40.593  15.190  1.00  0.00    -0.353 N 
HETATM    6  C11 UNL     1     -26.099  39.319  15.736  1.00  0.00     0.240 C 
HETATM    7  O4  UNL     1     -27.076  38.508  15.485  1.00  0.00    -0.271 OA
ATOM      8  H3  UNL     1     -25.338  41.249  15.397  1.00  0.00     0.163 HD
BRANCH   6   9
HETATM    9  C5  UNL     1     -25.048  38.717  16.638  1.00  0.00     0.177 C 
BRANCH   9  10
HETATM   10  C4  UNL     1     -23.984  38.106  15.861  1.00  0.00     0.038 C 
BRANCH  10  11
HETATM   11  C2  UNL     1     -22.733  37.635  16.490  1.00  0.00    -0.020 C 
HETATM   12  C1  UNL     1     -22.490  36.156  16.515  1.00  0.00     0.009 C 
HETATM   13  C3  UNL     1     -21.504  38.246  15.765  1.00  0.00     0.009 C 
ENDBRANCH  10  11
ENDBRANCH   9  10
BRANCH   9  14
HETATM   14  N1  UNL     1     -24.769  39.558  17.745  1.00  0.00    -0.348 N 
HETATM   15  C6  UNL     1     -24.018  40.765  17.663  1.00  0.00     0.220 C 
HETATM   16  O1  UNL     1     -23.587  41.062  16.506  1.00  0.00    -0.274 OA
ATOM     17  H1  UNL     1     -25.129  39.280  18.658  1.00  0.00     0.163 HD
BRANCH  15  18
HETATM   18  C7  UNL     1     -23.721  41.648  18.793  1.00  0.00     0.138 C 
BRANCH  18  19
HETATM   19  C8  UNL     1     -24.732  41.658  19.889  1.00  0.00     0.224 C 
HETATM   20  C9  UNL     1     -25.045  43.122  20.250  1.00  0.00     0.206 C 
HETATM   21  O2  UNL     1     -23.736  43.504  20.650  1.00  0.00    -0.337 OA
HETATM   22  C10 UNL     1     -23.310  42.505  21.492  1.00  0.00     0.467 C 
HETATM   23  N2  UNL     1     -24.033  41.291  21.133  1.00  0.00    -0.018 N 
ATOM     24  H22 UNL     1     -24.642  40.930  21.868  1.00  0.00     0.283 HD
ATOM     25  H21 UNL     1     -23.449  40.459  21.059  1.00  0.00     0.283 HD
BRANCH  22  26
HETATM   26  O3  UNL     1     -21.944  42.292  21.478  1.00  0.00    -0.350 OA
ATOM     27  H3  UNL     1     -21.574  42.065  22.323  1.00  0.00     0.214 HD
ENDBRANCH  22  26
ENDBRANCH  18  19
ENDBRANCH  15  18
ENDBRANCH   9  14
ENDBRANCH   6   9
ENDBRANCH   4   5
BRANCH   4  28
HETATM   28  C15 UNL     1     -26.641  41.337  12.957  1.00  0.00     0.001 C 
HETATM   29  C16 UNL     1     -25.121  41.524  13.072  1.00  0.00     0.011 C 
HETATM   30  C17 UNL     1     -26.814  40.180  12.001  1.00  0.00     0.011 C 
ENDBRANCH   4  28
ENDBRANCH   1   4
TORSDOF 10
ENDMDL
