MODEL 1
REMARK VINA RESULT: -6.752664869      0.000      0.000
REMARK  9 active torsions:
REMARK  status: ('A' for Active; 'I' for Inactive)
REMARK    1  A    between atoms: C4_7  and  C5_8 
REMARK    2  A    between atoms: C5_8  and  C6_11 
REMARK    3  A    between atoms: C6_11  and  C7_14 
REMARK    4  A    between atoms: C8_15  and  C9_16 
REMARK    5  A    between atoms: C9_16  and  C10_17 
REMARK    6  A    between atoms: C10_17  and  C11_18 
REMARK    7  A    between atoms: C11_18  and  O2_19 
REMARK    8  A    between atoms: O2_19  and  N2_20 
REMARK    9  A    between atoms: N9_42  and  N10_43 
ROOT
HETATM    1  C1  UNL     1       6.250  -2.624   3.835  1.00  0.00     0.042 C 
HETATM    2  C2  UNL     1       6.953  -3.448   4.884  1.00  0.00     0.174 C 
HETATM    3  N1  UNL     1       6.391  -4.765   5.014  1.00  0.00    -0.346 N 
ATOM      4  H1  UNL     1       5.928  -4.958   5.902  1.00  0.00     0.163 HD
HETATM    5  C3  UNL     1       6.390  -5.798   4.112  1.00  0.00     0.247 C 
HETATM    6  O1  UNL     1       5.581  -6.783   4.341  1.00  0.00    -0.271 OA
HETATM    7  C4  UNL     1       7.186  -6.023   2.869  1.00  0.00     0.256 C 
HETATM    8  N5  UNL     1       8.308  -6.844   3.227  1.00  0.00    -0.346 N 
ATOM      9  H5  UNL     1       8.044  -7.502   3.960  1.00  0.00     0.163 HD
HETATM   10  C13 UNL     1       9.493  -6.998   2.920  1.00  0.00     0.184 C 
HETATM   11  N6  UNL     1      10.284  -8.037   3.587  1.00  0.00    -0.064 NA
HETATM   12  N7  UNL     1      10.192  -6.236   1.949  1.00  0.00    -0.363 N 
ATOM     13  H7  UNL     1      10.604  -6.749   1.170  1.00  0.00     0.162 HD
HETATM   14  C14 UNL     1      10.380  -4.784   1.958  1.00  0.00     0.148 C 
HETATM   15  C15 UNL     1      11.015  -4.376   3.250  1.00  0.00     0.187 C 
HETATM   16  O3  UNL     1      11.848  -3.292   3.225  1.00  0.00    -0.387 OA
HETATM   17  C16 UNL     1      12.685  -3.429   4.363  1.00  0.00     0.193 C 
HETATM   18  C17 UNL     1      11.780  -3.853   5.506  1.00  0.00     0.193 C 
HETATM   19  O4  UNL     1      12.390  -3.659   6.757  1.00  0.00    -0.387 OA
HETATM   20  C18 UNL     1      11.808  -4.556   7.668  1.00  0.00     0.187 C 
HETATM   21  C19 UNL     1      10.761  -3.899   8.527  1.00  0.00     0.141 C 
HETATM   22  N8  UNL     1       9.743  -3.235   7.782  1.00  0.00    -0.402 N 
ATOM     23  H8  UNL     1       9.805  -2.250   7.525  1.00  0.00     0.154 HD
HETATM   24  C20 UNL     1       8.616  -4.065   7.420  1.00  0.00     0.268 C 
HETATM   25  N9  UNL     1       7.385  -3.265   7.390  1.00  0.00    -0.248 N 
HETATM   26  C21 UNL     1       6.867  -2.705   6.176  1.00  0.00     0.261 C 
HETATM   27  O5  UNL     1       6.344  -1.566   6.270  1.00  0.00    -0.269 OA
ENDROOT
BRANCH   7  28
HETATM   28  C5  UNL     1       6.387  -6.803   1.908  1.00  0.00     0.340 C 
HETATM   29  F1  UNL     1       7.456  -6.942   0.823  1.00  0.00    -0.196 F 
HETATM   30  F2  UNL     1       6.404  -8.142   2.332  1.00  0.00    -0.196 F 
BRANCH  28  31
HETATM   31  C6  UNL     1       5.250  -6.474   1.071  1.00  0.00     0.328 C 
HETATM   32  F3  UNL     1       5.374  -5.679   0.034  1.00  0.00    -0.195 F 
HETATM   33  F4  UNL     1       4.376  -5.587   1.918  1.00  0.00    -0.195 F 
BRANCH  31  34
HETATM   34  C7  UNL     1       4.326  -7.651   1.006  1.00  0.00     0.053 C 
HETATM   35  C8  UNL     1       4.426  -8.726   0.125  1.00  0.00    -0.024 C 
BRANCH  35  36
HETATM   36  C9  UNL     1       4.672  -8.566  -1.377  1.00  0.00     0.029 C 
BRANCH  36  37
HETATM   37  C10 UNL     1       6.046  -9.055  -1.505  1.00  0.00     0.032 C 
BRANCH  37  38
HETATM   38  C11 UNL     1       6.958  -9.054  -2.673  1.00  0.00     0.201 C 
BRANCH  38  39
HETATM   39  O2  UNL     1       8.219  -8.887  -1.925  1.00  0.00    -0.278 OA
BRANCH  39  40
HETATM   40  N2  UNL     1       8.569  -9.381  -0.797  1.00  0.00    -0.241 N 
HETATM   41  C12 UNL     1       9.567 -10.004  -0.389  1.00  0.00     0.221 C 
HETATM   42  N3  UNL     1       9.643 -10.401   1.008  1.00  0.00    -0.065 NA
HETATM   43  N4  UNL     1      10.657 -10.413  -1.175  1.00  0.00    -0.065 NA
ATOM     44  H2  UNL     1       7.874  -9.229  -0.066  1.00  0.00     0.196 HD
ENDBRANCH  39  40
ENDBRANCH  38  39
ENDBRANCH  37  38
ENDBRANCH  36  37
ENDBRANCH  35  36
ENDBRANCH  31  34
ENDBRANCH  28  31
ENDBRANCH   7  28
BRANCH  25  45
HETATM   45  N10 UNL     1       6.709  -3.054   8.598  1.00  0.00    -0.339 N 
ATOM     46 2H10 UNL     1       6.768  -3.751   9.341  1.00  0.00     0.177 HD
ATOM     47 1H10 UNL     1       6.168  -2.196   8.701  1.00  0.00     0.177 HD
ENDBRANCH  25  45
TORSDOF 9
ENDMDL
MODEL 2
REMARK VINA RESULT: -6.724083145      2.522      4.138
REMARK  9 active torsions:
REMARK  status: ('A' for Active; 'I' for Inactive)
REMARK    1  A    between atoms: C4_7  and  C5_8 
REMARK    2  A    between atoms: C5_8  and  C6_11 
REMARK    3  A    between atoms: C6_11  and  C7_14 
REMARK    4  A    between atoms: C8_15  and  C9_16 
REMARK    5  A    between atoms: C9_16  and  C10_17 
REMARK    6  A    between atoms: C10_17  and  C11_18 
REMARK    7  A    between atoms: C11_18  and  O2_19 
REMARK    8  A    between atoms: O2_19  and  N2_20 
REMARK    9  A    between atoms: N9_42  and  N10_43 
ROOT
HETATM    1  C1  UNL     1       7.868  -7.035   1.669  1.00  0.00     0.042 C 
HETATM    2  C2  UNL     1       7.668  -5.871   2.605  1.00  0.00     0.174 C 
HETATM    3  N1  UNL     1       6.358  -5.290   2.485  1.00  0.00    -0.346 N 
ATOM      4  H1  UNL     1       6.332  -4.340   2.114  1.00  0.00     0.163 HD
HETATM    5  C3  UNL     1       5.138  -5.833   2.798  1.00  0.00     0.247 C 
HETATM    6  O1  UNL     1       4.087  -5.232   2.340  1.00  0.00    -0.271 OA
HETATM    7  C4  UNL     1       4.771  -7.030   3.612  1.00  0.00     0.256 C 
HETATM    8  N5  UNL     1       4.475  -6.567   4.937  1.00  0.00    -0.346 N 
ATOM      9  H5  UNL     1       4.039  -5.645   4.900  1.00  0.00     0.163 HD
HETATM   10  C13 UNL     1       4.586  -6.940   6.108  1.00  0.00     0.184 C 
HETATM   11  N6  UNL     1       4.095  -6.082   7.191  1.00  0.00    -0.064 NA
HETATM   12  N7  UNL     1       5.167  -8.166   6.524  1.00  0.00    -0.363 N 
ATOM     13  H7  UNL     1       4.576  -8.795   7.068  1.00  0.00     0.162 HD
HETATM   14  C14 UNL     1       6.533  -8.614   6.248  1.00  0.00     0.148 C 
HETATM   15  C15 UNL     1       7.500  -7.583   6.737  1.00  0.00     0.187 C 
HETATM   16  O3  UNL     1       8.713  -8.023   7.189  1.00  0.00    -0.387 OA
HETATM   17  C16 UNL     1       9.199  -6.995   8.038  1.00  0.00     0.193 C 
HETATM   18  C17 UNL     1       8.917  -5.686   7.323  1.00  0.00     0.193 C 
HETATM   19  O4  UNL     1       9.671  -4.626   7.853  1.00  0.00    -0.387 OA
HETATM   20  C18 UNL     1       8.984  -3.430   7.591  1.00  0.00     0.187 C 
HETATM   21  C19 UNL     1       9.543  -2.699   6.400  1.00  0.00     0.141 C 
HETATM   22  N8  UNL     1       9.605  -3.493   5.218  1.00  0.00    -0.402 N 
ATOM     23  H8  UNL     1      10.428  -4.040   4.966  1.00  0.00     0.154 HD
HETATM   24  C20 UNL     1       8.410  -3.464   4.403  1.00  0.00     0.268 C 
HETATM   25  N9  UNL     1       8.760  -3.598   2.983  1.00  0.00    -0.248 N 
HETATM   26  C21 UNL     1       8.725  -4.860   2.304  1.00  0.00     0.261 C 
HETATM   27  O5  UNL     1       9.628  -5.057   1.452  1.00  0.00    -0.269 OA
ENDROOT
BRANCH   7  28
HETATM   28  C5  UNL     1       3.527  -7.619   3.087  1.00  0.00     0.340 C 
HETATM   29  F1  UNL     1       3.514  -8.875   3.960  1.00  0.00    -0.196 F 
HETATM   30  F2  UNL     1       2.453  -6.968   3.716  1.00  0.00    -0.196 F 
BRANCH  28  31
HETATM   31  C6  UNL     1       3.177  -8.219   1.815  1.00  0.00     0.328 C 
HETATM   32  F3  UNL     1       2.652  -7.506   0.846  1.00  0.00    -0.195 F 
HETATM   33  F4  UNL     1       1.987  -9.097   2.103  1.00  0.00    -0.195 F 
BRANCH  31  34
HETATM   34  C7  UNL     1       4.151  -9.310   1.497  1.00  0.00     0.053 C 
HETATM   35  C8  UNL     1       5.237  -9.216   0.629  1.00  0.00    -0.024 C 
BRANCH  35  36
HETATM   36  C9  UNL     1       5.147  -8.597  -0.769  1.00  0.00     0.029 C 
BRANCH  36  37
HETATM   37  C10 UNL     1       6.147  -9.376  -1.501  1.00  0.00     0.032 C 
BRANCH  37  38
HETATM   38  C11 UNL     1       7.035  -8.983  -2.621  1.00  0.00     0.201 C 
BRANCH  38  39
HETATM   39  O2  UNL     1       8.280  -8.864  -1.838  1.00  0.00    -0.278 OA
BRANCH  39  40
HETATM   40  N2  UNL     1       8.612  -9.436  -0.742  1.00  0.00    -0.241 N 
HETATM   41  C12 UNL     1       9.635 -10.018  -0.336  1.00  0.00     0.221 C 
HETATM   42  N3  UNL     1       9.672 -10.540   1.021  1.00  0.00    -0.065 NA
HETATM   43  N4  UNL     1      10.792 -10.265  -1.091  1.00  0.00    -0.065 NA
ATOM     44  H2  UNL     1       7.870  -9.408  -0.042  1.00  0.00     0.196 HD
ENDBRANCH  39  40
ENDBRANCH  38  39
ENDBRANCH  37  38
ENDBRANCH  36  37
ENDBRANCH  35  36
ENDBRANCH  31  34
ENDBRANCH  28  31
ENDBRANCH   7  28
BRANCH  25  45
HETATM   45  N10 UNL     1       9.139  -2.443   2.287  1.00  0.00    -0.339 N 
ATOM     46 2H10 UNL     1       9.356  -1.589   2.801  1.00  0.00     0.177 HD
ATOM     47 1H10 UNL     1       9.186  -2.492   1.270  1.00  0.00     0.177 HD
ENDBRANCH  25  45
TORSDOF 9
ENDMDL
MODEL 3
REMARK VINA RESULT: -6.681635532      3.340      4.945
REMARK  9 active torsions:
REMARK  status: ('A' for Active; 'I' for Inactive)
REMARK    1  A    between atoms: C4_7  and  C5_8 
REMARK    2  A    between atoms: C5_8  and  C6_11 
REMARK    3  A    between atoms: C6_11  and  C7_14 
REMARK    4  A    between atoms: C8_15  and  C9_16 
REMARK    5  A    between atoms: C9_16  and  C10_17 
REMARK    6  A    between atoms: C10_17  and  C11_18 
REMARK    7  A    between atoms: C11_18  and  O2_19 
REMARK    8  A    between atoms: O2_19  and  N2_20 
REMARK    9  A    between atoms: N9_42  and  N10_43 
ROOT
HETATM    1  C1  UNL     1       7.911  -6.614   1.813  1.00  0.00     0.042 C 
HETATM    2  C2  UNL     1       7.982  -5.469   2.791  1.00  0.00     0.174 C 
HETATM    3  N1  UNL     1       6.734  -4.764   2.901  1.00  0.00    -0.346 N 
ATOM      4  H1  UNL     1       6.741  -3.804   2.557  1.00  0.00     0.163 HD
HETATM    5  C3  UNL     1       5.535  -5.201   3.403  1.00  0.00     0.247 C 
HETATM    6  O1  UNL     1       4.487  -4.489   3.139  1.00  0.00    -0.271 OA
HETATM    7  C4  UNL     1       5.191  -6.386   4.246  1.00  0.00     0.256 C 
HETATM    8  N5  UNL     1       5.164  -5.943   5.610  1.00  0.00    -0.346 N 
ATOM      9  H5  UNL     1       4.821  -4.984   5.663  1.00  0.00     0.163 HD
HETATM   10  C13 UNL     1       5.429  -6.365   6.739  1.00  0.00     0.184 C 
HETATM   11  N6  UNL     1       5.210  -5.502   7.904  1.00  0.00    -0.064 NA
HETATM   12  N7  UNL     1       5.948  -7.653   7.029  1.00  0.00    -0.363 N 
ATOM     13  H7  UNL     1       5.396  -8.242   7.653  1.00  0.00     0.162 HD
HETATM   14  C14 UNL     1       7.200  -8.218   6.521  1.00  0.00     0.148 C 
HETATM   15  C15 UNL     1       8.330  -7.299   6.860  1.00  0.00     0.187 C 
HETATM   16  O3  UNL     1       9.552  -7.866   7.095  1.00  0.00    -0.387 OA
HETATM   17  C16 UNL     1      10.269  -6.917   7.869  1.00  0.00     0.193 C 
HETATM   18  C17 UNL     1      10.003  -5.564   7.236  1.00  0.00     0.193 C 
HETATM   19  O4  UNL     1      10.934  -4.598   7.652  1.00  0.00    -0.387 OA
HETATM   20  C18 UNL     1      10.334  -3.335   7.530  1.00  0.00     0.187 C 
HETATM   21  C19 UNL     1      10.758  -2.619   6.276  1.00  0.00     0.141 C 
HETATM   22  N8  UNL     1      10.547  -3.374   5.086  1.00  0.00    -0.402 N 
ATOM     23  H8  UNL     1      11.260  -3.987   4.690  1.00  0.00     0.154 HD
HETATM   24  C20 UNL     1       9.243  -3.206   4.482  1.00  0.00     0.268 C 
HETATM   25  N9  UNL     1       9.340  -3.323   3.022  1.00  0.00    -0.248 N 
HETATM   26  C21 UNL     1       9.070  -4.552   2.336  1.00  0.00     0.261 C 
HETATM   27  O5  UNL     1       9.796  -4.804   1.341  1.00  0.00    -0.269 OA
ENDROOT
BRANCH   7  28
HETATM   28  C5  UNL     1       3.826  -6.837   3.925  1.00  0.00     0.340 C 
HETATM   29  F1  UNL     1       3.859  -8.150   4.709  1.00  0.00    -0.196 F 
HETATM   30  F2  UNL     1       2.944  -6.155   4.780  1.00  0.00    -0.196 F 
BRANCH  28  31
HETATM   31  C6  UNL     1       3.202  -7.311   2.706  1.00  0.00     0.328 C 
HETATM   32  F3  UNL     1       2.867  -6.483   1.745  1.00  0.00    -0.195 F 
HETATM   33  F4  UNL     1       1.816  -7.742   3.110  1.00  0.00    -0.195 F 
BRANCH  31  34
HETATM   34  C7  UNL     1       3.737  -8.669   2.372  1.00  0.00     0.053 C 
HETATM   35  C8  UNL     1       4.992  -8.948   1.834  1.00  0.00    -0.024 C 
BRANCH  35  36
HETATM   36  C9  UNL     1       5.592  -8.185   0.650  1.00  0.00     0.029 C 
BRANCH  36  37
HETATM   37  C10 UNL     1       5.181  -9.023  -0.479  1.00  0.00     0.032 C 
BRANCH  37  38
HETATM   38  C11 UNL     1       4.527  -8.654  -1.756  1.00  0.00     0.201 C 
BRANCH  38  39
HETATM   39  O2  UNL     1       3.158  -9.067  -1.391  1.00  0.00    -0.278 OA
BRANCH  39  40
HETATM   40  N2  UNL     1       2.209  -8.379  -0.876  1.00  0.00    -0.241 N 
HETATM   41  C12 UNL     1       1.078  -8.649  -0.430  1.00  0.00     0.221 C 
HETATM   42  N3  UNL     1       0.252  -7.586   0.120  1.00  0.00    -0.065 NA
HETATM   43  N4  UNL     1       0.476  -9.917  -0.434  1.00  0.00    -0.065 NA
ATOM     44  H2  UNL     1       2.429  -7.385  -0.818  1.00  0.00     0.196 HD
ENDBRANCH  39  40
ENDBRANCH  38  39
ENDBRANCH  37  38
ENDBRANCH  36  37
ENDBRANCH  35  36
ENDBRANCH  31  34
ENDBRANCH  28  31
ENDBRANCH   7  28
BRANCH  25  45
HETATM   45  N10 UNL     1       9.710  -2.186   2.294  1.00  0.00    -0.339 N 
ATOM     46 2H10 UNL     1       9.232  -1.300   2.459  1.00  0.00     0.177 HD
ATOM     47 1H10 UNL     1      10.459  -2.279   1.608  1.00  0.00     0.177 HD
ENDBRANCH  25  45
TORSDOF 9
ENDMDL
MODEL 4
REMARK VINA RESULT: -6.464407164      3.243      6.064
REMARK  9 active torsions:
REMARK  status: ('A' for Active; 'I' for Inactive)
REMARK    1  A    between atoms: C4_7  and  C5_8 
REMARK    2  A    between atoms: C5_8  and  C6_11 
REMARK    3  A    between atoms: C6_11  and  C7_14 
REMARK    4  A    between atoms: C8_15  and  C9_16 
REMARK    5  A    between atoms: C9_16  and  C10_17 
REMARK    6  A    between atoms: C10_17  and  C11_18 
REMARK    7  A    between atoms: C11_18  and  O2_19 
REMARK    8  A    between atoms: O2_19  and  N2_20 
REMARK    9  A    between atoms: N9_42  and  N10_43 
ROOT
HETATM    1  C1  UNL     1       6.302 -10.012   2.286  1.00  0.00     0.042 C 
HETATM    2  C2  UNL     1       7.713  -9.654   1.895  1.00  0.00     0.174 C 
HETATM    3  N1  UNL     1       7.790  -8.385   1.222  1.00  0.00    -0.346 N 
ATOM      4  H1  UNL     1       8.070  -8.425   0.242  1.00  0.00     0.163 HD
HETATM    5  C3  UNL     1       7.539  -7.129   1.713  1.00  0.00     0.247 C 
HETATM    6  O1  UNL     1       7.399  -6.173   0.850  1.00  0.00    -0.271 OA
HETATM    7  C4  UNL     1       7.404  -6.625   3.113  1.00  0.00     0.256 C 
HETATM    8  N5  UNL     1       8.683  -6.105   3.501  1.00  0.00    -0.346 N 
ATOM      9  H5  UNL     1       9.151  -5.683   2.699  1.00  0.00     0.163 HD
HETATM   10  C13 UNL     1       9.391  -6.011   4.507  1.00  0.00     0.184 C 
HETATM   11  N6  UNL     1      10.693  -5.341   4.416  1.00  0.00    -0.064 NA
HETATM   12  N7  UNL     1       9.057  -6.510   5.792  1.00  0.00    -0.363 N 
ATOM     13  H7  UNL     1       9.022  -5.833   6.555  1.00  0.00     0.162 HD
HETATM   14  C14 UNL     1       8.757  -7.903   6.130  1.00  0.00     0.148 C 
HETATM   15  C15 UNL     1       9.897  -8.772   5.700  1.00  0.00     0.187 C 
HETATM   16  O3  UNL     1      10.152  -9.888   6.448  1.00  0.00    -0.387 OA
HETATM   17  C16 UNL     1      11.507 -10.220   6.186  1.00  0.00     0.193 C 
HETATM   18  C17 UNL     1      11.699 -10.068   4.688  1.00  0.00     0.193 C 
HETATM   19  O4  UNL     1      12.859 -10.719   4.239  1.00  0.00    -0.387 OA
HETATM   20  C18 UNL     1      13.282 -10.088   3.057  1.00  0.00     0.187 C 
HETATM   21  C19 UNL     1      12.866 -10.846   1.825  1.00  0.00     0.141 C 
HETATM   22  N8  UNL     1      11.467 -11.111   1.760  1.00  0.00    -0.402 N 
ATOM     23  H8  UNL     1      11.052 -11.965   2.133  1.00  0.00     0.154 HD
HETATM   24  C20 UNL     1      10.681 -10.076   1.126  1.00  0.00     0.268 C 
HETATM   25  N9  UNL     1       9.534 -10.666   0.425  1.00  0.00    -0.248 N 
HETATM   26  C21 UNL     1       8.233 -10.748   1.022  1.00  0.00     0.261 C 
HETATM   27  O5  UNL     1       7.569 -11.785   0.767  1.00  0.00    -0.269 OA
ENDROOT
BRANCH   7  28
HETATM   28  C5  UNL     1       6.465  -5.490   3.138  1.00  0.00     0.340 C 
HETATM   29  F1  UNL     1       6.278  -5.417   4.654  1.00  0.00    -0.196 F 
HETATM   30  F2  UNL     1       7.221  -4.314   3.006  1.00  0.00    -0.196 F 
BRANCH  28  31
HETATM   31  C6  UNL     1       5.083  -5.341   2.727  1.00  0.00     0.328 C 
HETATM   32  F3  UNL     1       4.770  -4.964   1.510  1.00  0.00    -0.195 F 
HETATM   33  F4  UNL     1       4.579  -4.127   3.463  1.00  0.00    -0.195 F 
BRANCH  31  34
HETATM   34  C7  UNL     1       4.244  -6.359   3.435  1.00  0.00     0.053 C 
HETATM   35  C8  UNL     1       3.604  -7.449   2.847  1.00  0.00    -0.024 C 
BRANCH  35  36
HETATM   36  C9  UNL     1       2.779  -7.349   1.561  1.00  0.00     0.029 C 
BRANCH  36  37
HETATM   37  C10 UNL     1       3.630  -8.065   0.609  1.00  0.00     0.032 C 
BRANCH  37  38
HETATM   38  C11 UNL     1       3.412  -8.377  -0.823  1.00  0.00     0.201 C 
BRANCH  38  39
HETATM   39  O2  UNL     1       4.501  -9.363  -0.967  1.00  0.00    -0.278 OA
BRANCH  39  40
HETATM   40  N2  UNL     1       5.755  -9.173  -1.140  1.00  0.00    -0.241 N 
HETATM   41  C12 UNL     1       6.470  -8.903  -2.123  1.00  0.00     0.221 C 
HETATM   42  N3  UNL     1       7.902  -8.727  -1.941  1.00  0.00    -0.065 NA
HETATM   43  N4  UNL     1       6.027  -8.780  -3.450  1.00  0.00    -0.065 NA
ATOM     44  H2  UNL     1       6.290  -9.263  -0.276  1.00  0.00     0.196 HD
ENDBRANCH  39  40
ENDBRANCH  38  39
ENDBRANCH  37  38
ENDBRANCH  36  37
ENDBRANCH  35  36
ENDBRANCH  31  34
ENDBRANCH  28  31
ENDBRANCH   7  28
BRANCH  25  45
HETATM   45  N10 UNL     1       9.738 -11.160  -0.870  1.00  0.00    -0.339 N 
ATOM     46 2H10 UNL     1      10.681 -11.200  -1.255  1.00  0.00     0.177 HD
ATOM     47 1H10 UNL     1       8.923 -11.471  -1.398  1.00  0.00     0.177 HD
ENDBRANCH  25  45
TORSDOF 9
ENDMDL
MODEL 5
REMARK VINA RESULT: -6.420237623      3.192      4.417
REMARK  9 active torsions:
REMARK  status: ('A' for Active; 'I' for Inactive)
REMARK    1  A    between atoms: C4_7  and  C5_8 
REMARK    2  A    between atoms: C5_8  and  C6_11 
REMARK    3  A    between atoms: C6_11  and  C7_14 
REMARK    4  A    between atoms: C8_15  and  C9_16 
REMARK    5  A    between atoms: C9_16  and  C10_17 
REMARK    6  A    between atoms: C10_17  and  C11_18 
REMARK    7  A    between atoms: C11_18  and  O2_19 
REMARK    8  A    between atoms: O2_19  and  N2_20 
REMARK    9  A    between atoms: N9_42  and  N10_43 
ROOT
HETATM    1  C1  UNL     1       6.217  -2.652   3.916  1.00  0.00     0.042 C 
HETATM    2  C2  UNL     1       6.971  -3.466   4.936  1.00  0.00     0.174 C 
HETATM    3  N1  UNL     1       6.421  -4.785   5.098  1.00  0.00    -0.346 N 
ATOM      4  H1  UNL     1       5.999  -4.975   6.007  1.00  0.00     0.163 HD
HETATM    5  C3  UNL     1       6.385  -5.823   4.203  1.00  0.00     0.247 C 
HETATM    6  O1  UNL     1       5.592  -6.811   4.473  1.00  0.00    -0.271 OA
HETATM    7  C4  UNL     1       7.126  -6.052   2.926  1.00  0.00     0.256 C 
HETATM    8  N5  UNL     1       8.266  -6.865   3.238  1.00  0.00    -0.346 N 
ATOM      9  H5  UNL     1       8.039  -7.521   3.986  1.00  0.00     0.163 HD
HETATM   10  C13 UNL     1       9.437  -7.015   2.880  1.00  0.00     0.184 C 
HETATM   11  N6  UNL     1      10.263  -8.047   3.516  1.00  0.00    -0.064 NA
HETATM   12  N7  UNL     1      10.089  -6.255   1.874  1.00  0.00    -0.363 N 
ATOM     13  H7  UNL     1      10.468  -6.771   1.080  1.00  0.00     0.162 HD
HETATM   14  C14 UNL     1      10.270  -4.802   1.867  1.00  0.00     0.148 C 
HETATM   15  C15 UNL     1      10.960  -4.384   3.127  1.00  0.00     0.187 C 
HETATM   16  O3  UNL     1      11.785  -3.296   3.059  1.00  0.00    -0.387 OA
HETATM   17  C16 UNL     1      12.673  -3.423   4.160  1.00  0.00     0.193 C 
HETATM   18  C17 UNL     1      11.823  -3.845   5.344  1.00  0.00     0.193 C 
HETATM   19  O4  UNL     1      12.486  -3.641   6.565  1.00  0.00    -0.387 OA
HETATM   20  C18 UNL     1      11.950  -4.536   7.506  1.00  0.00     0.187 C 
HETATM   21  C19 UNL     1      10.940  -3.880   8.408  1.00  0.00     0.141 C 
HETATM   22  N8  UNL     1       9.886  -3.224   7.706  1.00  0.00    -0.402 N 
ATOM     23  H8  UNL     1       9.932  -2.240   7.440  1.00  0.00     0.154 HD
HETATM   24  C20 UNL     1       8.748  -4.061   7.398  1.00  0.00     0.268 C 
HETATM   25  N9  UNL     1       7.513  -3.268   7.420  1.00  0.00    -0.248 N 
HETATM   26  C21 UNL     1       6.939  -2.717   6.227  1.00  0.00     0.261 C 
HETATM   27  O5  UNL     1       6.415  -1.579   6.338  1.00  0.00    -0.269 OA
ENDROOT
BRANCH   7  28
HETATM   28  C5  UNL     1       6.289  -6.841   2.006  1.00  0.00     0.340 C 
HETATM   29  F1  UNL     1       7.267  -6.884   0.831  1.00  0.00    -0.196 F 
HETATM   30  F2  UNL     1       6.411  -8.190   2.375  1.00  0.00    -0.196 F 
BRANCH  28  31
HETATM   31  C6  UNL     1       5.069  -6.546   1.281  1.00  0.00     0.328 C 
HETATM   32  F3  UNL     1       5.093  -6.220   0.009  1.00  0.00    -0.195 F 
HETATM   33  F4  UNL     1       4.588  -5.228   1.830  1.00  0.00    -0.195 F 
BRANCH  31  34
HETATM   34  C7  UNL     1       3.958  -7.395   1.815  1.00  0.00     0.053 C 
HETATM   35  C8  UNL     1       3.311  -8.426   1.135  1.00  0.00    -0.024 C 
BRANCH  35  36
HETATM   36  C9  UNL     1       2.810  -8.301  -0.306  1.00  0.00     0.029 C 
BRANCH  36  37
HETATM   37  C10 UNL     1       1.385  -8.596  -0.150  1.00  0.00     0.032 C 
BRANCH  37  38
HETATM   38  C11 UNL     1       0.485  -8.384   1.009  1.00  0.00     0.201 C 
BRANCH  38  39
HETATM   39  O2  UNL     1       0.104  -6.993   0.697  1.00  0.00    -0.278 OA
BRANCH  39  40
HETATM   40  N2  UNL     1      -1.011  -6.392   0.883  1.00  0.00    -0.241 N 
HETATM   41  C12 UNL     1      -1.878  -5.908   0.131  1.00  0.00     0.221 C 
HETATM   42  N3  UNL     1      -3.069  -5.305   0.706  1.00  0.00    -0.065 NA
HETATM   43  N4  UNL     1      -1.808  -5.849  -1.270  1.00  0.00    -0.065 NA
ATOM     44  H2  UNL     1      -1.243  -6.286   1.871  1.00  0.00     0.196 HD
ENDBRANCH  39  40
ENDBRANCH  38  39
ENDBRANCH  37  38
ENDBRANCH  36  37
ENDBRANCH  35  36
ENDBRANCH  31  34
ENDBRANCH  28  31
ENDBRANCH   7  28
BRANCH  25  45
HETATM   45  N10 UNL     1       6.890  -3.053   8.656  1.00  0.00    -0.339 N 
ATOM     46 2H10 UNL     1       6.215  -3.732   9.008  1.00  0.00     0.177 HD
ATOM     47 1H10 UNL     1       7.134  -2.210   9.175  1.00  0.00     0.177 HD
ENDBRANCH  25  45
TORSDOF 9
ENDMDL
