MODEL 1
REMARK VINA RESULT: -5.992711293      0.000      0.000
REMARK  13 active torsions:
REMARK  status: ('A' for Active; 'I' for Inactive)
REMARK    1  A    between atoms: C2_2  and  C3_3 
REMARK    2  A    between atoms: C5_7  and  C6_8 
REMARK    3  A    between atoms: C6_8  and  C7_9 
REMARK    4  A    between atoms: C8_12  and  N2_13 
REMARK       I    between atoms: N2_13  and  C9_15 
REMARK       I    between atoms: C9_15  and  N3_17 
REMARK    5  A    between atoms: N3_17  and  N4_19 
REMARK    6  A    between atoms: N6_24  and  C10_25 
REMARK    7  A    between atoms: C10_25  and  O4_26 
REMARK    8  A    between atoms: C10_25  and  C11_28 
REMARK    9  A    between atoms: C11_28  and  N7_29 
REMARK   10  A    between atoms: C11_28  and  C12_33 
REMARK   11  A    between atoms: C13_36  and  C14_37 
REMARK       I    between atoms: C14_37  and  N8_39 
REMARK   12  A    between atoms: N8_39  and  C15_41 
REMARK   13  A    between atoms: C15_41  and  C16_45 
ROOT
HETATM    1  C6  UNL     1      -6.755  -8.130   2.382  1.00  0.00     0.167 C 
HETATM    2  C8  UNL     1      -6.026  -9.041   1.446  1.00  0.00     0.127 C 
HETATM    3  N5  UNL     1      -4.801  -8.627   1.309  1.00  0.00    -0.286 N 
ATOM      4  H5  UNL     1      -4.107  -9.090   0.722  1.00  0.00     0.188 HD
HETATM    5  N6  UNL     1      -4.547  -7.487   2.050  1.00  0.00    -0.279 N 
HETATM    6  C13 UNL     1      -5.626  -7.254   2.940  1.00  0.00     0.228 C 
ENDROOT
BRANCH   1   7
HETATM    7  C5  UNL     1      -7.738  -7.328   1.664  1.00  0.00    -0.010 A 
HETATM    8  C4  UNL     1      -7.808  -5.948   1.927  1.00  0.00     0.097 A 
HETATM    9  N1  UNL     1      -8.701  -5.144   1.326  1.00  0.00    -0.366 N 
HETATM   10  C3  UNL     1      -9.587  -5.619   0.432  1.00  0.00     0.047 A 
ATOM     11  H1  UNL     1      -8.709  -4.150   1.555  1.00  0.00     0.165 HD
HETATM   12  C18 UNL     1      -9.530  -6.964   0.167  1.00  0.00     0.139 A 
HETATM   13  C17 UNL     1      -8.629  -7.830   0.760  1.00  0.00     0.054 A 
HETATM   14  F2  UNL     1     -10.402  -7.525  -0.736  1.00  0.00    -0.204 F 
BRANCH  10  15
HETATM   15  C2  UNL     1     -10.583  -4.723  -0.239  1.00  0.00     0.056 C 
HETATM   16  C1  UNL     1     -11.474  -4.038   0.770  1.00  0.00     0.011 C 
ENDBRANCH  10  15
ENDBRANCH   1   7
BRANCH   1  17
HETATM   17  C7  UNL     1      -7.285  -8.985   3.451  1.00  0.00     0.197 C 
HETATM   18  O1  UNL     1      -6.907 -10.182   3.530  1.00  0.00    -0.647 OA
HETATM   19  O2  UNL     1      -8.179  -8.542   4.377  1.00  0.00    -0.647 OA
ENDBRANCH   1  17
BRANCH   2  20
HETATM   20  N2  UNL     1      -6.474 -10.178   0.756  1.00  0.00    -0.294 N 
HETATM   21  C9  UNL     1      -6.227 -10.612  -0.550  1.00  0.00     0.339 C 
HETATM   22  O3  UNL     1      -5.524 -10.080  -1.434  1.00  0.00    -0.245 OA
HETATM   23  N3  UNL     1      -6.853 -11.849  -0.991  1.00  0.00    -0.258 N 
ATOM     24  H3  UNL     1      -7.452 -12.371  -0.353  1.00  0.00     0.191 HD
ATOM     25  H2  UNL     1      -7.082 -10.792   1.299  1.00  0.00     0.172 HD
BRANCH  23  26
HETATM   26  N4  UNL     1      -6.638 -12.315  -2.265  1.00  0.00    -0.341 N 
ATOM     27  H42 UNL     1      -6.798 -11.687  -3.053  1.00  0.00     0.177 HD
ATOM     28  H41 UNL     1      -6.324 -13.273  -2.414  1.00  0.00     0.177 HD
ENDBRANCH  23  26
ENDBRANCH   2  20
BRANCH   6  29
HETATM   29  C14 UNL     1      -5.360  -7.631   4.362  1.00  0.00     0.249 C 
HETATM   30  O7  UNL     1      -4.473  -8.499   4.514  1.00  0.00    -0.271 OA
HETATM   31  N8  UNL     1      -6.056  -7.048   5.435  1.00  0.00    -0.310 N 
ATOM     32  H8  UNL     1      -6.754  -6.346   5.187  1.00  0.00     0.170 HD
BRANCH  31  33
HETATM   33  C15 UNL     1      -5.910  -7.310   6.787  1.00  0.00     0.150 C 
HETATM   34  N9  UNL     1      -6.344  -8.505   7.199  1.00  0.00    -0.384 N 
ATOM     35  H92 UNL     1      -6.747  -9.125   6.496  1.00  0.00     0.157 HD
ATOM     36  H91 UNL     1      -6.236  -8.698   8.194  1.00  0.00     0.157 HD
BRANCH  33  37
HETATM   37  C16 UNL     1      -5.329  -6.417   7.798  1.00  0.00     0.314 C 
HETATM   38  F1  UNL     1      -4.043  -6.007   7.513  1.00  0.00    -0.198 F 
HETATM   39 CL1  UNL     1      -5.229  -7.327   9.365  1.00  0.00    -0.058 Cl
HETATM   40 CL2  UNL     1      -6.380  -5.015   8.149  1.00  0.00    -0.058 Cl
ENDBRANCH  33  37
ENDBRANCH  31  33
ENDBRANCH   6  29
BRANCH   5  41
HETATM   41  C10 UNL     1      -3.333  -6.678   1.853  1.00  0.00     0.277 C 
BRANCH  41  42
HETATM   42  O4  UNL     1      -3.562  -5.596   1.044  1.00  0.00    -0.373 OA
ATOM     43  H4  UNL     1      -2.754  -5.175   0.775  1.00  0.00     0.212 HD
ENDBRANCH  41  42
BRANCH  41  44
HETATM   44  C11 UNL     1      -2.261  -7.513   1.172  1.00  0.00     0.332 C 
BRANCH  44  45
HETATM   45  N7  UNL     1      -1.408  -8.206   2.092  1.00  0.00    -0.061 N 
ATOM     46  H73 UNL     1      -0.557  -8.521   1.627  1.00  0.00     0.275 HD
ATOM     47  H72 UNL     1      -1.002  -7.557   2.766  1.00  0.00     0.275 HD
ATOM     48  H71 UNL     1      -1.869  -8.982   2.568  1.00  0.00     0.275 HD
ENDBRANCH  44  45
BRANCH  44  49
HETATM   49  C12 UNL     1      -1.447  -6.588   0.344  1.00  0.00     0.209 C 
HETATM   50  O5  UNL     1      -0.370  -6.108   0.807  1.00  0.00    -0.646 OA
HETATM   51  O6  UNL     1      -1.849  -6.235  -0.942  1.00  0.00    -0.646 OA
ENDBRANCH  44  49
ENDBRANCH  41  44
ENDBRANCH   5  41
TORSDOF 13
ENDMDL
MODEL 2
REMARK VINA RESULT: -5.840214635      8.877     13.729
REMARK  13 active torsions:
REMARK  status: ('A' for Active; 'I' for Inactive)
REMARK    1  A    between atoms: C2_2  and  C3_3 
REMARK    2  A    between atoms: C5_7  and  C6_8 
REMARK    3  A    between atoms: C6_8  and  C7_9 
REMARK    4  A    between atoms: C8_12  and  N2_13 
REMARK       I    between atoms: N2_13  and  C9_15 
REMARK       I    between atoms: C9_15  and  N3_17 
REMARK    5  A    between atoms: N3_17  and  N4_19 
REMARK    6  A    between atoms: N6_24  and  C10_25 
REMARK    7  A    between atoms: C10_25  and  O4_26 
REMARK    8  A    between atoms: C10_25  and  C11_28 
REMARK    9  A    between atoms: C11_28  and  N7_29 
REMARK   10  A    between atoms: C11_28  and  C12_33 
REMARK   11  A    between atoms: C13_36  and  C14_37 
REMARK       I    between atoms: C14_37  and  N8_39 
REMARK   12  A    between atoms: N8_39  and  C15_41 
REMARK   13  A    between atoms: C15_41  and  C16_45 
ROOT
HETATM    1  C6  UNL     1       5.777  -7.293   2.307  1.00  0.00     0.167 C 
HETATM    2  C8  UNL     1       6.796  -6.367   1.723  1.00  0.00     0.127 C 
HETATM    3  N5  UNL     1       7.257  -6.874   0.617  1.00  0.00    -0.286 N 
ATOM      4  H5  UNL     1       7.961  -6.421   0.034  1.00  0.00     0.188 HD
HETATM    5  N6  UNL     1       6.682  -8.098   0.323  1.00  0.00    -0.279 N 
HETATM    6  C13 UNL     1       5.574  -8.316   1.181  1.00  0.00     0.228 C 
ENDROOT
BRANCH   1   7
HETATM    7  C5  UNL     1       6.290  -7.932   3.513  1.00  0.00    -0.010 A 
HETATM    8  C4  UNL     1       6.235  -9.334   3.612  1.00  0.00     0.097 A 
HETATM    9  N1  UNL     1       6.663  -9.998   4.698  1.00  0.00    -0.366 N 
HETATM   10  C3  UNL     1       7.172  -9.352   5.763  1.00  0.00     0.047 A 
ATOM     11  H1  UNL     1       6.600 -11.016   4.717  1.00  0.00     0.165 HD
HETATM   12  C18 UNL     1       7.229  -7.983   5.681  1.00  0.00     0.139 A 
HETATM   13  C17 UNL     1       6.801  -7.258   4.584  1.00  0.00     0.054 A 
HETATM   14  F2  UNL     1       7.735  -7.252   6.729  1.00  0.00    -0.204 F 
BRANCH  10  15
HETATM   15  C2  UNL     1       7.649 -10.091   6.976  1.00  0.00     0.056 C 
HETATM   16  C1  UNL     1       9.138 -10.335   6.921  1.00  0.00     0.011 C 
ENDBRANCH  10  15
ENDBRANCH   1   7
BRANCH   1  17
HETATM   17  C7  UNL     1       4.554  -6.499   2.474  1.00  0.00     0.197 C 
HETATM   18  O1  UNL     1       4.385  -5.470   1.773  1.00  0.00    -0.647 OA
HETATM   19  O2  UNL     1       3.577  -6.825   3.363  1.00  0.00    -0.647 OA
ENDBRANCH   1  17
BRANCH   2  20
HETATM   20  N2  UNL     1       7.274  -5.134   2.193  1.00  0.00    -0.294 N 
HETATM   21  C9  UNL     1       8.515  -4.510   2.027  1.00  0.00     0.339 C 
HETATM   22  O3  UNL     1       9.517  -4.911   1.398  1.00  0.00    -0.245 OA
HETATM   23  N3  UNL     1       8.721  -3.215   2.655  1.00  0.00    -0.258 N 
ATOM     24  H3  UNL     1       7.970  -2.788   3.198  1.00  0.00     0.191 HD
ATOM     25  H2  UNL     1       6.604  -4.603   2.749  1.00  0.00     0.172 HD
BRANCH  23  26
HETATM   26  N4  UNL     1       9.923  -2.565   2.518  1.00  0.00    -0.341 N 
ATOM     27  H42 UNL     1       9.930  -1.615   2.147  1.00  0.00     0.177 HD
ATOM     28  H41 UNL     1      10.790  -3.030   2.787  1.00  0.00     0.177 HD
ENDBRANCH  23  26
ENDBRANCH   2  20
BRANCH   6  29
HETATM   29  C14 UNL     1       4.237  -8.101   0.549  1.00  0.00     0.249 C 
HETATM   30  O7  UNL     1       4.273  -7.552  -0.574  1.00  0.00    -0.271 OA
HETATM   31  N8  UNL     1       3.041  -8.491   1.175  1.00  0.00    -0.310 N 
ATOM     32  H8  UNL     1       3.137  -8.935   2.088  1.00  0.00     0.170 HD
BRANCH  31  33
HETATM   33  C15 UNL     1       1.747  -8.345   0.702  1.00  0.00     0.150 C 
HETATM   34  N9  UNL     1       1.600  -8.411  -0.625  1.00  0.00    -0.384 N 
ATOM     35  H92 UNL     1       2.442  -8.559  -1.182  1.00  0.00     0.157 HD
ATOM     36  H91 UNL     1       0.647  -8.304  -0.972  1.00  0.00     0.157 HD
BRANCH  33  37
HETATM   37  C16 UNL     1       0.536  -8.132   1.505  1.00  0.00     0.314 C 
HETATM   38  F1  UNL     1       0.780  -7.949   2.852  1.00  0.00    -0.198 F 
HETATM   39 CL1  UNL     1      -0.495  -9.620   1.381  1.00  0.00    -0.058 Cl
HETATM   40 CL2  UNL     1      -0.484  -6.814   0.859  1.00  0.00    -0.058 Cl
ENDBRANCH  33  37
ENDBRANCH  31  33
ENDBRANCH   6  29
BRANCH   5  41
HETATM   41  C10 UNL     1       7.224  -8.990  -0.714  1.00  0.00     0.277 C 
BRANCH  41  42
HETATM   42  O4  UNL     1       6.257  -9.794  -1.257  1.00  0.00    -0.373 OA
ATOM     43  H4  UNL     1       6.560 -10.236  -2.042  1.00  0.00     0.212 HD
ENDBRANCH  41  42
BRANCH  41  44
HETATM   44  C11 UNL     1       8.269  -9.912  -0.107  1.00  0.00     0.332 C 
BRANCH  44  45
HETATM   45  N7  UNL     1       9.467 -10.009  -0.887  1.00  0.00    -0.061 N 
ATOM     46  H73 UNL     1      10.067  -9.199  -0.729  1.00  0.00     0.275 HD
ATOM     47  H72 UNL     1      10.076 -10.743  -0.525  1.00  0.00     0.275 HD
ATOM     48  H71 UNL     1       9.294 -10.141  -1.883  1.00  0.00     0.275 HD
ENDBRANCH  44  45
BRANCH  44  49
HETATM   49  C12 UNL     1       7.648 -11.256   0.013  1.00  0.00     0.209 C 
HETATM   50  O5  UNL     1       7.129 -11.615   1.112  1.00  0.00    -0.646 OA
HETATM   51  O6  UNL     1       7.625 -12.134  -1.067  1.00  0.00    -0.646 OA
ENDBRANCH  44  49
ENDBRANCH  41  44
ENDBRANCH   5  41
TORSDOF 13
ENDMDL
MODEL 3
REMARK VINA RESULT: -5.830806306      7.525     10.464
REMARK  13 active torsions:
REMARK  status: ('A' for Active; 'I' for Inactive)
REMARK    1  A    between atoms: C2_2  and  C3_3 
REMARK    2  A    between atoms: C5_7  and  C6_8 
REMARK    3  A    between atoms: C6_8  and  C7_9 
REMARK    4  A    between atoms: C8_12  and  N2_13 
REMARK       I    between atoms: N2_13  and  C9_15 
REMARK       I    between atoms: C9_15  and  N3_17 
REMARK    5  A    between atoms: N3_17  and  N4_19 
REMARK    6  A    between atoms: N6_24  and  C10_25 
REMARK    7  A    between atoms: C10_25  and  O4_26 
REMARK    8  A    between atoms: C10_25  and  C11_28 
REMARK    9  A    between atoms: C11_28  and  N7_29 
REMARK   10  A    between atoms: C11_28  and  C12_33 
REMARK   11  A    between atoms: C13_36  and  C14_37 
REMARK       I    between atoms: C14_37  and  N8_39 
REMARK   12  A    between atoms: N8_39  and  C15_41 
REMARK   13  A    between atoms: C15_41  and  C16_45 
ROOT
HETATM    1  C6  UNL     1       3.056  -8.538   2.998  1.00  0.00     0.167 C 
HETATM    2  C8  UNL     1       3.445  -9.951   2.704  1.00  0.00     0.127 C 
HETATM    3  N5  UNL     1       4.313  -9.967   1.736  1.00  0.00    -0.286 N 
ATOM      4  H5  UNL     1       4.731 -10.819   1.361  1.00  0.00     0.188 HD
HETATM    5  N6  UNL     1       4.604  -8.696   1.273  1.00  0.00    -0.279 N 
HETATM    6  C13 UNL     1       4.063  -7.736   2.163  1.00  0.00     0.228 C 
ENDROOT
BRANCH   1   7
HETATM    7  C5  UNL     1       1.688  -8.277   2.566  1.00  0.00    -0.010 A 
HETATM    8  C4  UNL     1       1.474  -7.403   1.485  1.00  0.00     0.097 A 
HETATM    9  N1  UNL     1       0.245  -7.091   1.042  1.00  0.00    -0.366 N 
HETATM   10  C3  UNL     1      -0.861  -7.602   1.613  1.00  0.00     0.047 A 
ATOM     11  H1  UNL     1       0.147  -6.451   0.254  1.00  0.00     0.165 HD
HETATM   12  C18 UNL     1      -0.667  -8.455   2.670  1.00  0.00     0.139 A 
HETATM   13  C17 UNL     1       0.578  -8.805   3.161  1.00  0.00     0.054 A 
HETATM   14  F2  UNL     1      -1.747  -9.018   3.307  1.00  0.00    -0.204 F 
BRANCH  10  15
HETATM   15  C2  UNL     1      -2.232  -7.255   1.120  1.00  0.00     0.056 C 
HETATM   16  C1  UNL     1      -2.276  -5.856   0.554  1.00  0.00     0.011 C 
ENDBRANCH  10  15
ENDBRANCH   1   7
BRANCH   1  17
HETATM   17  C7  UNL     1       3.326  -8.329   4.425  1.00  0.00     0.197 C 
HETATM   18  O1  UNL     1       3.960  -9.204   5.068  1.00  0.00    -0.647 OA
HETATM   19  O2  UNL     1       2.921  -7.219   5.101  1.00  0.00    -0.647 OA
ENDBRANCH   1  17
BRANCH   2  20
HETATM   20  N2  UNL     1       3.014 -11.151   3.292  1.00  0.00    -0.294 N 
HETATM   21  C9  UNL     1       3.667 -12.377   3.456  1.00  0.00     0.339 C 
HETATM   22  O3  UNL     1       4.824 -12.700   3.116  1.00  0.00    -0.245 OA
HETATM   23  N3  UNL     1       2.944 -13.457   4.105  1.00  0.00    -0.258 N 
ATOM     24  H3  UNL     1       1.987 -13.309   4.426  1.00  0.00     0.191 HD
ATOM     25  H2  UNL     1       2.063 -11.124   3.662  1.00  0.00     0.172 HD
BRANCH  23  26
HETATM   26  N4  UNL     1       3.546 -14.678   4.289  1.00  0.00    -0.341 N 
ATOM     27  H42 UNL     1       3.944 -15.158   3.481  1.00  0.00     0.177 HD
ATOM     28  H41 UNL     1       3.591 -15.092   5.219  1.00  0.00     0.177 HD
ENDBRANCH  23  26
ENDBRANCH   2  20
BRANCH   6  29
HETATM   29  C14 UNL     1       5.058  -7.089   3.072  1.00  0.00     0.249 C 
HETATM   30  O7  UNL     1       6.083  -7.769   3.291  1.00  0.00    -0.271 OA
HETATM   31  N8  UNL     1       4.849  -5.815   3.627  1.00  0.00    -0.310 N 
ATOM     32  H8  UNL     1       3.976  -5.352   3.371  1.00  0.00     0.170 HD
BRANCH  31  33
HETATM   33  C15 UNL     1       5.683  -5.111   4.480  1.00  0.00     0.150 C 
HETATM   34  N9  UNL     1       5.884  -5.659   5.682  1.00  0.00    -0.384 N 
ATOM     35  H92 UNL     1       5.413  -6.543   5.879  1.00  0.00     0.157 HD
ATOM     36  H91 UNL     1       6.498  -5.141   6.310  1.00  0.00     0.157 HD
BRANCH  33  37
HETATM   37  C16 UNL     1       6.361  -3.839   4.196  1.00  0.00     0.314 C 
HETATM   38  F1  UNL     1       5.584  -2.930   3.507  1.00  0.00    -0.198 F 
HETATM   39 CL1  UNL     1       7.789  -4.186   3.132  1.00  0.00    -0.058 Cl
HETATM   40 CL2  UNL     1       7.055  -3.097   5.666  1.00  0.00    -0.058 Cl
ENDBRANCH  33  37
ENDBRANCH  31  33
ENDBRANCH   6  29
BRANCH   5  41
HETATM   41  C10 UNL     1       5.339  -8.468   0.018  1.00  0.00     0.277 C 
BRANCH  41  42
HETATM   42  O4  UNL     1       4.774  -9.138  -1.036  1.00  0.00    -0.373 OA
ATOM     43  H4  UNL     1       5.048  -8.781  -1.873  1.00  0.00     0.212 HD
ENDBRANCH  41  42
BRANCH  41  44
HETATM   44  C11 UNL     1       6.762  -8.985   0.151  1.00  0.00     0.332 C 
BRANCH  44  45
HETATM   45  N7  UNL     1       7.692  -7.987   0.592  1.00  0.00    -0.061 N 
ATOM     46  H73 UNL     1       8.641  -8.229   0.308  1.00  0.00     0.275 HD
ATOM     47  H72 UNL     1       7.572  -7.123   0.064  1.00  0.00     0.275 HD
ATOM     48  H71 UNL     1       7.649  -7.807   1.596  1.00  0.00     0.275 HD
ENDBRANCH  44  45
BRANCH  44  49
HETATM   49  C12 UNL     1       7.171  -9.486  -1.185  1.00  0.00     0.209 C 
HETATM   50  O5  UNL     1       7.084 -10.723  -1.448  1.00  0.00    -0.646 OA
HETATM   51  O6  UNL     1       7.653  -8.617  -2.160  1.00  0.00    -0.646 OA
ENDBRANCH  44  49
ENDBRANCH  41  44
ENDBRANCH   5  41
TORSDOF 13
ENDMDL
MODEL 4
REMARK VINA RESULT: -5.805009733      1.159      1.306
REMARK  13 active torsions:
REMARK  status: ('A' for Active; 'I' for Inactive)
REMARK    1  A    between atoms: C2_2  and  C3_3 
REMARK    2  A    between atoms: C5_7  and  C6_8 
REMARK    3  A    between atoms: C6_8  and  C7_9 
REMARK    4  A    between atoms: C8_12  and  N2_13 
REMARK       I    between atoms: N2_13  and  C9_15 
REMARK       I    between atoms: C9_15  and  N3_17 
REMARK    5  A    between atoms: N3_17  and  N4_19 
REMARK    6  A    between atoms: N6_24  and  C10_25 
REMARK    7  A    between atoms: C10_25  and  O4_26 
REMARK    8  A    between atoms: C10_25  and  C11_28 
REMARK    9  A    between atoms: C11_28  and  N7_29 
REMARK   10  A    between atoms: C11_28  and  C12_33 
REMARK   11  A    between atoms: C13_36  and  C14_37 
REMARK       I    between atoms: C14_37  and  N8_39 
REMARK   12  A    between atoms: N8_39  and  C15_41 
REMARK   13  A    between atoms: C15_41  and  C16_45 
ROOT
HETATM    1  C6  UNL     1      -6.207  -8.537   2.399  1.00  0.00     0.167 C 
HETATM    2  C8  UNL     1      -5.689  -9.405   1.297  1.00  0.00     0.127 C 
HETATM    3  N5  UNL     1      -4.459  -9.077   1.031  1.00  0.00    -0.286 N 
ATOM      4  H5  UNL     1      -3.891  -9.533   0.317  1.00  0.00     0.188 HD
HETATM    5  N6  UNL     1      -4.010  -8.038   1.827  1.00  0.00    -0.279 N 
HETATM    6  C13 UNL     1      -4.941  -7.811   2.873  1.00  0.00     0.228 C 
ENDROOT
BRANCH   1   7
HETATM    7  C5  UNL     1      -7.197  -7.593   1.893  1.00  0.00    -0.010 A 
HETATM    8  C4  UNL     1      -7.069  -6.233   2.230  1.00  0.00     0.097 A 
HETATM    9  N1  UNL     1      -7.952  -5.304   1.826  1.00  0.00    -0.366 N 
HETATM   10  C3  UNL     1      -9.017  -5.626   1.070  1.00  0.00     0.047 A 
ATOM     11  H1  UNL     1      -7.811  -4.332   2.099  1.00  0.00     0.165 HD
HETATM   12  C18 UNL     1      -9.154  -6.951   0.736  1.00  0.00     0.139 A 
HETATM   13  C17 UNL     1      -8.272  -7.941   1.128  1.00  0.00     0.054 A 
HETATM   14  F2  UNL     1     -10.217  -7.359  -0.034  1.00  0.00    -0.204 F 
BRANCH  10  15
HETATM   15  C2  UNL     1     -10.002  -4.592   0.618  1.00  0.00     0.056 C 
HETATM   16  C1  UNL     1     -10.918  -4.175   1.744  1.00  0.00     0.011 C 
ENDBRANCH  10  15
ENDBRANCH   1   7
BRANCH   1  17
HETATM   17  C7  UNL     1      -6.671  -9.448   3.451  1.00  0.00     0.197 C 
HETATM   18  O1  UNL     1      -6.405 -10.674   3.368  1.00  0.00    -0.647 OA
HETATM   19  O2  UNL     1      -7.387  -9.029   4.530  1.00  0.00    -0.647 OA
ENDBRANCH   1  17
BRANCH   2  20
HETATM   20  N2  UNL     1      -6.323 -10.430   0.577  1.00  0.00    -0.294 N 
HETATM   21  C9  UNL     1      -6.286 -10.751  -0.784  1.00  0.00     0.339 C 
HETATM   22  O3  UNL     1      -5.656 -10.191  -1.705  1.00  0.00    -0.245 OA
HETATM   23  N3  UNL     1      -7.072 -11.885  -1.242  1.00  0.00    -0.258 N 
ATOM     24  H3  UNL     1      -7.630 -12.419  -0.576  1.00  0.00     0.191 HD
ATOM     25  H2  UNL     1      -6.910 -11.044   1.142  1.00  0.00     0.172 HD
BRANCH  23  26
HETATM   26  N4  UNL     1      -7.066 -12.238  -2.569  1.00  0.00    -0.341 N 
ATOM     27  H42 UNL     1      -6.319 -12.840  -2.916  1.00  0.00     0.177 HD
ATOM     28  H41 UNL     1      -7.799 -11.901  -3.192  1.00  0.00     0.177 HD
ENDBRANCH  23  26
ENDBRANCH   2  20
BRANCH   6  29
HETATM   29  C14 UNL     1      -4.531  -8.346   4.207  1.00  0.00     0.249 C 
HETATM   30  O7  UNL     1      -3.737  -9.311   4.160  1.00  0.00    -0.271 OA
HETATM   31  N8  UNL     1      -5.004  -7.799   5.412  1.00  0.00    -0.310 N 
ATOM     32  H8  UNL     1      -5.644  -7.008   5.324  1.00  0.00     0.170 HD
BRANCH  31  33
HETATM   33  C15 UNL     1      -4.708  -8.201   6.704  1.00  0.00     0.150 C 
HETATM   34  N9  UNL     1      -5.212  -9.381   7.076  1.00  0.00    -0.384 N 
ATOM     35  H92 UNL     1      -5.773  -9.889   6.391  1.00  0.00     0.157 HD
ATOM     36  H91 UNL     1      -4.994  -9.677   8.027  1.00  0.00     0.157 HD
BRANCH  33  37
HETATM   37  C16 UNL     1      -3.902  -7.470   7.690  1.00  0.00     0.314 C 
HETATM   38  F1  UNL     1      -3.956  -6.097   7.552  1.00  0.00    -0.198 F 
HETATM   39 CL1  UNL     1      -2.162  -7.929   7.451  1.00  0.00    -0.058 Cl
HETATM   40 CL2  UNL     1      -4.277  -7.956   9.368  1.00  0.00    -0.058 Cl
ENDBRANCH  33  37
ENDBRANCH  31  33
ENDBRANCH   6  29
BRANCH   5  41
HETATM   41  C10 UNL     1      -2.763  -7.312   1.539  1.00  0.00     0.277 C 
BRANCH  41  42
HETATM   42  O4  UNL     1      -2.829  -6.629   0.353  1.00  0.00    -0.373 OA
ATOM     43  H4  UNL     1      -3.230  -5.774   0.456  1.00  0.00     0.212 HD
ENDBRANCH  41  42
BRANCH  41  44
HETATM   44  C11 UNL     1      -1.610  -8.295   1.414  1.00  0.00     0.332 C 
BRANCH  44  45
HETATM   45  N7  UNL     1      -1.285  -8.953   2.644  1.00  0.00    -0.061 N 
ATOM     46  H73 UNL     1      -1.969  -8.726   3.366  1.00  0.00     0.275 HD
ATOM     47  H72 UNL     1      -1.445  -9.957   2.570  1.00  0.00     0.275 HD
ATOM     48  H71 UNL     1      -0.338  -8.761   2.969  1.00  0.00     0.275 HD
ENDBRANCH  44  45
BRANCH  44  49
HETATM   49  C12 UNL     1      -0.432  -7.527   0.937  1.00  0.00     0.209 C 
HETATM   50  O5  UNL     1       0.468  -7.179   1.759  1.00  0.00    -0.646 OA
HETATM   51  O6  UNL     1      -0.297  -7.179  -0.404  1.00  0.00    -0.646 OA
ENDBRANCH  44  49
ENDBRANCH  41  44
ENDBRANCH   5  41
TORSDOF 13
ENDMDL
MODEL 5
REMARK VINA RESULT: -5.746202679      8.687     13.448
REMARK  13 active torsions:
REMARK  status: ('A' for Active; 'I' for Inactive)
REMARK    1  A    between atoms: C2_2  and  C3_3 
REMARK    2  A    between atoms: C5_7  and  C6_8 
REMARK    3  A    between atoms: C6_8  and  C7_9 
REMARK    4  A    between atoms: C8_12  and  N2_13 
REMARK       I    between atoms: N2_13  and  C9_15 
REMARK       I    between atoms: C9_15  and  N3_17 
REMARK    5  A    between atoms: N3_17  and  N4_19 
REMARK    6  A    between atoms: N6_24  and  C10_25 
REMARK    7  A    between atoms: C10_25  and  O4_26 
REMARK    8  A    between atoms: C10_25  and  C11_28 
REMARK    9  A    between atoms: C11_28  and  N7_29 
REMARK   10  A    between atoms: C11_28  and  C12_33 
REMARK   11  A    between atoms: C13_36  and  C14_37 
REMARK       I    between atoms: C14_37  and  N8_39 
REMARK   12  A    between atoms: N8_39  and  C15_41 
REMARK   13  A    between atoms: C15_41  and  C16_45 
ROOT
HETATM    1  C6  UNL     1       5.515  -7.435   2.120  1.00  0.00     0.167 C 
HETATM    2  C8  UNL     1       6.634  -6.775   1.379  1.00  0.00     0.127 C 
HETATM    3  N5  UNL     1       6.975  -7.514   0.364  1.00  0.00    -0.286 N 
ATOM      4  H5  UNL     1       7.714  -7.269  -0.295  1.00  0.00     0.188 HD
HETATM    5  N6  UNL     1       6.219  -8.670   0.282  1.00  0.00    -0.279 N 
HETATM    6  C13 UNL     1       5.125  -8.582   1.179  1.00  0.00     0.228 C 
ENDROOT
BRANCH   1   7
HETATM    7  C5  UNL     1       5.976  -7.942   3.407  1.00  0.00    -0.010 A 
HETATM    8  C4  UNL     1       5.832  -9.314   3.685  1.00  0.00     0.097 A 
HETATM    9  N1  UNL     1       6.207  -9.856   4.855  1.00  0.00    -0.366 N 
HETATM   10  C3  UNL     1       6.746  -9.111   5.836  1.00  0.00     0.047 A 
ATOM     11  H1  UNL     1       6.079 -10.857   5.003  1.00  0.00     0.165 HD
HETATM   12  C18 UNL     1       6.891  -7.770   5.579  1.00  0.00     0.139 A 
HETATM   13  C17 UNL     1       6.520  -7.168   4.391  1.00  0.00     0.054 A 
HETATM   14  F2  UNL     1       7.435  -6.942   6.532  1.00  0.00    -0.204 F 
BRANCH  10  15
HETATM   15  C2  UNL     1       7.166  -9.715   7.141  1.00  0.00     0.056 C 
HETATM   16  C1  UNL     1       6.070  -9.608   8.174  1.00  0.00     0.011 C 
ENDBRANCH  10  15
ENDBRANCH   1   7
BRANCH   1  17
HETATM   17  C7  UNL     1       4.427  -6.452   2.172  1.00  0.00     0.197 C 
HETATM   18  O1  UNL     1       4.500  -5.410   1.473  1.00  0.00    -0.647 OA
HETATM   19  O2  UNL     1       3.322  -6.613   2.953  1.00  0.00    -0.647 OA
ENDBRANCH   1  17
BRANCH   2  20
HETATM   20  N2  UNL     1       7.302  -5.567   1.634  1.00  0.00    -0.294 N 
HETATM   21  C9  UNL     1       8.664  -5.291   1.795  1.00  0.00     0.339 C 
HETATM   22  O3  UNL     1       9.635  -6.074   1.740  1.00  0.00    -0.245 OA
HETATM   23  N3  UNL     1       9.057  -3.918   2.067  1.00  0.00    -0.258 N 
ATOM     24  H3  UNL     1       8.347  -3.190   2.136  1.00  0.00     0.191 HD
ATOM     25  H2  UNL     1       6.692  -4.754   1.717  1.00  0.00     0.172 HD
BRANCH  23  26
HETATM   26  N4  UNL     1      10.383  -3.599   2.231  1.00  0.00    -0.341 N 
ATOM     27  H42 UNL     1      10.731  -3.406   3.171  1.00  0.00     0.177 HD
ATOM     28  H41 UNL     1      11.004  -3.558   1.424  1.00  0.00     0.177 HD
ENDBRANCH  23  26
ENDBRANCH   2  20
BRANCH   6  29
HETATM   29  C14 UNL     1       3.810  -8.275   0.539  1.00  0.00     0.249 C 
HETATM   30  O7  UNL     1       3.890  -7.695  -0.566  1.00  0.00    -0.271 OA
HETATM   31  N8  UNL     1       2.586  -8.617   1.139  1.00  0.00    -0.310 N 
ATOM     32  H8  UNL     1       2.646  -9.094   2.039  1.00  0.00     0.170 HD
BRANCH  31  33
HETATM   33  C15 UNL     1       1.308  -8.387   0.657  1.00  0.00     0.150 C 
HETATM   34  N9  UNL     1       1.159  -8.481  -0.668  1.00  0.00    -0.384 N 
ATOM     35  H92 UNL     1       1.988  -8.710  -1.218  1.00  0.00     0.157 HD
ATOM     36  H91 UNL     1       0.218  -8.311  -1.022  1.00  0.00     0.157 HD
BRANCH  33  37
HETATM   37  C16 UNL     1       0.115  -8.056   1.448  1.00  0.00     0.314 C 
HETATM   38  F1  UNL     1       0.362  -7.901   2.798  1.00  0.00    -0.198 F 
HETATM   39 CL1  UNL     1      -1.056  -9.436   1.309  1.00  0.00    -0.058 Cl
HETATM   40 CL2  UNL     1      -0.762  -6.643   0.796  1.00  0.00    -0.058 Cl
ENDBRANCH  33  37
ENDBRANCH  31  33
ENDBRANCH   6  29
BRANCH   5  41
HETATM   41  C10 UNL     1       6.588  -9.786  -0.604  1.00  0.00     0.277 C 
BRANCH  41  42
HETATM   42  O4  UNL     1       7.100 -10.848   0.094  1.00  0.00    -0.373 OA
ATOM     43  H4  UNL     1       8.016 -11.000  -0.110  1.00  0.00     0.212 HD
ENDBRANCH  41  42
BRANCH  41  44
HETATM   44  C11 UNL     1       7.669  -9.339  -1.575  1.00  0.00     0.332 C 
BRANCH  44  45
HETATM   45  N7  UNL     1       7.177  -9.071  -2.893  1.00  0.00    -0.061 N 
ATOM     46  H73 UNL     1       7.941  -9.064  -3.569  1.00  0.00     0.275 HD
ATOM     47  H72 UNL     1       6.645  -9.865  -3.248  1.00  0.00     0.275 HD
ATOM     48  H71 UNL     1       6.630  -8.212  -2.956  1.00  0.00     0.275 HD
ENDBRANCH  44  45
BRANCH  44  49
HETATM   49  C12 UNL     1       8.678 -10.427  -1.635  1.00  0.00     0.209 C 
HETATM   50  O5  UNL     1       9.818 -10.260  -1.108  1.00  0.00    -0.646 OA
HETATM   51  O6  UNL     1       8.392 -11.636  -2.264  1.00  0.00    -0.646 OA
ENDBRANCH  44  49
ENDBRANCH  41  44
ENDBRANCH   5  41
TORSDOF 13
ENDMDL
