MODEL 1
REMARK VINA RESULT: -7.784009188      0.000      0.000
REMARK  14 active torsions:
REMARK  status: ('A' for Active; 'I' for Inactive)
REMARK    1  A    between atoms: C2_2  and  N1_3 
REMARK    2  A    between atoms: C4_8  and  N3_9 
REMARK    3  A    between atoms: N3_9  and  C5_11 
REMARK    4  A    between atoms: C5_11  and  C6_12 
REMARK    5  A    between atoms: C7_18  and  N5_19 
REMARK    6  A    between atoms: N5_19  and  C8_20 
REMARK    7  A    between atoms: C9_21  and  N6_22 
REMARK    8  A    between atoms: C12_28  and  C13_29 
REMARK    9  A    between atoms: C12_28  and  N7_32 
REMARK   10  A    between atoms: C16_34  and  C17_35 
REMARK   11  A    between atoms: C17_35  and  N8_36 
REMARK   12  A    between atoms: N8_36  and  C18_38 
REMARK   13  A    between atoms: C19_44  and  N11_45 
REMARK   14  A    between atoms: C20_52  and  O3_53 
ROOT
HETATM    1  C8  UNL     1       5.600  -6.948   2.320  1.00  0.00     0.237 C 
HETATM    2  C9  UNL     1       6.207  -8.302   2.218  1.00  0.00     0.295 C 
HETATM    3  C11 UNL     1       5.286  -9.072   1.357  1.00  0.00     0.197 C 
HETATM    4  O1  UNL     1       5.092 -10.256   1.437  1.00  0.00    -0.292 OA
HETATM    5  C12 UNL     1       4.692  -8.111   0.425  1.00  0.00     0.165 C 
HETATM    6  C20 UNL     1       4.904  -6.761   0.955  1.00  0.00     0.198 C 
ENDROOT
BRANCH   5   7
HETATM    7  C13 UNL     1       5.240  -8.377  -0.927  1.00  0.00     0.046 C 
HETATM    8  C14 UNL     1       6.311  -9.040  -1.252  1.00  0.00     0.187 C 
HETATM    9  F4  UNL     1       6.692  -9.203  -2.525  1.00  0.00    -0.220 F 
ENDBRANCH   5   7
BRANCH   5  10
HETATM   10  N7  UNL     1       3.245  -8.324   0.273  1.00  0.00    -0.263 N 
HETATM   11  C15 UNL     1       2.299  -8.402   1.211  1.00  0.00     0.145 A 
HETATM   12  C16 UNL     1       1.119  -8.641   0.545  1.00  0.00     0.082 A 
HETATM   13  N12 UNL     1       1.429  -8.692  -0.781  1.00  0.00    -0.284 N 
HETATM   14  N13 UNL     1       2.706  -8.503  -0.934  1.00  0.00    -0.239 N 
ATOM     15  H12 UNL     1       0.763  -8.854  -1.536  1.00  0.00     0.188 HD
ATOM     16  H13 UNL     1       3.208  -8.494  -1.821  1.00  0.00     0.208 HD
BRANCH  12  17
HETATM   17  C17 UNL     1      -0.247  -8.771   1.086  1.00  0.00     0.122 C 
BRANCH  17  18
HETATM   18  N8  UNL     1      -0.848  -7.592   1.497  1.00  0.00    -0.345 N 
ATOM     19  H8  UNL     1      -0.462  -7.330   2.405  1.00  0.00     0.167 HD
BRANCH  18  20
HETATM   20  C18 UNL     1      -1.679  -6.746   1.165  1.00  0.00     0.173 A 
HETATM   21  N9  UNL     1      -1.570  -5.633   0.416  1.00  0.00    -0.222 N 
HETATM   22  O2  UNL     1      -2.749  -5.074   0.331  1.00  0.00    -0.153 OA
ATOM     23  H9  UNL     1      -0.713  -5.285  -0.014  1.00  0.00     0.198 HD
HETATM   24  N10 UNL     1      -3.631  -5.776   0.998  1.00  0.00    -0.222 N 
HETATM   25  C19 UNL     1      -3.050  -6.822   1.542  1.00  0.00     0.167 A 
ATOM     26  H10 UNL     1      -4.620  -5.545   1.083  1.00  0.00     0.198 HD
BRANCH  25  27
HETATM   27  N11 UNL     1      -3.615  -7.721   2.261  1.00  0.00    -0.381 N 
ATOM     28 2H11 UNL     1      -4.167  -7.564   3.103  1.00  0.00     0.157 HD
ATOM     29 1H11 UNL     1      -3.611  -8.730   2.113  1.00  0.00     0.157 HD
ENDBRANCH  25  27
ENDBRANCH  18  20
ENDBRANCH  17  18
ENDBRANCH  12  17
ENDBRANCH   5  10
BRANCH   6  30
HETATM   30  O3  UNL     1       5.742  -5.924   0.244  1.00  0.00    -0.389 OA
ATOM     31  H3  UNL     1       5.428  -5.971  -0.651  1.00  0.00     0.210 HD
ENDBRANCH   6  30
BRANCH   2  32
HETATM   32  N6  UNL     1       6.353  -8.973   3.501  1.00  0.00    -0.065 N 
HETATM   33  C10 UNL     1       7.751  -9.050   3.842  1.00  0.00     0.268 C 
ATOM     34  H62 UNL     1       5.799  -8.529   4.234  1.00  0.00     0.277 HD
ATOM     35  H61 UNL     1       5.901  -9.887   3.513  1.00  0.00     0.277 HD
ENDBRANCH   2  32
BRANCH   1  36
HETATM   36  N5  UNL     1       6.326  -5.866   2.703  1.00  0.00    -0.404 NA
BRANCH  36  37
HETATM   37  C7  UNL     1       6.945  -5.038   3.275  1.00  0.00     0.283 A 
HETATM   38  N4  UNL     1       7.829  -4.245   2.583  1.00  0.00    -0.148 N 
HETATM   39  C4  UNL     1       8.563  -3.287   3.176  1.00  0.00     0.696 A 
ATOM     40  H4  UNL     1       7.933  -4.390   1.579  1.00  0.00     0.188 HD
HETATM   41  N2  UNL     1       8.422  -3.104   4.496  1.00  0.00    -0.022 N 
HETATM   42  C3  UNL     1       7.554  -3.866   5.245  1.00  0.00     0.696 A 
ATOM     43  H2  UNL     1       8.972  -2.380   4.958  1.00  0.00     0.203 HD
HETATM   44  N1  UNL     1       7.471  -3.632   6.465  1.00  0.00    -0.226 N 
HETATM   45  N14 UNL     1       6.849  -4.803   4.597  1.00  0.00    -0.148 N 
ATOM     46  H1  UNL     1       8.079  -2.876   6.777  1.00  0.00     0.177 HD
ATOM     47  H14 UNL     1       6.199  -5.374   5.138  1.00  0.00     0.188 HD
BRANCH  39  48
HETATM   48  N3  UNL     1       9.398  -2.548   2.506  1.00  0.00    -0.217 N 
ATOM     49  H3  UNL     1       9.024  -1.736   2.014  1.00  0.00     0.178 HD
BRANCH  48  50
HETATM   50  C5  UNL     1      10.802  -2.792   2.412  1.00  0.00     0.255 C 
BRANCH  50  51
HETATM   51  C6  UNL     1      11.159  -3.792   1.324  1.00  0.00     0.403 C 
HETATM   52  F1  UNL     1      12.354  -3.417   0.714  1.00  0.00    -0.169 F 
HETATM   53  F2  UNL     1      11.203  -5.076   1.811  1.00  0.00    -0.169 F 
HETATM   54  F3  UNL     1      10.204  -3.768   0.329  1.00  0.00    -0.169 F 
ENDBRANCH  50  51
ENDBRANCH  48  50
ENDBRANCH  39  48
BRANCH  44  55
HETATM   55  C2  UNL     1       6.705  -4.202   7.503  1.00  0.00     0.133 C 
HETATM   56  C1  UNL     1       7.071  -3.818   8.892  1.00  0.00     0.027 C 
ENDBRANCH  44  55
ENDBRANCH  36  37
ENDBRANCH   1  36
TORSDOF 14
ENDMDL
MODEL 2
REMARK VINA RESULT: -7.517584719      0.671      1.011
REMARK  14 active torsions:
REMARK  status: ('A' for Active; 'I' for Inactive)
REMARK    1  A    between atoms: C2_2  and  N1_3 
REMARK    2  A    between atoms: C4_8  and  N3_9 
REMARK    3  A    between atoms: N3_9  and  C5_11 
REMARK    4  A    between atoms: C5_11  and  C6_12 
REMARK    5  A    between atoms: C7_18  and  N5_19 
REMARK    6  A    between atoms: N5_19  and  C8_20 
REMARK    7  A    between atoms: C9_21  and  N6_22 
REMARK    8  A    between atoms: C12_28  and  C13_29 
REMARK    9  A    between atoms: C12_28  and  N7_32 
REMARK   10  A    between atoms: C16_34  and  C17_35 
REMARK   11  A    between atoms: C17_35  and  N8_36 
REMARK   12  A    between atoms: N8_36  and  C18_38 
REMARK   13  A    between atoms: C19_44  and  N11_45 
REMARK   14  A    between atoms: C20_52  and  O3_53 
ROOT
HETATM    1  C8  UNL     1       5.624  -7.032   2.373  1.00  0.00     0.237 C 
HETATM    2  C9  UNL     1       6.204  -8.395   2.245  1.00  0.00     0.295 C 
HETATM    3  C11 UNL     1       5.246  -9.144   1.406  1.00  0.00     0.197 C 
HETATM    4  O1  UNL     1       5.035 -10.325   1.484  1.00  0.00    -0.292 OA
HETATM    5  C12 UNL     1       4.643  -8.167   0.498  1.00  0.00     0.165 C 
HETATM    6  C20 UNL     1       4.893  -6.824   1.030  1.00  0.00     0.198 C 
ENDROOT
BRANCH   5   7
HETATM    7  C13 UNL     1       5.147  -8.433  -0.871  1.00  0.00     0.046 C 
HETATM    8  C14 UNL     1       6.191  -9.120  -1.232  1.00  0.00     0.187 C 
HETATM    9  F4  UNL     1       6.534  -9.279  -2.515  1.00  0.00    -0.220 F 
ENDBRANCH   5   7
BRANCH   5  10
HETATM   10  N7  UNL     1       3.189  -8.355   0.386  1.00  0.00    -0.263 N 
HETATM   11  C15 UNL     1       2.278  -8.492   1.350  1.00  0.00     0.145 A 
HETATM   12  C16 UNL     1       1.071  -8.670   0.715  1.00  0.00     0.082 A 
HETATM   13  N12 UNL     1       1.330  -8.627  -0.623  1.00  0.00    -0.284 N 
HETATM   14  N13 UNL     1       2.603  -8.440  -0.810  1.00  0.00    -0.239 N 
ATOM     15  H12 UNL     1       0.634  -8.727  -1.362  1.00  0.00     0.188 HD
ATOM     16  H13 UNL     1       3.072  -8.370  -1.713  1.00  0.00     0.208 HD
BRANCH  12  17
HETATM   17  C17 UNL     1      -0.276  -8.826   1.296  1.00  0.00     0.122 C 
BRANCH  17  18
HETATM   18  N8  UNL     1      -1.082  -7.699   1.264  1.00  0.00    -0.345 N 
ATOM     19  H8  UNL     1      -0.519  -6.906   0.955  1.00  0.00     0.167 HD
BRANCH  18  20
HETATM   20  C18 UNL     1      -2.231  -7.308   1.473  1.00  0.00     0.173 A 
HETATM   21  N9  UNL     1      -3.239  -7.840   2.189  1.00  0.00    -0.222 N 
HETATM   22  O2  UNL     1      -4.264  -7.032   2.124  1.00  0.00    -0.153 OA
ATOM     23  H9  UNL     1      -3.208  -8.724   2.696  1.00  0.00     0.198 HD
HETATM   24  N10 UNL     1      -3.970  -5.987   1.390  1.00  0.00    -0.222 N 
HETATM   25  C19 UNL     1      -2.735  -6.083   0.951  1.00  0.00     0.167 A 
ATOM     26  H10 UNL     1      -4.605  -5.214   1.190  1.00  0.00     0.198 HD
BRANCH  25  27
HETATM   27  N11 UNL     1      -2.122  -5.238   0.208  1.00  0.00    -0.381 N 
ATOM     28 2H11 UNL     1      -1.155  -5.299  -0.110  1.00  0.00     0.157 HD
ATOM     29 1H11 UNL     1      -2.491  -4.374  -0.189  1.00  0.00     0.157 HD
ENDBRANCH  25  27
ENDBRANCH  18  20
ENDBRANCH  17  18
ENDBRANCH  12  17
ENDBRANCH   5  10
BRANCH   6  30
HETATM   30  O3  UNL     1       5.724  -5.996   0.300  1.00  0.00    -0.389 OA
ATOM     31  H3  UNL     1       5.184  -5.680  -0.414  1.00  0.00     0.210 HD
ENDBRANCH   6  30
BRANCH   2  32
HETATM   32  N6  UNL     1       6.375  -9.077   3.519  1.00  0.00    -0.065 N 
HETATM   33  C10 UNL     1       5.289  -8.725   4.398  1.00  0.00     0.268 C 
ATOM     34  H62 UNL     1       6.471 -10.087   3.408  1.00  0.00     0.277 HD
ATOM     35  H61 UNL     1       7.287  -8.892   3.938  1.00  0.00     0.277 HD
ENDBRANCH   2  32
BRANCH   1  36
HETATM   36  N5  UNL     1       6.379  -5.965   2.742  1.00  0.00    -0.404 NA
BRANCH  36  37
HETATM   37  C7  UNL     1       6.997  -5.131   3.307  1.00  0.00     0.283 A 
HETATM   38  N4  UNL     1       7.872  -4.336   2.606  1.00  0.00    -0.148 N 
HETATM   39  C4  UNL     1       8.604  -3.371   3.191  1.00  0.00     0.696 A 
ATOM     40  H4  UNL     1       7.970  -4.484   1.602  1.00  0.00     0.188 HD
HETATM   41  N2  UNL     1       8.470  -3.184   4.511  1.00  0.00    -0.022 N 
HETATM   42  C3  UNL     1       7.613  -3.948   5.268  1.00  0.00     0.696 A 
ATOM     43  H2  UNL     1       9.020  -2.456   4.966  1.00  0.00     0.203 HD
HETATM   44  N1  UNL     1       7.536  -3.711   6.489  1.00  0.00    -0.226 N 
HETATM   45  N14 UNL     1       6.908  -4.892   4.628  1.00  0.00    -0.148 N 
ATOM     46  H1  UNL     1       8.142  -2.950   6.793  1.00  0.00     0.177 HD
ATOM     47  H14 UNL     1       6.266  -5.465   5.176  1.00  0.00     0.188 HD
BRANCH  39  48
HETATM   48  N3  UNL     1       9.430  -2.630   2.513  1.00  0.00    -0.217 N 
ATOM     49  H3  UNL     1       9.050  -1.815   2.031  1.00  0.00     0.178 HD
BRANCH  48  50
HETATM   50  C5  UNL     1      10.832  -2.876   2.396  1.00  0.00     0.255 C 
BRANCH  50  51
HETATM   51  C6  UNL     1      11.176  -3.824   1.258  1.00  0.00     0.403 C 
HETATM   52  F1  UNL     1      12.399  -3.463   0.698  1.00  0.00    -0.169 F 
HETATM   53  F2  UNL     1      11.157  -5.134   1.668  1.00  0.00    -0.169 F 
HETATM   54  F3  UNL     1      10.248  -3.701   0.245  1.00  0.00    -0.169 F 
ENDBRANCH  50  51
ENDBRANCH  48  50
ENDBRANCH  39  48
BRANCH  44  55
HETATM   55  C2  UNL     1       6.781  -4.282   7.533  1.00  0.00     0.133 C 
HETATM   56  C1  UNL     1       7.137  -3.870   8.917  1.00  0.00     0.027 C 
ENDBRANCH  44  55
ENDBRANCH  36  37
ENDBRANCH   1  36
TORSDOF 14
ENDMDL
MODEL 3
REMARK VINA RESULT: -7.507436583      2.191      3.426
REMARK  14 active torsions:
REMARK  status: ('A' for Active; 'I' for Inactive)
REMARK    1  A    between atoms: C2_2  and  N1_3 
REMARK    2  A    between atoms: C4_8  and  N3_9 
REMARK    3  A    between atoms: N3_9  and  C5_11 
REMARK    4  A    between atoms: C5_11  and  C6_12 
REMARK    5  A    between atoms: C7_18  and  N5_19 
REMARK    6  A    between atoms: N5_19  and  C8_20 
REMARK    7  A    between atoms: C9_21  and  N6_22 
REMARK    8  A    between atoms: C12_28  and  C13_29 
REMARK    9  A    between atoms: C12_28  and  N7_32 
REMARK   10  A    between atoms: C16_34  and  C17_35 
REMARK   11  A    between atoms: C17_35  and  N8_36 
REMARK   12  A    between atoms: N8_36  and  C18_38 
REMARK   13  A    between atoms: C19_44  and  N11_45 
REMARK   14  A    between atoms: C20_52  and  O3_53 
ROOT
HETATM    1  C8  UNL     1       5.394  -7.114   2.636  1.00  0.00     0.237 C 
HETATM    2  C9  UNL     1       6.039  -8.438   2.432  1.00  0.00     0.295 C 
HETATM    3  C11 UNL     1       5.169  -9.145   1.470  1.00  0.00     0.197 C 
HETATM    4  O1  UNL     1       5.004 -10.336   1.433  1.00  0.00    -0.292 OA
HETATM    5  C12 UNL     1       4.583  -8.116   0.609  1.00  0.00     0.165 C 
HETATM    6  C20 UNL     1       4.741  -6.816   1.269  1.00  0.00     0.198 C 
ENDROOT
BRANCH   5   7
HETATM    7  C13 UNL     1       5.185  -8.242  -0.741  1.00  0.00     0.046 C 
HETATM    8  C14 UNL     1       6.302  -8.814  -1.080  1.00  0.00     0.187 C 
HETATM    9  F4  UNL     1       6.729  -8.853  -2.348  1.00  0.00    -0.220 F 
ENDBRANCH   5   7
BRANCH   5  10
HETATM   10  N7  UNL     1       3.149  -8.346   0.384  1.00  0.00    -0.263 N 
HETATM   11  C15 UNL     1       2.172  -8.527   1.275  1.00  0.00     0.145 A 
HETATM   12  C16 UNL     1       1.023  -8.732   0.547  1.00  0.00     0.082 A 
HETATM   13  N12 UNL     1       1.381  -8.660  -0.766  1.00  0.00    -0.284 N 
HETATM   14  N13 UNL     1       2.658  -8.431  -0.853  1.00  0.00    -0.239 N 
ATOM     15  H12 UNL     1       0.747  -8.770  -1.557  1.00  0.00     0.188 HD
ATOM     16  H13 UNL     1       3.191  -8.332  -1.717  1.00  0.00     0.208 HD
BRANCH  12  17
HETATM   17  C17 UNL     1      -0.358  -8.939   1.022  1.00  0.00     0.122 C 
BRANCH  17  18
HETATM   18  N8  UNL     1      -0.996  -7.819   1.531  1.00  0.00    -0.345 N 
ATOM     19  H8  UNL     1      -0.696  -7.684   2.496  1.00  0.00     0.167 HD
BRANCH  18  20
HETATM   20  C18 UNL     1      -1.793  -6.927   1.239  1.00  0.00     0.173 A 
HETATM   21  N9  UNL     1      -1.648  -5.800   0.518  1.00  0.00    -0.222 N 
HETATM   22  O2  UNL     1      -2.801  -5.185   0.474  1.00  0.00    -0.153 OA
ATOM     23  H9  UNL     1      -0.785  -5.479   0.080  1.00  0.00     0.198 HD
HETATM   24  N10 UNL     1      -3.701  -5.864   1.141  1.00  0.00    -0.222 N 
HETATM   25  C19 UNL     1      -3.158  -6.951   1.644  1.00  0.00     0.167 A 
ATOM     26  H10 UNL     1      -4.677  -5.591   1.253  1.00  0.00     0.198 HD
BRANCH  25  27
HETATM   27  N11 UNL     1      -3.750  -7.842   2.349  1.00  0.00    -0.381 N 
ATOM     28 2H11 UNL     1      -4.282  -8.638   1.999  1.00  0.00     0.157 HD
ATOM     29 1H11 UNL     1      -3.786  -7.908   3.367  1.00  0.00     0.157 HD
ENDBRANCH  25  27
ENDBRANCH  18  20
ENDBRANCH  17  18
ENDBRANCH  12  17
ENDBRANCH   5  10
BRANCH   6  30
HETATM   30  O3  UNL     1       5.582  -5.898   0.670  1.00  0.00    -0.389 OA
ATOM     31  H3  UNL     1       6.457  -6.229   0.833  1.00  0.00     0.210 HD
ENDBRANCH   6  30
BRANCH   2  32
HETATM   32  N6  UNL     1       6.157  -9.223   3.652  1.00  0.00    -0.065 N 
HETATM   33  C10 UNL     1       7.537  -9.590   3.850  1.00  0.00     0.268 C 
ATOM     34  H62 UNL     1       5.765  -8.741   4.461  1.00  0.00     0.277 HD
ATOM     35  H61 UNL     1       5.538 -10.033   3.653  1.00  0.00     0.277 HD
ENDBRANCH   2  32
BRANCH   1  36
HETATM   36  N5  UNL     1       6.078  -6.057   3.144  1.00  0.00    -0.404 NA
BRANCH  36  37
HETATM   37  C7  UNL     1       6.702  -5.071   3.332  1.00  0.00     0.283 A 
HETATM   38  N4  UNL     1       6.392  -4.259   4.397  1.00  0.00    -0.148 N 
HETATM   39  C4  UNL     1       7.064  -3.124   4.664  1.00  0.00     0.696 A 
ATOM     40  H4  UNL     1       5.623  -4.528   5.010  1.00  0.00     0.188 HD
HETATM   41  N2  UNL     1       8.072  -2.777   3.853  1.00  0.00    -0.022 N 
HETATM   42  C3  UNL     1       8.430  -3.547   2.770  1.00  0.00     0.696 A 
ATOM     43  H2  UNL     1       8.589  -1.919   4.045  1.00  0.00     0.203 HD
HETATM   44  N1  UNL     1       9.383  -3.164   2.066  1.00  0.00    -0.226 N 
HETATM   45  N14 UNL     1       7.725  -4.667   2.558  1.00  0.00    -0.148 N 
ATOM     46  H1  UNL     1       9.802  -2.292   2.388  1.00  0.00     0.177 HD
ATOM     47  H14 UNL     1       7.981  -5.249   1.760  1.00  0.00     0.188 HD
BRANCH  39  48
HETATM   48  N3  UNL     1       6.755  -2.365   5.675  1.00  0.00    -0.217 N 
ATOM     49  H3  UNL     1       6.177  -1.544   5.492  1.00  0.00     0.178 HD
BRANCH  48  50
HETATM   50  C5  UNL     1       7.169  -2.600   7.021  1.00  0.00     0.255 C 
BRANCH  50  51
HETATM   51  C6  UNL     1       8.129  -1.542   7.540  1.00  0.00     0.403 C 
HETATM   52  F1  UNL     1       7.628  -0.273   7.258  1.00  0.00    -0.169 F 
HETATM   53  F2  UNL     1       8.394  -1.711   8.877  1.00  0.00    -0.169 F 
HETATM   54  F3  UNL     1       9.333  -1.628   6.873  1.00  0.00    -0.169 F 
ENDBRANCH  50  51
ENDBRANCH  48  50
ENDBRANCH  39  48
BRANCH  44  55
HETATM   55  C2  UNL     1      10.001  -3.693   0.914  1.00  0.00     0.133 C 
HETATM   56  C1  UNL     1      11.476  -3.874   0.971  1.00  0.00     0.027 C 
ENDBRANCH  44  55
ENDBRANCH  36  37
ENDBRANCH   1  36
TORSDOF 14
ENDMDL
MODEL 4
REMARK VINA RESULT: -7.304882716      1.036      1.222
REMARK  14 active torsions:
REMARK  status: ('A' for Active; 'I' for Inactive)
REMARK    1  A    between atoms: C2_2  and  N1_3 
REMARK    2  A    between atoms: C4_8  and  N3_9 
REMARK    3  A    between atoms: N3_9  and  C5_11 
REMARK    4  A    between atoms: C5_11  and  C6_12 
REMARK    5  A    between atoms: C7_18  and  N5_19 
REMARK    6  A    between atoms: N5_19  and  C8_20 
REMARK    7  A    between atoms: C9_21  and  N6_22 
REMARK    8  A    between atoms: C12_28  and  C13_29 
REMARK    9  A    between atoms: C12_28  and  N7_32 
REMARK   10  A    between atoms: C16_34  and  C17_35 
REMARK   11  A    between atoms: C17_35  and  N8_36 
REMARK   12  A    between atoms: N8_36  and  C18_38 
REMARK   13  A    between atoms: C19_44  and  N11_45 
REMARK   14  A    between atoms: C20_52  and  O3_53 
ROOT
HETATM    1  C8  UNL     1       5.544  -6.977   2.394  1.00  0.00     0.237 C 
HETATM    2  C9  UNL     1       6.180  -8.312   2.238  1.00  0.00     0.295 C 
HETATM    3  C11 UNL     1       5.261  -9.077   1.371  1.00  0.00     0.197 C 
HETATM    4  O1  UNL     1       5.097 -10.267   1.418  1.00  0.00    -0.292 OA
HETATM    5  C12 UNL     1       4.627  -8.103   0.482  1.00  0.00     0.165 C 
HETATM    6  C20 UNL     1       4.817  -6.765   1.050  1.00  0.00     0.198 C 
ENDROOT
BRANCH   5   7
HETATM    7  C13 UNL     1       5.154  -8.313  -0.889  1.00  0.00     0.046 C 
HETATM    8  C14 UNL     1       6.176  -9.024  -1.264  1.00  0.00     0.187 C 
HETATM    9  F4  UNL     1       6.544  -9.126  -2.546  1.00  0.00    -0.220 F 
ENDBRANCH   5   7
BRANCH   5  10
HETATM   10  N7  UNL     1       3.183  -8.346   0.350  1.00  0.00    -0.263 N 
HETATM   11  C15 UNL     1       2.279  -8.599   1.298  1.00  0.00     0.145 A 
HETATM   12  C16 UNL     1       1.081  -8.780   0.647  1.00  0.00     0.082 A 
HETATM   13  N12 UNL     1       1.338  -8.621  -0.683  1.00  0.00    -0.284 N 
HETATM   14  N13 UNL     1       2.601  -8.363  -0.850  1.00  0.00    -0.239 N 
ATOM     15  H12 UNL     1       0.647  -8.694  -1.429  1.00  0.00     0.188 HD
ATOM     16  H13 UNL     1       3.066  -8.202  -1.743  1.00  0.00     0.208 HD
BRANCH  12  17
HETATM   17  C17 UNL     1      -0.258  -9.042   1.209  1.00  0.00     0.122 C 
BRANCH  17  18
HETATM   18  N8  UNL     1      -0.955  -7.929   1.649  1.00  0.00    -0.345 N 
ATOM     19  H8  UNL     1      -0.873  -7.873   2.664  1.00  0.00     0.167 HD
BRANCH  18  20
HETATM   20  C18 UNL     1      -1.639  -6.982   1.258  1.00  0.00     0.173 A 
HETATM   21  N9  UNL     1      -1.326  -5.896   0.527  1.00  0.00    -0.222 N 
HETATM   22  O2  UNL     1      -2.410  -5.186   0.354  1.00  0.00    -0.153 OA
ATOM     23  H9  UNL     1      -0.399  -5.665   0.169  1.00  0.00     0.198 HD
HETATM   24  N10 UNL     1      -3.427  -5.764   0.945  1.00  0.00    -0.222 N 
HETATM   25  C19 UNL     1      -3.033  -6.876   1.526  1.00  0.00     0.167 A 
ATOM     26  H10 UNL     1      -4.381  -5.405   0.953  1.00  0.00     0.198 HD
BRANCH  25  27
HETATM   27  N11 UNL     1      -3.767  -7.689   2.191  1.00  0.00    -0.381 N 
ATOM     28 2H11 UNL     1      -4.679  -7.487   2.600  1.00  0.00     0.157 HD
ATOM     29 1H11 UNL     1      -3.568  -8.663   2.419  1.00  0.00     0.157 HD
ENDBRANCH  25  27
ENDBRANCH  18  20
ENDBRANCH  17  18
ENDBRANCH  12  17
ENDBRANCH   5  10
BRANCH   6  30
HETATM   30  O3  UNL     1       5.621  -5.886   0.349  1.00  0.00    -0.389 OA
ATOM     31  H3  UNL     1       5.217  -5.035   0.476  1.00  0.00     0.210 HD
ENDBRANCH   6  30
BRANCH   2  32
HETATM   32  N6  UNL     1       6.367  -9.019   3.497  1.00  0.00    -0.065 N 
HETATM   33  C10 UNL     1       7.766  -9.008   3.846  1.00  0.00     0.268 C 
ATOM     34  H62 UNL     1       5.780  -8.644   4.242  1.00  0.00     0.277 HD
ATOM     35  H61 UNL     1       5.982  -9.963   3.471  1.00  0.00     0.277 HD
ENDBRANCH   2  32
BRANCH   1  36
HETATM   36  N5  UNL     1       6.252  -5.891   2.797  1.00  0.00    -0.404 NA
BRANCH  36  37
HETATM   37  C7  UNL     1       7.076  -5.089   3.074  1.00  0.00     0.283 A 
HETATM   38  N4  UNL     1       8.156  -4.907   2.244  1.00  0.00    -0.148 N 
HETATM   39  C4  UNL     1       9.128  -4.014   2.504  1.00  0.00     0.696 A 
ATOM     40  H4  UNL     1       8.225  -5.472   1.398  1.00  0.00     0.188 HD
HETATM   41  N2  UNL     1       9.032  -3.276   3.618  1.00  0.00    -0.022 N 
HETATM   42  C3  UNL     1       7.976  -3.413   4.490  1.00  0.00     0.696 A 
ATOM     43  H2  UNL     1       9.762  -2.595   3.827  1.00  0.00     0.203 HD
HETATM   44  N1  UNL     1       7.951  -2.687   5.502  1.00  0.00    -0.226 N 
HETATM   45  N14 UNL     1       7.038  -4.318   4.175  1.00  0.00    -0.148 N 
ATOM     46  H1  UNL     1       8.747  -2.054   5.567  1.00  0.00     0.177 HD
ATOM     47  H14 UNL     1       6.247  -4.429   4.811  1.00  0.00     0.188 HD
BRANCH  39  48
HETATM   48  N3  UNL     1      10.146  -3.855   1.710  1.00  0.00    -0.217 N 
ATOM     49  H3  UNL     1      10.083  -4.256   0.773  1.00  0.00     0.178 HD
BRANCH  48  50
HETATM   50  C5  UNL     1      11.345  -3.161   2.056  1.00  0.00     0.255 C 
BRANCH  50  51
HETATM   51  C6  UNL     1      12.247  -3.960   2.984  1.00  0.00     0.403 C 
HETATM   52  F1  UNL     1      12.150  -3.460   4.280  1.00  0.00    -0.169 F 
HETATM   53  F2  UNL     1      11.971  -5.304   2.923  1.00  0.00    -0.169 F 
HETATM   54  F3  UNL     1      13.566  -3.798   2.615  1.00  0.00    -0.169 F 
ENDBRANCH  50  51
ENDBRANCH  48  50
ENDBRANCH  39  48
BRANCH  44  55
HETATM   55  C2  UNL     1       7.044  -2.565   6.574  1.00  0.00     0.133 C 
HETATM   56  C1  UNL     1       6.505  -1.205   6.841  1.00  0.00     0.027 C 
ENDBRANCH  44  55
ENDBRANCH  36  37
ENDBRANCH   1  36
TORSDOF 14
ENDMDL
MODEL 5
REMARK VINA RESULT: -7.238572476      4.975     11.367
REMARK  14 active torsions:
REMARK  status: ('A' for Active; 'I' for Inactive)
REMARK    1  A    between atoms: C2_2  and  N1_3 
REMARK    2  A    between atoms: C4_8  and  N3_9 
REMARK    3  A    between atoms: N3_9  and  C5_11 
REMARK    4  A    between atoms: C5_11  and  C6_12 
REMARK    5  A    between atoms: C7_18  and  N5_19 
REMARK    6  A    between atoms: N5_19  and  C8_20 
REMARK    7  A    between atoms: C9_21  and  N6_22 
REMARK    8  A    between atoms: C12_28  and  C13_29 
REMARK    9  A    between atoms: C12_28  and  N7_32 
REMARK   10  A    between atoms: C16_34  and  C17_35 
REMARK   11  A    between atoms: C17_35  and  N8_36 
REMARK   12  A    between atoms: N8_36  and  C18_38 
REMARK   13  A    between atoms: C19_44  and  N11_45 
REMARK   14  A    between atoms: C20_52  and  O3_53 
ROOT
HETATM    1  C8  UNL     1      -0.466 -10.623   0.894  1.00  0.00     0.237 C 
HETATM    2  C9  UNL     1      -1.673  -9.987   1.487  1.00  0.00     0.295 C 
HETATM    3  C11 UNL     1      -1.166  -8.805   2.214  1.00  0.00     0.197 C 
HETATM    4  O1  UNL     1      -1.658  -8.342   3.208  1.00  0.00    -0.292 OA
HETATM    5  C12 UNL     1       0.013  -8.344   1.480  1.00  0.00     0.165 C 
HETATM    6  C20 UNL     1       0.464  -9.428   0.601  1.00  0.00     0.198 C 
ENDROOT
BRANCH   5   7
HETATM    7  C13 UNL     1      -0.323  -7.061   0.817  1.00  0.00     0.046 C 
HETATM    8  C14 UNL     1      -1.465  -6.438   0.789  1.00  0.00     0.187 C 
HETATM    9  F4  UNL     1      -1.630  -5.277   0.145  1.00  0.00    -0.220 F 
ENDBRANCH   5   7
BRANCH   5  10
HETATM   10  N7  UNL     1       1.118  -7.998   2.387  1.00  0.00    -0.263 N 
HETATM   11  C15 UNL     1       2.185  -7.230   2.165  1.00  0.00     0.145 A 
HETATM   12  C16 UNL     1       2.925  -7.256   3.324  1.00  0.00     0.082 A 
HETATM   13  N12 UNL     1       2.245  -8.054   4.196  1.00  0.00    -0.284 N 
HETATM   14  N13 UNL     1       1.165  -8.496   3.624  1.00  0.00    -0.239 N 
ATOM     15  H12 UNL     1       2.540  -8.271   5.148  1.00  0.00     0.188 HD
ATOM     16  H13 UNL     1       0.473  -9.115   4.047  1.00  0.00     0.208 HD
BRANCH  12  17
HETATM   17  C17 UNL     1       4.178  -6.548   3.648  1.00  0.00     0.122 C 
BRANCH  17  18
HETATM   18  N8  UNL     1       4.854  -5.996   2.572  1.00  0.00    -0.345 N 
ATOM     19  H8  UNL     1       4.287  -5.242   2.184  1.00  0.00     0.167 HD
BRANCH  18  20
HETATM   20  C18 UNL     1       5.891  -6.085   1.914  1.00  0.00     0.173 A 
HETATM   21  N9  UNL     1       7.102  -5.519   2.074  1.00  0.00    -0.222 N 
HETATM   22  O2  UNL     1       7.888  -5.946   1.120  1.00  0.00    -0.153 OA
ATOM     23  H9  UNL     1       7.362  -4.867   2.813  1.00  0.00     0.198 HD
HETATM   24  N10 UNL     1       7.240  -6.773   0.337  1.00  0.00    -0.222 N 
HETATM   25  C19 UNL     1       6.002  -6.910   0.759  1.00  0.00     0.167 A 
ATOM     26  H10 UNL     1       7.636  -7.239  -0.478  1.00  0.00     0.198 HD
BRANCH  25  27
HETATM   27  N11 UNL     1       5.094  -7.643   0.230  1.00  0.00    -0.381 N 
ATOM     28 2H11 UNL     1       4.313  -8.084   0.715  1.00  0.00     0.157 HD
ATOM     29 1H11 UNL     1       4.997  -7.904  -0.751  1.00  0.00     0.157 HD
ENDBRANCH  25  27
ENDBRANCH  18  20
ENDBRANCH  17  18
ENDBRANCH  12  17
ENDBRANCH   5  10
BRANCH   6  30
HETATM   30  O3  UNL     1       0.359  -9.226  -0.762  1.00  0.00    -0.389 OA
ATOM     31  H3  UNL     1       1.247  -9.045  -1.048  1.00  0.00     0.210 HD
ENDBRANCH   6  30
BRANCH   2  32
HETATM   32  N6  UNL     1      -2.396 -10.853   2.407  1.00  0.00    -0.065 N 
HETATM   33  C10 UNL     1      -3.667 -11.209   1.826  1.00  0.00     0.268 C 
ATOM     34  H62 UNL     1      -1.851 -11.672   2.676  1.00  0.00     0.277 HD
ATOM     35  H61 UNL     1      -2.497 -10.437   3.332  1.00  0.00     0.277 HD
ENDBRANCH   2  32
BRANCH   1  36
HETATM   36  N5  UNL     1      -0.555 -11.499  -0.139  1.00  0.00    -0.404 NA
BRANCH  36  37
HETATM   37  C7  UNL     1      -0.855 -12.336  -0.918  1.00  0.00     0.283 A 
HETATM   38  N4  UNL     1       0.124 -13.005  -1.613  1.00  0.00    -0.148 N 
HETATM   39  C4  UNL     1      -0.152 -13.965  -2.513  1.00  0.00     0.696 A 
ATOM     40  H4  UNL     1       1.099 -12.763  -1.440  1.00  0.00     0.188 HD
HETATM   41  N2  UNL     1      -1.436 -14.277  -2.737  1.00  0.00    -0.022 N 
HETATM   42  C3  UNL     1      -2.462 -13.643  -2.074  1.00  0.00     0.696 A 
ATOM     43  H2  UNL     1      -1.659 -15.004  -3.417  1.00  0.00     0.203 HD
HETATM   44  N1  UNL     1      -3.630 -13.991  -2.328  1.00  0.00    -0.226 N 
HETATM   45  N14 UNL     1      -2.123 -12.696  -1.187  1.00  0.00    -0.148 N 
ATOM     46  H1  UNL     1      -3.690 -14.734  -3.025  1.00  0.00     0.177 HD
ATOM     47  H14 UNL     1      -2.873 -12.219  -0.686  1.00  0.00     0.188 HD
BRANCH  39  48
HETATM   48  N3  UNL     1       0.787 -14.586  -3.166  1.00  0.00    -0.217 N 
ATOM     49  H3  UNL     1       1.682 -14.720  -2.695  1.00  0.00     0.178 HD
BRANCH  48  50
HETATM   50  C5  UNL     1       0.652 -15.094  -4.493  1.00  0.00     0.255 C 
BRANCH  50  51
HETATM   51  C6  UNL     1       0.705 -14.005  -5.554  1.00  0.00     0.403 C 
HETATM   52  F1  UNL     1      -0.588 -13.600  -5.877  1.00  0.00    -0.169 F 
HETATM   53  F2  UNL     1       1.497 -12.955  -5.160  1.00  0.00    -0.169 F 
HETATM   54  F3  UNL     1       1.245 -14.507  -6.720  1.00  0.00    -0.169 F 
ENDBRANCH  50  51
ENDBRANCH  48  50
ENDBRANCH  39  48
BRANCH  44  55
HETATM   55  C2  UNL     1      -4.886 -13.567  -1.848  1.00  0.00     0.133 C 
HETATM   56  C1  UNL     1      -6.085 -14.175  -2.484  1.00  0.00     0.027 C 
ENDBRANCH  44  55
ENDBRANCH  36  37
ENDBRANCH   1  36
TORSDOF 14
ENDMDL
