MODEL 1
REMARK VINA RESULT: -6.821119392      0.000      0.000
REMARK  10 active torsions:
REMARK  status: ('A' for Active; 'I' for Inactive)
REMARK    1  A    between atoms: N1_1  and  C1_4 
REMARK    2  A    between atoms: C2_7  and  C3_8 
REMARK    3  A    between atoms: N5_13  and  N6_14 
REMARK    4  A    between atoms: C4_17  and  S1_18 
REMARK    5  A    between atoms: S1_18  and  C5_19 
REMARK    6  A    between atoms: C5_19  and  C6_20 
REMARK    7  A    between atoms: C6_20  and  O1_21 
REMARK    8  A    between atoms: N7_23  and  O2_24 
REMARK    9  A    between atoms: C7_26  and  N8_27 
REMARK       I    between atoms: N8_27  and  C8_29 
REMARK   10  A    between atoms: N10_32  and  N11_33 
ROOT
HETATM    1  C1  UNL     1      38.342  39.711  34.977  1.00  0.00     0.713 A 
HETATM    2  N2  UNL     1      39.068  40.091  36.023  1.00  0.00    -0.169 N 
ATOM      3  H2  UNL     1      38.950  41.048  36.356  1.00  0.00     0.186 HD
HETATM    4  C2  UNL     1      39.969  39.286  36.695  1.00  0.00     0.198 A 
HETATM    5  N7  UNL     1      40.059  38.057  36.193  1.00  0.00    -0.030 N 
HETATM    6  C7  UNL     1      39.337  37.600  35.112  1.00  0.00     0.750 A 
HETATM    7  N10 UNL     1      38.494  38.452  34.535  1.00  0.00     0.085 N 
ENDROOT
BRANCH   4   8
HETATM    8  C3  UNL     1      40.704  39.857  37.784  1.00  0.00     0.134 A 
HETATM    9  N3  UNL     1      40.298  39.691  39.094  1.00  0.00    -0.278 N 
HETATM   10  N4  UNL     1      41.135  40.288  39.908  1.00  0.00    -0.220 N 
ATOM     11  H3  UNL     1      39.467  39.178  39.385  1.00  0.00     0.189 HD
HETATM   12  N5  UNL     1      42.097  40.855  39.218  1.00  0.00    -0.180 N 
ATOM     13  H4  UNL     1      41.051  40.308  40.924  1.00  0.00     0.210 HD
HETATM   14  C4  UNL     1      41.819  40.578  37.897  1.00  0.00     0.144 A 
BRANCH  12  15
HETATM   15  N6  UNL     1      43.179  41.587  39.709  1.00  0.00    -0.322 N 
ATOM     16  H62 UNL     1      43.261  42.010  40.633  1.00  0.00     0.179 HD
ATOM     17  H61 UNL     1      44.049  41.811  39.225  1.00  0.00     0.179 HD
ENDBRANCH  12  15
BRANCH  14  18
HETATM   18  S1  UNL     1      42.970  41.108  36.656  1.00  0.00    -0.104 SA
BRANCH  18  19
HETATM   19  C5  UNL     1      43.120  39.768  35.400  1.00  0.00     0.107 C 
BRANCH  19  20
HETATM   20  C6  UNL     1      44.098  40.163  34.327  1.00  0.00     0.174 C 
BRANCH  20  21
HETATM   21  O1  UNL     1      45.350  40.252  34.893  1.00  0.00    -0.400 OA
ATOM     22  H1  UNL     1      45.923  40.703  34.283  1.00  0.00     0.209 HD
ENDBRANCH  20  21
ENDBRANCH  19  20
ENDBRANCH  18  19
ENDBRANCH  14  18
ENDBRANCH   4   8
BRANCH   5  23
HETATM   23  O2  UNL     1      40.928  37.125  36.685  1.00  0.00    -0.268 OA
ATOM     24  H2  UNL     1      40.634  36.339  37.129  1.00  0.00     0.246 HD
ENDBRANCH   5  23
BRANCH   1  25
HETATM   25  N1  UNL     1      37.510  40.519  34.393  1.00  0.00    -0.232 N 
ATOM     26  H12 UNL     1      37.848  41.363  33.931  1.00  0.00     0.174 HD
ATOM     27  H11 UNL     1      36.507  40.336  34.376  1.00  0.00     0.174 HD
ENDBRANCH   1  25
BRANCH   6  28
HETATM   28  N8  UNL     1      39.522  36.416  34.748  1.00  0.00    -0.139 N 
HETATM   29  C8  UNL     1      38.863  35.235  34.964  1.00  0.00     0.347 C 
HETATM   30  N9  UNL     1      39.304  34.330  35.962  1.00  0.00    -0.039 NA
HETATM   31  O3  UNL     1      37.855  34.917  34.295  1.00  0.00    -0.250 OA
ATOM     32  H8  UNL     1      40.347  36.307  34.160  1.00  0.00     0.189 HD
ENDBRANCH   6  28
BRANCH   7  33
HETATM   33  N11 UNL     1      37.744  38.031  33.440  1.00  0.00    -0.309 N 
ATOM     34 2H11 UNL     1      37.084  38.679  33.009  1.00  0.00     0.178 HD
ATOM     35 1H11 UNL     1      37.873  37.081  33.092  1.00  0.00     0.178 HD
ENDBRANCH   7  33
TORSDOF 10
ENDMDL
MODEL 2
REMARK VINA RESULT: -6.725858178      3.555      5.715
REMARK  10 active torsions:
REMARK  status: ('A' for Active; 'I' for Inactive)
REMARK    1  A    between atoms: N1_1  and  C1_4 
REMARK    2  A    between atoms: C2_7  and  C3_8 
REMARK    3  A    between atoms: N5_13  and  N6_14 
REMARK    4  A    between atoms: C4_17  and  S1_18 
REMARK    5  A    between atoms: S1_18  and  C5_19 
REMARK    6  A    between atoms: C5_19  and  C6_20 
REMARK    7  A    between atoms: C6_20  and  O1_21 
REMARK    8  A    between atoms: N7_23  and  O2_24 
REMARK    9  A    between atoms: C7_26  and  N8_27 
REMARK       I    between atoms: N8_27  and  C8_29 
REMARK   10  A    between atoms: N10_32  and  N11_33 
ROOT
HETATM    1  C1  UNL     1      38.946  37.620  37.131  1.00  0.00     0.713 A 
HETATM    2  N2  UNL     1      38.403  38.160  36.045  1.00  0.00    -0.169 N 
ATOM      3  H2  UNL     1      38.129  39.142  36.093  1.00  0.00     0.186 HD
HETATM    4  C2  UNL     1      38.183  37.492  34.855  1.00  0.00     0.198 A 
HETATM    5  N7  UNL     1      38.568  36.218  34.884  1.00  0.00    -0.030 N 
HETATM    6  C7  UNL     1      39.135  35.598  35.975  1.00  0.00     0.750 A 
HETATM    7  N10 UNL     1      39.307  36.327  37.074  1.00  0.00     0.085 N 
ENDROOT
BRANCH   4   8
HETATM    8  C3  UNL     1      37.552  38.206  33.785  1.00  0.00     0.134 A 
HETATM    9  N3  UNL     1      36.673  37.582  32.922  1.00  0.00    -0.278 N 
HETATM   10  N4  UNL     1      36.216  38.439  32.042  1.00  0.00    -0.220 N 
ATOM     11  H3  UNL     1      36.417  36.596  32.964  1.00  0.00     0.189 HD
HETATM   12  N5  UNL     1      36.739  39.623  32.262  1.00  0.00    -0.180 N 
ATOM     13  H4  UNL     1      35.553  38.220  31.299  1.00  0.00     0.210 HD
HETATM   14  C4  UNL     1      37.568  39.465  33.352  1.00  0.00     0.144 A 
BRANCH  12  15
HETATM   15  N6  UNL     1      36.511  40.800  31.549  1.00  0.00    -0.322 N 
ATOM     16  H62 UNL     1      35.757  41.471  31.700  1.00  0.00     0.179 HD
ATOM     17  H61 UNL     1      37.058  41.173  30.772  1.00  0.00     0.179 HD
ENDBRANCH  12  15
BRANCH  14  18
HETATM   18  S1  UNL     1      38.386  40.893  34.012  1.00  0.00    -0.104 SA
BRANCH  18  19
HETATM   19  C5  UNL     1      37.222  41.745  35.158  1.00  0.00     0.107 C 
BRANCH  19  20
HETATM   20  C6  UNL     1      37.702  41.623  36.579  1.00  0.00     0.174 C 
BRANCH  20  21
HETATM   21  O1  UNL     1      37.041  40.569  37.171  1.00  0.00    -0.400 OA
ATOM     22  H1  UNL     1      37.140  40.644  38.113  1.00  0.00     0.209 HD
ENDBRANCH  20  21
ENDBRANCH  19  20
ENDBRANCH  18  19
ENDBRANCH  14  18
ENDBRANCH   4   8
BRANCH   5  23
HETATM   23  O2  UNL     1      38.392  35.374  33.824  1.00  0.00    -0.268 OA
ATOM     24  H2  UNL     1      38.584  35.632  32.930  1.00  0.00     0.246 HD
ENDBRANCH   5  23
BRANCH   1  25
HETATM   25  N1  UNL     1      39.127  38.307  38.218  1.00  0.00    -0.232 N 
ATOM     26  H12 UNL     1      38.449  39.015  38.502  1.00  0.00     0.174 HD
ATOM     27  H11 UNL     1      39.941  38.162  38.815  1.00  0.00     0.174 HD
ENDBRANCH   1  25
BRANCH   6  28
HETATM   28  N8  UNL     1      39.452  34.391  35.859  1.00  0.00    -0.139 N 
HETATM   29  C8  UNL     1      40.642  33.713  35.829  1.00  0.00     0.347 C 
HETATM   30  N9  UNL     1      41.227  33.331  34.596  1.00  0.00    -0.039 NA
HETATM   31  O3  UNL     1      41.248  33.412  36.880  1.00  0.00    -0.250 OA
ATOM     32  H8  UNL     1      38.643  33.777  35.766  1.00  0.00     0.189 HD
ENDBRANCH   6  28
BRANCH   7  33
HETATM   33  N11 UNL     1      39.878  35.741  38.199  1.00  0.00    -0.309 N 
ATOM     34 2H11 UNL     1      39.378  34.992  38.679  1.00  0.00     0.178 HD
ATOM     35 1H11 UNL     1      40.787  36.074  38.520  1.00  0.00     0.178 HD
ENDBRANCH   7  33
TORSDOF 10
ENDMDL
MODEL 3
REMARK VINA RESULT: -6.713435792      1.320      1.378
REMARK  10 active torsions:
REMARK  status: ('A' for Active; 'I' for Inactive)
REMARK    1  A    between atoms: N1_1  and  C1_4 
REMARK    2  A    between atoms: C2_7  and  C3_8 
REMARK    3  A    between atoms: N5_13  and  N6_14 
REMARK    4  A    between atoms: C4_17  and  S1_18 
REMARK    5  A    between atoms: S1_18  and  C5_19 
REMARK    6  A    between atoms: C5_19  and  C6_20 
REMARK    7  A    between atoms: C6_20  and  O1_21 
REMARK    8  A    between atoms: N7_23  and  O2_24 
REMARK    9  A    between atoms: C7_26  and  N8_27 
REMARK       I    between atoms: N8_27  and  C8_29 
REMARK   10  A    between atoms: N10_32  and  N11_33 
ROOT
HETATM    1  C1  UNL     1      38.398  38.434  34.720  1.00  0.00     0.713 A 
HETATM    2  N2  UNL     1      39.140  39.089  35.608  1.00  0.00    -0.169 N 
ATOM      3  H2  UNL     1      39.158  40.107  35.548  1.00  0.00     0.186 HD
HETATM    4  C2  UNL     1      39.888  38.493  36.607  1.00  0.00     0.198 A 
HETATM    5  N7  UNL     1      39.806  37.164  36.608  1.00  0.00    -0.030 N 
HETATM    6  C7  UNL     1      39.058  36.427  35.718  1.00  0.00     0.750 A 
HETATM    7  N10 UNL     1      38.372  37.093  34.794  1.00  0.00     0.085 N 
ENDROOT
BRANCH   4   8
HETATM    8  C3  UNL     1      40.666  39.337  37.463  1.00  0.00     0.134 A 
HETATM    9  N3  UNL     1      40.156  39.827  38.649  1.00  0.00    -0.278 N 
HETATM   10  N4  UNL     1      41.055  40.557  39.263  1.00  0.00    -0.220 N 
ATOM     11  H3  UNL     1      39.215  39.646  38.997  1.00  0.00     0.189 HD
HETATM   12  N5  UNL     1      42.160  40.590  38.554  1.00  0.00    -0.180 N 
ATOM     13  H4  UNL     1      40.918  41.028  40.158  1.00  0.00     0.210 HD
HETATM   14  C4  UNL     1      41.905  39.825  37.436  1.00  0.00     0.144 A 
BRANCH  12  15
HETATM   15  N6  UNL     1      43.346  41.257  38.858  1.00  0.00    -0.322 N 
ATOM     16  H62 UNL     1      43.600  41.676  39.752  1.00  0.00     0.179 HD
ATOM     17  H61 UNL     1      44.140  41.428  38.240  1.00  0.00     0.179 HD
ENDBRANCH  12  15
BRANCH  14  18
HETATM   18  S1  UNL     1      43.217  39.555  36.275  1.00  0.00    -0.104 SA
BRANCH  18  19
HETATM   19  C5  UNL     1      43.060  40.802  34.928  1.00  0.00     0.107 C 
BRANCH  19  20
HETATM   20  C6  UNL     1      44.284  40.785  34.051  1.00  0.00     0.174 C 
BRANCH  20  21
HETATM   21  O1  UNL     1      45.356  40.374  34.812  1.00  0.00    -0.400 OA
ATOM     22  H1  UNL     1      45.965  39.913  34.247  1.00  0.00     0.209 HD
ENDBRANCH  20  21
ENDBRANCH  19  20
ENDBRANCH  18  19
ENDBRANCH  14  18
ENDBRANCH   4   8
BRANCH   5  23
HETATM   23  O2  UNL     1      40.509  36.388  37.486  1.00  0.00    -0.268 OA
ATOM     24  H2  UNL     1      40.881  35.550  37.239  1.00  0.00     0.246 HD
ENDBRANCH   5  23
BRANCH   1  25
HETATM   25  N1  UNL     1      37.717  39.057  33.808  1.00  0.00    -0.232 N 
ATOM     26  H12 UNL     1      38.130  39.836  33.294  1.00  0.00     0.174 HD
ATOM     27  H11 UNL     1      36.760  38.792  33.577  1.00  0.00     0.174 HD
ENDBRANCH   1  25
BRANCH   6  28
HETATM   28  N8  UNL     1      39.073  35.180  35.839  1.00  0.00    -0.139 N 
HETATM   29  C8  UNL     1      39.736  34.165  35.201  1.00  0.00     0.347 C 
HETATM   30  N9  UNL     1      39.107  33.424  34.169  1.00  0.00    -0.039 NA
HETATM   31  O3  UNL     1      40.911  33.861  35.503  1.00  0.00    -0.250 OA
ATOM     32  H8  UNL     1      38.454  34.845  36.577  1.00  0.00     0.189 HD
ENDBRANCH   6  28
BRANCH   7  33
HETATM   33  N11 UNL     1      37.602  36.387  33.875  1.00  0.00    -0.309 N 
ATOM     34 2H11 UNL     1      37.692  36.598  32.881  1.00  0.00     0.178 HD
ATOM     35 1H11 UNL     1      36.962  35.670  34.218  1.00  0.00     0.178 HD
ENDBRANCH   7  33
TORSDOF 10
ENDMDL
MODEL 4
REMARK VINA RESULT: -6.700669707      2.610      6.283
REMARK  10 active torsions:
REMARK  status: ('A' for Active; 'I' for Inactive)
REMARK    1  A    between atoms: N1_1  and  C1_4 
REMARK    2  A    between atoms: C2_7  and  C3_8 
REMARK    3  A    between atoms: N5_13  and  N6_14 
REMARK    4  A    between atoms: C4_17  and  S1_18 
REMARK    5  A    between atoms: S1_18  and  C5_19 
REMARK    6  A    between atoms: C5_19  and  C6_20 
REMARK    7  A    between atoms: C6_20  and  O1_21 
REMARK    8  A    between atoms: N7_23  and  O2_24 
REMARK    9  A    between atoms: C7_26  and  N8_27 
REMARK       I    between atoms: N8_27  and  C8_29 
REMARK   10  A    between atoms: N10_32  and  N11_33 
ROOT
HETATM    1  C1  UNL     1      41.105  40.029  37.750  1.00  0.00     0.713 A 
HETATM    2  N2  UNL     1      40.163  39.379  37.074  1.00  0.00    -0.169 N 
ATOM      3  H2  UNL     1      39.376  39.004  37.605  1.00  0.00     0.186 HD
HETATM    4  C2  UNL     1      40.170  39.173  35.707  1.00  0.00     0.198 A 
HETATM    5  N7  UNL     1      41.233  39.693  35.098  1.00  0.00    -0.030 N 
HETATM    6  C7  UNL     1      42.242  40.377  35.738  1.00  0.00     0.750 A 
HETATM    7  N10 UNL     1      42.144  40.523  37.056  1.00  0.00     0.085 N 
ENDROOT
BRANCH   4   8
HETATM    8  C3  UNL     1      39.097  38.417  35.132  1.00  0.00     0.134 A 
HETATM    9  N3  UNL     1      38.352  38.910  34.079  1.00  0.00    -0.278 N 
HETATM   10  N4  UNL     1      37.444  38.036  33.717  1.00  0.00    -0.220 N 
ATOM     11  H3  UNL     1      38.489  39.822  33.645  1.00  0.00     0.189 HD
HETATM   12  N5  UNL     1      37.532  36.966  34.472  1.00  0.00    -0.180 N 
ATOM     13  H4  UNL     1      36.771  38.167  32.962  1.00  0.00     0.210 HD
HETATM   14  C4  UNL     1      38.566  37.214  35.349  1.00  0.00     0.144 A 
BRANCH  12  15
HETATM   15  N6  UNL     1      36.748  35.814  34.410  1.00  0.00    -0.322 N 
ATOM     16  H62 UNL     1      36.803  35.003  35.027  1.00  0.00     0.179 HD
ATOM     17  H61 UNL     1      36.004  35.603  33.745  1.00  0.00     0.179 HD
ENDBRANCH  12  15
BRANCH  14  18
HETATM   18  S1  UNL     1      39.051  35.935  36.477  1.00  0.00    -0.104 SA
BRANCH  18  19
HETATM   19  C5  UNL     1      40.031  34.685  35.543  1.00  0.00     0.107 C 
BRANCH  19  20
HETATM   20  C6  UNL     1      40.089  33.388  36.305  1.00  0.00     0.174 C 
BRANCH  20  21
HETATM   21  O1  UNL     1      40.979  33.537  37.346  1.00  0.00    -0.400 OA
ATOM     22  H1  UNL     1      40.940  32.757  37.887  1.00  0.00     0.209 HD
ENDBRANCH  20  21
ENDBRANCH  19  20
ENDBRANCH  18  19
ENDBRANCH  14  18
ENDBRANCH   4   8
BRANCH   5  23
HETATM   23  O2  UNL     1      41.449  39.556  33.756  1.00  0.00    -0.268 OA
ATOM     24  H2  UNL     1      41.020  40.107  33.113  1.00  0.00     0.246 HD
ENDBRANCH   5  23
BRANCH   1  25
HETATM   25  N1  UNL     1      41.035  40.189  39.036  1.00  0.00    -0.232 N 
ATOM     26  H12 UNL     1      40.394  40.873  39.439  1.00  0.00     0.174 HD
ATOM     27  H11 UNL     1      41.611  39.644  39.677  1.00  0.00     0.174 HD
ENDBRANCH   1  25
BRANCH   6  28
HETATM   28  N8  UNL     1      43.184  40.815  35.037  1.00  0.00    -0.139 N 
HETATM   29  C8  UNL     1      44.392  40.310  34.636  1.00  0.00     0.347 C 
HETATM   30  N9  UNL     1      45.584  40.651  35.323  1.00  0.00    -0.039 NA
HETATM   31  O3  UNL     1      44.485  39.536  33.658  1.00  0.00    -0.250 OA
ATOM     32  H8  UNL     1      43.012  41.757  34.687  1.00  0.00     0.189 HD
ENDBRANCH   6  28
BRANCH   7  33
HETATM   33  N11 UNL     1      43.142  41.208  37.743  1.00  0.00    -0.309 N 
ATOM     34 2H11 UNL     1      43.044  41.359  38.747  1.00  0.00     0.178 HD
ATOM     35 1H11 UNL     1      43.953  41.545  37.223  1.00  0.00     0.178 HD
ENDBRANCH   7  33
TORSDOF 10
ENDMDL
MODEL 5
REMARK VINA RESULT: -6.473240843      3.887      6.055
REMARK  10 active torsions:
REMARK  status: ('A' for Active; 'I' for Inactive)
REMARK    1  A    between atoms: N1_1  and  C1_4 
REMARK    2  A    between atoms: C2_7  and  C3_8 
REMARK    3  A    between atoms: N5_13  and  N6_14 
REMARK    4  A    between atoms: C4_17  and  S1_18 
REMARK    5  A    between atoms: S1_18  and  C5_19 
REMARK    6  A    between atoms: C5_19  and  C6_20 
REMARK    7  A    between atoms: C6_20  and  O1_21 
REMARK    8  A    between atoms: N7_23  and  O2_24 
REMARK    9  A    between atoms: C7_26  and  N8_27 
REMARK       I    between atoms: N8_27  and  C8_29 
REMARK   10  A    between atoms: N10_32  and  N11_33 
ROOT
HETATM    1  C1  UNL     1      41.225  39.927  34.267  1.00  0.00     0.713 A 
HETATM    2  N2  UNL     1      40.053  40.282  34.780  1.00  0.00    -0.169 N 
ATOM      3  H2  UNL     1      39.269  40.390  34.136  1.00  0.00     0.186 HD
HETATM    4  C2  UNL     1      39.815  40.517  36.122  1.00  0.00     0.198 A 
HETATM    5  N7  UNL     1      40.892  40.354  36.887  1.00  0.00    -0.030 N 
HETATM    6  C7  UNL     1      42.134  39.988  36.419  1.00  0.00     0.750 A 
HETATM    7  N10 UNL     1      42.261  39.784  35.111  1.00  0.00     0.085 N 
ENDROOT
BRANCH   4   8
HETATM    8  C3  UNL     1      38.501  40.931  36.514  1.00  0.00     0.134 A 
HETATM    9  N3  UNL     1      37.810  40.283  37.518  1.00  0.00    -0.278 N 
HETATM   10  N4  UNL     1      36.643  40.851  37.707  1.00  0.00    -0.220 N 
ATOM     11  H3  UNL     1      38.158  39.479  38.039  1.00  0.00     0.189 HD
HETATM   12  N5  UNL     1      36.502  41.860  36.878  1.00  0.00    -0.180 N 
ATOM     13  H4  UNL     1      35.950  40.554  38.393  1.00  0.00     0.210 HD
HETATM   14  C4  UNL     1      37.666  41.901  36.142  1.00  0.00     0.144 A 
BRANCH  12  15
HETATM   15  N6  UNL     1      35.407  42.716  36.759  1.00  0.00    -0.322 N 
ATOM     16  H62 UNL     1      34.423  42.449  36.731  1.00  0.00     0.179 HD
ATOM     17  H61 UNL     1      35.418  43.733  36.683  1.00  0.00     0.179 HD
ENDBRANCH  12  15
BRANCH  14  18
HETATM   18  S1  UNL     1      37.884  43.212  34.969  1.00  0.00    -0.104 SA
BRANCH  18  19
HETATM   19  C5  UNL     1      38.221  44.766  35.899  1.00  0.00     0.107 C 
BRANCH  19  20
HETATM   20  C6  UNL     1      37.112  45.759  35.681  1.00  0.00     0.174 C 
BRANCH  20  21
HETATM   21  O1  UNL     1      36.159  45.565  36.657  1.00  0.00    -0.400 OA
ATOM     22  H1  UNL     1      36.088  46.362  37.169  1.00  0.00     0.209 HD
ENDBRANCH  20  21
ENDBRANCH  19  20
ENDBRANCH  18  19
ENDBRANCH  14  18
ENDBRANCH   4   8
BRANCH   5  23
HETATM   23  O2  UNL     1      40.876  40.585  38.234  1.00  0.00    -0.268 OA
ATOM     24  H2  UNL     1      41.587  40.317  38.804  1.00  0.00     0.246 HD
ENDBRANCH   5  23
BRANCH   1  25
HETATM   25  N1  UNL     1      41.379  39.719  32.994  1.00  0.00    -0.232 N 
ATOM     26  H12 UNL     1      40.885  40.295  32.313  1.00  0.00     0.174 HD
ATOM     27  H11 UNL     1      41.992  38.986  32.640  1.00  0.00     0.174 HD
ENDBRANCH   1  25
BRANCH   6  28
HETATM   28  N8  UNL     1      43.059  39.870  37.256  1.00  0.00    -0.139 N 
HETATM   29  C8  UNL     1      44.025  40.714  37.738  1.00  0.00     0.347 C 
HETATM   30  N9  UNL     1      45.343  40.679  37.219  1.00  0.00    -0.039 NA
HETATM   31  O3  UNL     1      43.778  41.537  38.646  1.00  0.00    -0.250 OA
ATOM     32  H8  UNL     1      43.104  38.939  37.669  1.00  0.00     0.189 HD
ENDBRANCH   6  28
BRANCH   7  33
HETATM   33  N11 UNL     1      43.499  39.412  34.595  1.00  0.00    -0.309 N 
ATOM     34 2H11 UNL     1      44.283  39.273  35.233  1.00  0.00     0.178 HD
ATOM     35 1H11 UNL     1      43.593  39.284  33.587  1.00  0.00     0.178 HD
ENDBRANCH   7  33
TORSDOF 10
ENDMDL
