MODEL 1
REMARK VINA RESULT: -7.459726219      0.000      0.000
REMARK  8 active torsions:
REMARK  status: ('A' for Active; 'I' for Inactive)
REMARK    1  A    between atoms: N1_2  and  N3_5 
REMARK       I    between atoms: N3_5  and  C3_7 
REMARK    2  A    between atoms: C3_7  and  C4_9 
REMARK    3  A    between atoms: C4_9  and  O2_10 
REMARK    4  A    between atoms: C4_9  and  C5_12 
REMARK    5  A    between atoms: C6_14  and  N4_15 
REMARK    6  A    between atoms: N4_15  and  N5_17 
REMARK    7  A    between atoms: C7_19  and  C8_20 
REMARK    8  A    between atoms: C9_31  and  O4_32 
ROOT
HETATM    1  C1  UNL     1      43.522  40.004  32.062  1.00  0.00     0.191 C 
HETATM    2  N1  UNL     1      43.621  41.186  32.876  1.00  0.00    -0.230 N 
HETATM    3  C2  UNL     1      44.045  42.379  32.327  1.00  0.00     0.200 C 
HETATM    4  N2  UNL     1      44.390  43.386  31.846  1.00  0.00    -0.170 NA
ENDROOT
BRANCH   2   5
HETATM    5  N3  UNL     1      43.292  41.108  34.219  1.00  0.00    -0.257 N 
HETATM    6  C3  UNL     1      44.222  40.730  35.233  1.00  0.00     0.272 C 
HETATM    7  O1  UNL     1      45.377  40.458  34.879  1.00  0.00    -0.268 OA
ATOM      8  H3  UNL     1      42.337  41.332  34.498  1.00  0.00     0.191 HD
BRANCH   6   9
HETATM    9  C4  UNL     1      43.808  40.673  36.640  1.00  0.00     0.273 C 
BRANCH   9  10
HETATM   10  O2  UNL     1      44.831  40.046  37.402  1.00  0.00    -0.379 OA
ATOM     11  H2  UNL     1      45.444  40.706  37.703  1.00  0.00     0.211 HD
ENDBRANCH   9  10
BRANCH   9  12
HETATM   12  C5  UNL     1      42.543  39.982  36.899  1.00  0.00     0.145 A 
HETATM   13  O3  UNL     1      42.078  39.011  36.107  1.00  0.00    -0.275 OA
HETATM   14  C6  UNL     1      40.946  38.590  36.572  1.00  0.00     0.245 A 
HETATM   15  N10 UNL     1      40.601  39.254  37.689  1.00  0.00    -0.299 N 
HETATM   16  C9  UNL     1      41.614  40.128  37.887  1.00  0.00     0.177 A 
ATOM     17  H10 UNL     1      39.765  39.126  38.258  1.00  0.00     0.171 HD
BRANCH  14  18
HETATM   18  N4  UNL     1      40.250  37.648  36.014  1.00  0.00    -0.265 N 
ATOM     19  H4  UNL     1      40.690  37.072  35.297  1.00  0.00     0.190 HD
BRANCH  18  20
HETATM   20  N5  UNL     1      38.936  37.397  36.355  1.00  0.00    -0.305 N 
HETATM   21  C7  UNL     1      38.519  36.227  36.638  1.00  0.00     0.158 C 
ATOM     22  H5  UNL     1      38.277  38.175  36.381  1.00  0.00     0.186 HD
BRANCH  21  23
HETATM   23  C8  UNL     1      39.348  35.053  36.632  1.00  0.00     0.154 A 
HETATM   24  N6  UNL     1      39.672  34.253  35.622  1.00  0.00    -0.268 N 
HETATM   25  N7  UNL     1      40.460  33.299  36.084  1.00  0.00    -0.227 N 
ATOM     26  H6  UNL     1      39.364  34.358  34.656  1.00  0.00     0.190 HD
HETATM   27  N8  UNL     1      40.654  33.463  37.378  1.00  0.00    -0.227 N 
ATOM     28  H7  UNL     1      40.858  32.546  35.523  1.00  0.00     0.210 HD
HETATM   29  N9  UNL     1      39.974  34.539  37.718  1.00  0.00    -0.268 N 
ATOM     30  H8  UNL     1      41.219  32.876  37.993  1.00  0.00     0.210 HD
ATOM     31  H9  UNL     1      39.926  34.926  38.660  1.00  0.00     0.190 HD
ENDBRANCH  21  23
ENDBRANCH  18  20
ENDBRANCH  14  18
BRANCH  16  32
HETATM   32  O4  UNL     1      41.668  41.017  38.940  1.00  0.00    -0.344 OA
ATOM     33  H4  UNL     1      41.002  41.146  39.606  1.00  0.00     0.219 HD
ENDBRANCH  16  32
ENDBRANCH   9  12
ENDBRANCH   6   9
ENDBRANCH   2   5
TORSDOF 8
ENDMDL
MODEL 2
REMARK VINA RESULT: -7.218682590      4.521      7.485
REMARK  8 active torsions:
REMARK  status: ('A' for Active; 'I' for Inactive)
REMARK    1  A    between atoms: N1_2  and  N3_5 
REMARK       I    between atoms: N3_5  and  C3_7 
REMARK    2  A    between atoms: C3_7  and  C4_9 
REMARK    3  A    between atoms: C4_9  and  O2_10 
REMARK    4  A    between atoms: C4_9  and  C5_12 
REMARK    5  A    between atoms: C6_14  and  N4_15 
REMARK    6  A    between atoms: N4_15  and  N5_17 
REMARK    7  A    between atoms: C7_19  and  C8_20 
REMARK    8  A    between atoms: C9_31  and  O4_32 
ROOT
HETATM    1  C1  UNL     1      40.350  38.276  36.623  1.00  0.00     0.191 C 
HETATM    2  N1  UNL     1      39.370  37.267  36.320  1.00  0.00    -0.230 N 
HETATM    3  C2  UNL     1      39.281  36.126  37.092  1.00  0.00     0.200 C 
HETATM    4  N2  UNL     1      39.207  35.172  37.762  1.00  0.00    -0.170 NA
ENDROOT
BRANCH   2   5
HETATM    5  N3  UNL     1      38.521  37.454  35.242  1.00  0.00    -0.257 N 
HETATM    6  C3  UNL     1      38.913  37.226  33.889  1.00  0.00     0.272 C 
HETATM    7  O1  UNL     1      40.072  36.845  33.684  1.00  0.00    -0.268 OA
ATOM      8  H3  UNL     1      37.568  37.770  35.424  1.00  0.00     0.191 HD
BRANCH   6   9
HETATM    9  C4  UNL     1      37.961  37.438  32.792  1.00  0.00     0.273 C 
BRANCH   9  10
HETATM   10  O2  UNL     1      38.645  37.327  31.552  1.00  0.00    -0.379 OA
ATOM     11  H2  UNL     1      38.051  37.556  30.846  1.00  0.00     0.211 HD
ENDBRANCH   9  10
BRANCH   9  12
HETATM   12  C5  UNL     1      37.243  38.714  32.817  1.00  0.00     0.145 A 
HETATM   13  O3  UNL     1      37.568  39.708  33.650  1.00  0.00    -0.275 OA
HETATM   14  C6  UNL     1      36.766  40.704  33.456  1.00  0.00     0.245 A 
HETATM   15  N10 UNL     1      35.873  40.430  32.490  1.00  0.00    -0.299 N 
HETATM   16  C9  UNL     1      36.182  39.174  32.093  1.00  0.00     0.177 A 
ATOM     17  H10 UNL     1      35.130  41.032  32.136  1.00  0.00     0.171 HD
BRANCH  14  18
HETATM   18  N4  UNL     1      36.834  41.816  34.121  1.00  0.00    -0.265 N 
ATOM     19  H4  UNL     1      35.980  42.355  34.264  1.00  0.00     0.190 HD
BRANCH  18  20
HETATM   20  N5  UNL     1      38.018  42.296  34.643  1.00  0.00    -0.305 N 
HETATM   21  C7  UNL     1      38.302  42.206  35.881  1.00  0.00     0.158 C 
ATOM     22  H5  UNL     1      38.689  42.739  34.014  1.00  0.00     0.186 HD
BRANCH  21  23
HETATM   23  C8  UNL     1      37.439  41.608  36.863  1.00  0.00     0.154 A 
HETATM   24  N6  UNL     1      36.404  42.134  37.509  1.00  0.00    -0.268 N 
HETATM   25  N7  UNL     1      35.908  41.216  38.318  1.00  0.00    -0.227 N 
ATOM     26  H6  UNL     1      36.052  43.085  37.399  1.00  0.00     0.190 HD
HETATM   27  N8  UNL     1      36.603  40.100  38.211  1.00  0.00    -0.227 N 
ATOM     28  H7  UNL     1      35.107  41.349  38.935  1.00  0.00     0.210 HD
HETATM   29  N9  UNL     1      37.543  40.337  37.319  1.00  0.00    -0.268 N 
ATOM     30  H8  UNL     1      36.445  39.228  38.716  1.00  0.00     0.210 HD
ATOM     31  H9  UNL     1      38.246  39.662  37.017  1.00  0.00     0.190 HD
ENDBRANCH  21  23
ENDBRANCH  18  20
ENDBRANCH  14  18
BRANCH  16  32
HETATM   32  O4  UNL     1      35.506  38.492  31.103  1.00  0.00    -0.344 OA
ATOM     33  H4  UNL     1      35.141  38.864  30.308  1.00  0.00     0.219 HD
ENDBRANCH  16  32
ENDBRANCH   9  12
ENDBRANCH   6   9
ENDBRANCH   2   5
TORSDOF 8
ENDMDL
MODEL 3
REMARK VINA RESULT: -7.140325605      2.746      4.245
REMARK  8 active torsions:
REMARK  status: ('A' for Active; 'I' for Inactive)
REMARK    1  A    between atoms: N1_2  and  N3_5 
REMARK       I    between atoms: N3_5  and  C3_7 
REMARK    2  A    between atoms: C3_7  and  C4_9 
REMARK    3  A    between atoms: C4_9  and  O2_10 
REMARK    4  A    between atoms: C4_9  and  C5_12 
REMARK    5  A    between atoms: C6_14  and  N4_15 
REMARK    6  A    between atoms: N4_15  and  N5_17 
REMARK    7  A    between atoms: C7_19  and  C8_20 
REMARK    8  A    between atoms: C9_31  and  O4_32 
ROOT
HETATM    1  C1  UNL     1      41.681  40.358  31.331  1.00  0.00     0.191 C 
HETATM    2  N1  UNL     1      41.659  39.760  32.639  1.00  0.00    -0.230 N 
HETATM    3  C2  UNL     1      41.046  38.540  32.840  1.00  0.00     0.200 C 
HETATM    4  N2  UNL     1      40.537  37.500  32.992  1.00  0.00    -0.170 NA
ENDROOT
BRANCH   2   5
HETATM    5  N3  UNL     1      42.255  40.429  33.696  1.00  0.00    -0.257 N 
HETATM    6  C3  UNL     1      43.594  40.182  34.124  1.00  0.00     0.272 C 
HETATM    7  O1  UNL     1      44.242  39.323  33.512  1.00  0.00    -0.268 OA
ATOM      8  H3  UNL     1      41.710  41.133  34.193  1.00  0.00     0.191 HD
BRANCH   6   9
HETATM    9  C4  UNL     1      44.166  40.931  35.248  1.00  0.00     0.273 C 
BRANCH   9  10
HETATM   10  O2  UNL     1      45.506  40.506  35.458  1.00  0.00    -0.379 OA
ATOM     11  H2  UNL     1      45.785  40.774  36.326  1.00  0.00     0.211 HD
ENDBRANCH   9  10
BRANCH   9  12
HETATM   12  C5  UNL     1      43.438  40.824  36.515  1.00  0.00     0.145 A 
HETATM   13  O3  UNL     1      42.202  40.321  36.595  1.00  0.00    -0.275 OA
HETATM   14  C6  UNL     1      41.810  40.355  37.827  1.00  0.00     0.245 A 
HETATM   15  N10 UNL     1      42.756  40.877  38.626  1.00  0.00    -0.299 N 
HETATM   16  C9  UNL     1      43.778  41.169  37.790  1.00  0.00     0.177 A 
ATOM     17  H10 UNL     1      42.712  41.020  39.634  1.00  0.00     0.171 HD
BRANCH  14  18
HETATM   18  N4  UNL     1      40.646  39.934  38.218  1.00  0.00    -0.265 N 
ATOM     19  H4  UNL     1      40.086  40.532  38.825  1.00  0.00     0.190 HD
BRANCH  18  20
HETATM   20  N5  UNL     1      40.138  38.707  37.842  1.00  0.00    -0.305 N 
HETATM   21  C7  UNL     1      38.930  38.557  37.467  1.00  0.00     0.158 C 
ATOM     22  H5  UNL     1      40.751  37.892  37.866  1.00  0.00     0.186 HD
BRANCH  21  23
HETATM   23  C8  UNL     1      37.971  39.625  37.395  1.00  0.00     0.154 A 
HETATM   24  N6  UNL     1      37.777  40.522  36.433  1.00  0.00    -0.268 N 
HETATM   25  N7  UNL     1      36.783  41.312  36.796  1.00  0.00    -0.227 N 
ATOM     26  H6  UNL     1      38.306  40.589  35.564  1.00  0.00     0.190 HD
HETATM   27  N8  UNL     1      36.326  40.946  37.978  1.00  0.00    -0.227 N 
ATOM     28  H7  UNL     1      36.422  42.090  36.244  1.00  0.00     0.210 HD
HETATM   29  N9  UNL     1      37.052  39.912  38.348  1.00  0.00    -0.268 N 
ATOM     30  H8  UNL     1      35.563  41.377  38.501  1.00  0.00     0.210 HD
ATOM     31  H9  UNL     1      36.940  39.402  39.224  1.00  0.00     0.190 HD
ENDBRANCH  21  23
ENDBRANCH  18  20
ENDBRANCH  14  18
BRANCH  16  32
HETATM   32  O4  UNL     1      44.971  41.729  38.199  1.00  0.00    -0.344 OA
ATOM     33  H4  UNL     1      45.741  41.261  38.501  1.00  0.00     0.219 HD
ENDBRANCH  16  32
ENDBRANCH   9  12
ENDBRANCH   6   9
ENDBRANCH   2   5
TORSDOF 8
ENDMDL
MODEL 4
REMARK VINA RESULT: -7.139954758      2.868      4.131
REMARK  8 active torsions:
REMARK  status: ('A' for Active; 'I' for Inactive)
REMARK    1  A    between atoms: N1_2  and  N3_5 
REMARK       I    between atoms: N3_5  and  C3_7 
REMARK    2  A    between atoms: C3_7  and  C4_9 
REMARK    3  A    between atoms: C4_9  and  O2_10 
REMARK    4  A    between atoms: C4_9  and  C5_12 
REMARK    5  A    between atoms: C6_14  and  N4_15 
REMARK    6  A    between atoms: N4_15  and  N5_17 
REMARK    7  A    between atoms: C7_19  and  C8_20 
REMARK    8  A    between atoms: C9_31  and  O4_32 
ROOT
HETATM    1  C1  UNL     1      42.961  39.737  32.916  1.00  0.00     0.191 C 
HETATM    2  N1  UNL     1      43.414  40.960  33.524  1.00  0.00    -0.230 N 
HETATM    3  C2  UNL     1      43.878  41.999  32.743  1.00  0.00     0.200 C 
HETATM    4  N2  UNL     1      44.253  42.876  32.069  1.00  0.00    -0.170 NA
ENDROOT
BRANCH   2   5
HETATM    5  N3  UNL     1      43.384  41.078  34.904  1.00  0.00    -0.257 N 
HETATM    6  C3  UNL     1      44.514  40.822  35.736  1.00  0.00     0.272 C 
HETATM    7  O1  UNL     1      45.567  40.477  35.184  1.00  0.00    -0.268 OA
ATOM      8  H3  UNL     1      42.510  41.361  35.347  1.00  0.00     0.191 HD
BRANCH   6   9
HETATM    9  C4  UNL     1      44.415  40.971  37.193  1.00  0.00     0.273 C 
BRANCH   9  10
HETATM   10  O2  UNL     1      45.363  40.115  37.815  1.00  0.00    -0.379 OA
ATOM     11  H2  UNL     1      45.320  40.234  38.756  1.00  0.00     0.211 HD
ENDBRANCH   9  10
BRANCH   9  12
HETATM   12  C5  UNL     1      43.095  40.702  37.767  1.00  0.00     0.145 A 
HETATM   13  O3  UNL     1      42.133  40.065  37.093  1.00  0.00    -0.275 OA
HETATM   14  C6  UNL     1      41.081  39.974  37.840  1.00  0.00     0.245 A 
HETATM   15  N10 UNL     1      41.285  40.541  39.041  1.00  0.00    -0.299 N 
HETATM   16  C9  UNL     1      42.558  40.997  38.986  1.00  0.00     0.177 A 
ATOM     17  H10 UNL     1      40.630  40.612  39.819  1.00  0.00     0.171 HD
BRANCH  14  18
HETATM   18  N4  UNL     1      39.979  39.405  37.458  1.00  0.00    -0.265 N 
ATOM     19  H4  UNL     1      39.379  38.975  38.161  1.00  0.00     0.190 HD
BRANCH  18  20
HETATM   20  N5  UNL     1      39.590  39.361  36.134  1.00  0.00    -0.305 N 
HETATM   21  C7  UNL     1      38.608  40.042  35.692  1.00  0.00     0.158 C 
ATOM     22  H5  UNL     1      40.105  38.763  35.489  1.00  0.00     0.186 HD
BRANCH  21  23
HETATM   23  C8  UNL     1      37.805  40.917  36.501  1.00  0.00     0.154 A 
HETATM   24  N6  UNL     1      36.864  40.617  37.390  1.00  0.00    -0.268 N 
HETATM   25  N7  UNL     1      36.393  41.743  37.893  1.00  0.00    -0.227 N 
ATOM     26  H6  UNL     1      36.558  39.677  37.641  1.00  0.00     0.190 HD
HETATM   27  N8  UNL     1      37.011  42.773  37.346  1.00  0.00    -0.227 N 
ATOM     28  H7  UNL     1      35.660  41.808  38.600  1.00  0.00     0.210 HD
HETATM   29  N9  UNL     1      37.877  42.270  36.492  1.00  0.00    -0.268 N 
ATOM     30  H8  UNL     1      36.850  43.761  37.546  1.00  0.00     0.210 HD
ATOM     31  H9  UNL     1      38.509  42.818  35.909  1.00  0.00     0.190 HD
ENDBRANCH  21  23
ENDBRANCH  18  20
ENDBRANCH  14  18
BRANCH  16  32
HETATM   32  O4  UNL     1      43.186  41.654  40.023  1.00  0.00    -0.344 OA
ATOM     33  H4  UNL     1      43.127  41.438  40.947  1.00  0.00     0.219 HD
ENDBRANCH  16  32
ENDBRANCH   9  12
ENDBRANCH   6   9
ENDBRANCH   2   5
TORSDOF 8
ENDMDL
MODEL 5
REMARK VINA RESULT: -7.026285550      4.576      7.569
REMARK  8 active torsions:
REMARK  status: ('A' for Active; 'I' for Inactive)
REMARK    1  A    between atoms: N1_2  and  N3_5 
REMARK       I    between atoms: N3_5  and  C3_7 
REMARK    2  A    between atoms: C3_7  and  C4_9 
REMARK    3  A    between atoms: C4_9  and  O2_10 
REMARK    4  A    between atoms: C4_9  and  C5_12 
REMARK    5  A    between atoms: C6_14  and  N4_15 
REMARK    6  A    between atoms: N4_15  and  N5_17 
REMARK    7  A    between atoms: C7_19  and  C8_20 
REMARK    8  A    between atoms: C9_31  and  O4_32 
ROOT
HETATM    1  C1  UNL     1      40.051  34.432  37.208  1.00  0.00     0.191 C 
HETATM    2  N1  UNL     1      39.791  34.185  35.815  1.00  0.00    -0.230 N 
HETATM    3  C2  UNL     1      39.336  32.950  35.398  1.00  0.00     0.200 C 
HETATM    4  N2  UNL     1      38.937  31.906  35.060  1.00  0.00    -0.170 NA
ENDROOT
BRANCH   2   5
HETATM    5  N3  UNL     1      40.010  35.199  34.898  1.00  0.00    -0.257 N 
HETATM    6  C3  UNL     1      39.034  36.188  34.576  1.00  0.00     0.272 C 
HETATM    7  O1  UNL     1      37.940  36.123  35.151  1.00  0.00    -0.268 OA
ATOM      8  H3  UNL     1      40.915  35.241  34.429  1.00  0.00     0.191 HD
BRANCH   6   9
HETATM    9  C4  UNL     1      39.334  37.240  33.598  1.00  0.00     0.273 C 
BRANCH   9  10
HETATM   10  O2  UNL     1      40.491  37.951  34.017  1.00  0.00    -0.379 OA
ATOM     11  H2  UNL     1      41.154  37.895  33.339  1.00  0.00     0.211 HD
ENDBRANCH   9  10
BRANCH   9  12
HETATM   12  C5  UNL     1      38.257  38.203  33.355  1.00  0.00     0.145 A 
HETATM   13  O3  UNL     1      38.186  39.378  33.988  1.00  0.00    -0.275 OA
HETATM   14  C6  UNL     1      37.136  40.015  33.583  1.00  0.00     0.245 A 
HETATM   15  N10 UNL     1      36.458  39.305  32.666  1.00  0.00    -0.299 N 
HETATM   16  C9  UNL     1      37.173  38.165  32.529  1.00  0.00     0.177 A 
ATOM     17  H10 UNL     1      35.599  39.566  32.182  1.00  0.00     0.171 HD
BRANCH  14  18
HETATM   18  N4  UNL     1      36.799  41.189  34.021  1.00  0.00    -0.265 N 
ATOM     19  H4  UNL     1      35.811  41.444  34.034  1.00  0.00     0.190 HD
BRANCH  18  20
HETATM   20  N5  UNL     1      37.727  42.107  34.471  1.00  0.00    -0.305 N 
HETATM   21  C7  UNL     1      38.025  42.224  35.703  1.00  0.00     0.158 C 
ATOM     22  H5  UNL     1      38.189  42.712  33.792  1.00  0.00     0.186 HD
BRANCH  21  23
HETATM   23  C8  UNL     1      37.442  41.433  36.752  1.00  0.00     0.154 A 
HETATM   24  N6  UNL     1      36.400  41.702  37.533  1.00  0.00    -0.268 N 
HETATM   25  N7  UNL     1      36.222  40.684  38.354  1.00  0.00    -0.227 N 
ATOM     26  H6  UNL     1      35.836  42.551  37.502  1.00  0.00     0.190 HD
HETATM   27  N8  UNL     1      37.130  39.755  38.123  1.00  0.00    -0.227 N 
ATOM     28  H7  UNL     1      35.491  40.624  39.063  1.00  0.00     0.210 HD
HETATM   29  N9  UNL     1      37.880  40.211  37.141  1.00  0.00    -0.268 N 
ATOM     30  H8  UNL     1      37.231  38.863  38.607  1.00  0.00     0.210 HD
ATOM     31  H9  UNL     1      38.673  39.717  36.733  1.00  0.00     0.190 HD
ENDBRANCH  21  23
ENDBRANCH  18  20
ENDBRANCH  14  18
BRANCH  16  32
HETATM   32  O4  UNL     1      36.830  37.139  31.672  1.00  0.00    -0.344 OA
ATOM     33  H4  UNL     1      36.641  36.240  31.914  1.00  0.00     0.219 HD
ENDBRANCH  16  32
ENDBRANCH   9  12
ENDBRANCH   6   9
ENDBRANCH   2   5
TORSDOF 8
ENDMDL
