MODEL 1
REMARK VINA RESULT: -7.122504337      0.000      0.000
REMARK  6 active torsions:
REMARK  status: ('A' for Active; 'I' for Inactive)
REMARK    1  A    between atoms: C2_3  and  C3_4 
REMARK    2  A    between atoms: C6_14  and  C7_15 
REMARK    3  A    between atoms: C8_16  and  C9_17 
REMARK    4  A    between atoms: C10_23  and  C11_24 
REMARK    5  A    between atoms: C11_24  and  O4_25 
REMARK    6  A    between atoms: C11_24  and  O5_27 
ROOT
HETATM    1  N1  UNL     1      38.705  39.091  38.131  1.00  0.00    -0.194 NA
HETATM    2  C1  UNL     1      38.923  38.292  37.346  1.00  0.00     0.107 C 
HETATM    3  C2  UNL     1      39.181  37.272  36.396  1.00  0.00     0.244 C 
HETATM    4  N3  UNL     1      37.935  36.647  35.891  1.00  0.00    -0.330 N 
ATOM      5  H3  UNL     1      36.976  36.758  36.222  1.00  0.00     0.164 HD
HETATM    6  C4  UNL     1      38.438  35.842  34.811  1.00  0.00     0.190 C 
HETATM    7  N4  UNL     1      37.898  34.626  34.304  1.00  0.00    -0.063 NA
HETATM    8  N5  UNL     1      39.512  36.409  34.330  1.00  0.00    -0.331 N 
ATOM      9  H5  UNL     1      40.076  36.057  33.557  1.00  0.00     0.168 HD
HETATM   10  C5  UNL     1      39.768  37.645  35.094  1.00  0.00     0.065 C 
HETATM   11  C6  UNL     1      40.348  38.645  34.539  1.00  0.00     0.046 C 
ENDROOT
BRANCH   3  12
HETATM   12  C3  UNL     1      39.949  36.123  37.003  1.00  0.00     0.280 C 
HETATM   13  N2  UNL     1      39.253  35.242  37.841  1.00  0.00    -0.058 NA
HETATM   14  O1  UNL     1      41.155  35.953  36.772  1.00  0.00    -0.272 OA
ENDBRANCH   3  12
BRANCH  11  15
HETATM   15  C7  UNL     1      40.679  39.955  35.064  1.00  0.00     0.036 A 
HETATM   16  C8  UNL     1      41.876  40.415  35.570  1.00  0.00     0.132 A 
HETATM   17  N7  UNL     1      41.637  41.696  35.900  1.00  0.00    -0.255 N 
HETATM   18  O3  UNL     1      40.407  42.009  35.628  1.00  0.00    -0.236 OA
ATOM     19  H7  UNL     1      42.324  42.331  36.307  1.00  0.00     0.195 HD
HETATM   20  C10 UNL     1      39.752  41.003  35.113  1.00  0.00     0.143 A 
BRANCH  16  21
HETATM   21  C9  UNL     1      43.121  39.675  35.729  1.00  0.00     0.284 C 
HETATM   22  N6  UNL     1      44.287  40.101  35.039  1.00  0.00    -0.056 NA
HETATM   23  O2  UNL     1      43.234  38.658  36.456  1.00  0.00    -0.269 OA
ENDBRANCH  16  21
BRANCH  20  24
HETATM   24  C11 UNL     1      38.321  40.960  34.669  1.00  0.00     0.315 C 
BRANCH  24  25
HETATM   25  O4  UNL     1      38.054  42.119  33.950  1.00  0.00    -0.365 OA
ATOM     26  H4  UNL     1      38.835  42.350  33.461  1.00  0.00     0.213 HD
ENDBRANCH  24  25
BRANCH  24  27
HETATM   27  O5  UNL     1      37.466  40.824  35.757  1.00  0.00    -0.365 OA
ATOM     28  H5  UNL     1      37.030  39.980  35.743  1.00  0.00     0.213 HD
ENDBRANCH  24  27
ENDBRANCH  20  24
ENDBRANCH  11  15
TORSDOF 6
ENDMDL
MODEL 2
REMARK VINA RESULT: -6.886354008      1.172      3.171
REMARK  6 active torsions:
REMARK  status: ('A' for Active; 'I' for Inactive)
REMARK    1  A    between atoms: C2_3  and  C3_4 
REMARK    2  A    between atoms: C6_14  and  C7_15 
REMARK    3  A    between atoms: C8_16  and  C9_17 
REMARK    4  A    between atoms: C10_23  and  C11_24 
REMARK    5  A    between atoms: C11_24  and  O4_25 
REMARK    6  A    between atoms: C11_24  and  O5_27 
ROOT
HETATM    1  N1  UNL     1      38.482  39.187  37.946  1.00  0.00    -0.194 NA
HETATM    2  C1  UNL     1      38.784  38.364  37.216  1.00  0.00     0.107 C 
HETATM    3  C2  UNL     1      39.147  37.315  36.335  1.00  0.00     0.244 C 
HETATM    4  N3  UNL     1      37.966  36.594  35.803  1.00  0.00    -0.330 N 
ATOM      5  H3  UNL     1      36.987  36.666  36.080  1.00  0.00     0.164 HD
HETATM    6  C4  UNL     1      38.567  35.767  34.793  1.00  0.00     0.190 C 
HETATM    7  N4  UNL     1      38.123  34.497  34.325  1.00  0.00    -0.063 NA
HETATM    8  N5  UNL     1      39.631  36.371  34.335  1.00  0.00    -0.331 N 
ATOM      9  H5  UNL     1      40.254  36.014  33.610  1.00  0.00     0.168 HD
HETATM   10  C5  UNL     1      39.779  37.656  35.044  1.00  0.00     0.065 C 
HETATM   11  C6  UNL     1      40.329  38.659  34.467  1.00  0.00     0.046 C 
ENDROOT
BRANCH   3  12
HETATM   12  C3  UNL     1      39.946  36.244  37.038  1.00  0.00     0.280 C 
HETATM   13  N2  UNL     1      39.256  35.364  37.882  1.00  0.00    -0.058 NA
HETATM   14  O1  UNL     1      41.171  36.137  36.879  1.00  0.00    -0.272 OA
ENDBRANCH   3  12
BRANCH  11  15
HETATM   15  C7  UNL     1      40.560  40.011  34.937  1.00  0.00     0.036 A 
HETATM   16  C8  UNL     1      39.700  41.087  34.956  1.00  0.00     0.132 A 
HETATM   17  N7  UNL     1      40.415  42.086  35.502  1.00  0.00    -0.255 N 
HETATM   18  O3  UNL     1      41.611  41.676  35.797  1.00  0.00    -0.236 OA
ATOM     19  H7  UNL     1      40.068  43.032  35.663  1.00  0.00     0.195 HD
HETATM   20  C10 UNL     1      41.783  40.419  35.484  1.00  0.00     0.143 A 
BRANCH  16  21
HETATM   21  C9  UNL     1      38.326  41.140  34.476  1.00  0.00     0.284 C 
HETATM   22  N6  UNL     1      37.271  41.418  35.386  1.00  0.00    -0.056 NA
HETATM   23  O2  UNL     1      38.003  40.950  33.279  1.00  0.00    -0.269 OA
ENDBRANCH  16  21
BRANCH  20  24
HETATM   24  C11 UNL     1      43.013  39.581  35.663  1.00  0.00     0.315 C 
BRANCH  24  25
HETATM   25  O4  UNL     1      43.423  39.139  34.411  1.00  0.00    -0.365 OA
ATOM     26  H4  UNL     1      43.280  39.841  33.787  1.00  0.00     0.213 HD
ENDBRANCH  24  25
BRANCH  24  27
HETATM   27  O5  UNL     1      42.771  38.519  36.527  1.00  0.00    -0.365 OA
ATOM     28  H5  UNL     1      43.492  38.404  37.135  1.00  0.00     0.213 HD
ENDBRANCH  24  27
ENDBRANCH  20  24
ENDBRANCH  11  15
TORSDOF 6
ENDMDL
MODEL 3
REMARK VINA RESULT: -6.847998236      2.278      5.351
REMARK  6 active torsions:
REMARK  status: ('A' for Active; 'I' for Inactive)
REMARK    1  A    between atoms: C2_3  and  C3_4 
REMARK    2  A    between atoms: C6_14  and  C7_15 
REMARK    3  A    between atoms: C8_16  and  C9_17 
REMARK    4  A    between atoms: C10_23  and  C11_24 
REMARK    5  A    between atoms: C11_24  and  O4_25 
REMARK    6  A    between atoms: C11_24  and  O5_27 
ROOT
HETATM    1  N1  UNL     1      41.341  37.716  32.224  1.00  0.00    -0.194 NA
HETATM    2  C1  UNL     1      41.248  38.476  33.070  1.00  0.00     0.107 C 
HETATM    3  C2  UNL     1      41.163  39.438  34.108  1.00  0.00     0.244 C 
HETATM    4  N3  UNL     1      40.819  40.787  33.597  1.00  0.00    -0.330 N 
ATOM      5  H3  UNL     1      40.772  41.120  32.633  1.00  0.00     0.164 HD
HETATM    6  C4  UNL     1      40.571  41.500  34.819  1.00  0.00     0.190 C 
HETATM    7  N4  UNL     1      40.745  42.891  35.070  1.00  0.00    -0.063 NA
HETATM    8  N5  UNL     1      40.139  40.655  35.717  1.00  0.00    -0.331 N 
ATOM      9  H5  UNL     1      39.883  40.885  36.678  1.00  0.00     0.168 HD
HETATM   10  C5  UNL     1      40.083  39.314  35.106  1.00  0.00     0.065 C 
HETATM   11  C6  UNL     1      39.220  38.453  35.503  1.00  0.00     0.046 C 
ENDROOT
BRANCH   3  12
HETATM   12  C3  UNL     1      42.491  39.634  34.799  1.00  0.00     0.280 C 
HETATM   13  N2  UNL     1      42.766  38.843  35.922  1.00  0.00    -0.058 NA
HETATM   14  O1  UNL     1      43.318  40.464  34.394  1.00  0.00    -0.272 OA
ENDBRANCH   3  12
BRANCH  11  15
HETATM   15  C7  UNL     1      38.954  37.103  35.048  1.00  0.00     0.036 A 
HETATM   16  C8  UNL     1      39.288  35.902  35.636  1.00  0.00     0.132 A 
HETATM   17  N7  UNL     1      38.793  34.967  34.806  1.00  0.00    -0.255 N 
HETATM   18  O3  UNL     1      38.206  35.527  33.794  1.00  0.00    -0.236 OA
ATOM     19  H7  UNL     1      38.869  33.960  34.952  1.00  0.00     0.195 HD
HETATM   20  C10 UNL     1      38.257  36.831  33.864  1.00  0.00     0.143 A 
BRANCH  16  21
HETATM   21  C9  UNL     1      40.028  35.689  36.872  1.00  0.00     0.284 C 
HETATM   22  N6  UNL     1      39.354  35.196  38.021  1.00  0.00    -0.056 NA
HETATM   23  O2  UNL     1      41.256  35.920  36.993  1.00  0.00    -0.269 OA
ENDBRANCH  16  21
BRANCH  20  24
HETATM   24  C11 UNL     1      37.701  37.833  32.897  1.00  0.00     0.315 C 
BRANCH  24  25
HETATM   25  O4  UNL     1      36.315  37.788  32.975  1.00  0.00    -0.365 OA
ATOM     26  H4  UNL     1      35.962  38.408  32.348  1.00  0.00     0.213 HD
ENDBRANCH  24  25
BRANCH  24  27
HETATM   27  O5  UNL     1      38.150  37.580  31.605  1.00  0.00    -0.365 OA
ATOM     28  H5  UNL     1      37.624  38.045  30.966  1.00  0.00     0.213 HD
ENDBRANCH  24  27
ENDBRANCH  20  24
ENDBRANCH  11  15
TORSDOF 6
ENDMDL
MODEL 4
REMARK VINA RESULT: -6.805380940      1.857      2.832
REMARK  6 active torsions:
REMARK  status: ('A' for Active; 'I' for Inactive)
REMARK    1  A    between atoms: C2_3  and  C3_4 
REMARK    2  A    between atoms: C6_14  and  C7_15 
REMARK    3  A    between atoms: C8_16  and  C9_17 
REMARK    4  A    between atoms: C10_23  and  C11_24 
REMARK    5  A    between atoms: C11_24  and  O4_25 
REMARK    6  A    between atoms: C11_24  and  O5_27 
ROOT
HETATM    1  N1  UNL     1      39.403  38.275  33.282  1.00  0.00    -0.194 NA
HETATM    2  C1  UNL     1      39.264  37.449  34.056  1.00  0.00     0.107 C 
HETATM    3  C2  UNL     1      39.072  36.402  34.992  1.00  0.00     0.244 C 
HETATM    4  N3  UNL     1      39.827  35.179  34.629  1.00  0.00    -0.330 N 
ATOM      5  H3  UNL     1      40.331  34.962  33.768  1.00  0.00     0.164 HD
HETATM    6  C4  UNL     1      39.660  34.379  35.811  1.00  0.00     0.190 C 
HETATM    7  N4  UNL     1      39.642  32.958  35.909  1.00  0.00    -0.063 NA
HETATM    8  N5  UNL     1      39.522  35.173  36.839  1.00  0.00    -0.331 N 
ATOM      9  H5  UNL     1      39.387  34.878  37.806  1.00  0.00     0.168 HD
HETATM   10  C5  UNL     1      39.594  36.567  36.363  1.00  0.00     0.065 C 
HETATM   11  C6  UNL     1      40.048  37.493  37.125  1.00  0.00     0.046 C 
ENDROOT
BRANCH   3  12
HETATM   12  C3  UNL     1      37.633  35.946  35.035  1.00  0.00     0.280 C 
HETATM   13  N2  UNL     1      37.063  35.469  33.847  1.00  0.00    -0.058 NA
HETATM   14  O1  UNL     1      36.970  35.987  36.081  1.00  0.00    -0.272 OA
ENDBRANCH   3  12
BRANCH  11  15
HETATM   15  C7  UNL     1      40.240  38.909  36.881  1.00  0.00     0.036 A 
HETATM   16  C8  UNL     1      41.342  39.565  36.376  1.00  0.00     0.132 A 
HETATM   17  N7  UNL     1      40.983  40.861  36.345  1.00  0.00    -0.255 N 
HETATM   18  O3  UNL     1      39.772  41.003  36.791  1.00  0.00    -0.236 OA
ATOM     19  H7  UNL     1      41.577  41.623  36.019  1.00  0.00     0.195 HD
HETATM   20  C10 UNL     1      39.245  39.859  37.138  1.00  0.00     0.143 A 
BRANCH  16  21
HETATM   21  C9  UNL     1      42.619  38.990  35.977  1.00  0.00     0.284 C 
HETATM   22  N6  UNL     1      43.178  39.319  34.714  1.00  0.00    -0.056 NA
HETATM   23  O2  UNL     1      43.276  38.199  36.697  1.00  0.00    -0.269 OA
ENDBRANCH  16  21
BRANCH  20  24
HETATM   24  C11 UNL     1      37.877  39.602  37.696  1.00  0.00     0.315 C 
BRANCH  24  25
HETATM   25  O4  UNL     1      37.069  40.687  37.383  1.00  0.00    -0.365 OA
ATOM     26  H4  UNL     1      36.229  40.566  37.811  1.00  0.00     0.213 HD
ENDBRANCH  24  25
BRANCH  24  27
HETATM   27  O5  UNL     1      37.932  39.383  39.068  1.00  0.00    -0.365 OA
ATOM     28  H5  UNL     1      38.832  39.350  39.371  1.00  0.00     0.213 HD
ENDBRANCH  24  27
ENDBRANCH  20  24
ENDBRANCH  11  15
TORSDOF 6
ENDMDL
MODEL 5
REMARK VINA RESULT: -6.744448935      2.150      5.243
REMARK  6 active torsions:
REMARK  status: ('A' for Active; 'I' for Inactive)
REMARK    1  A    between atoms: C2_3  and  C3_4 
REMARK    2  A    between atoms: C6_14  and  C7_15 
REMARK    3  A    between atoms: C8_16  and  C9_17 
REMARK    4  A    between atoms: C10_23  and  C11_24 
REMARK    5  A    between atoms: C11_24  and  O4_25 
REMARK    6  A    between atoms: C11_24  and  O5_27 
ROOT
HETATM    1  N1  UNL     1      42.703  38.577  36.441  1.00  0.00    -0.194 NA
HETATM    2  C1  UNL     1      41.933  39.139  35.814  1.00  0.00     0.107 C 
HETATM    3  C2  UNL     1      41.002  39.867  35.032  1.00  0.00     0.244 C 
HETATM    4  N3  UNL     1      41.432  39.992  33.618  1.00  0.00    -0.330 N 
ATOM      5  H3  UNL     1      42.327  39.751  33.192  1.00  0.00     0.164 HD
HETATM    6  C4  UNL     1      40.252  40.542  33.009  1.00  0.00     0.190 C 
HETATM    7  N4  UNL     1      40.173  41.387  31.865  1.00  0.00    -0.063 NA
HETATM    8  N5  UNL     1      39.206  40.140  33.681  1.00  0.00    -0.331 N 
ATOM      9  H5  UNL     1      38.236  40.378  33.472  1.00  0.00     0.168 HD
HETATM   10  C5  UNL     1      39.667  39.285  34.791  1.00  0.00     0.065 C 
HETATM   11  C6  UNL     1      38.923  38.340  35.236  1.00  0.00     0.046 C 
ENDROOT
BRANCH   3  12
HETATM   12  C3  UNL     1      40.869  41.295  35.503  1.00  0.00     0.280 C 
HETATM   13  N2  UNL     1      41.949  42.159  35.281  1.00  0.00    -0.058 NA
HETATM   14  O1  UNL     1      39.842  41.700  36.068  1.00  0.00    -0.272 OA
ENDBRANCH   3  12
BRANCH  11  15
HETATM   15  C7  UNL     1      39.160  37.364  36.281  1.00  0.00     0.036 A 
HETATM   16  C8  UNL     1      39.372  36.006  36.175  1.00  0.00     0.132 A 
HETATM   17  N7  UNL     1      39.548  35.589  37.441  1.00  0.00    -0.255 N 
HETATM   18  O3  UNL     1      39.454  36.589  38.263  1.00  0.00    -0.236 OA
ATOM     19  H7  UNL     1      39.730  34.623  37.717  1.00  0.00     0.195 HD
HETATM   20  C10 UNL     1      39.218  37.711  37.636  1.00  0.00     0.143 A 
BRANCH  16  21
HETATM   21  C9  UNL     1      39.387  35.196  34.964  1.00  0.00     0.284 C 
HETATM   22  N6  UNL     1      38.162  34.802  34.364  1.00  0.00    -0.056 NA
HETATM   23  O2  UNL     1      40.441  34.814  34.401  1.00  0.00    -0.269 OA
ENDBRANCH  16  21
BRANCH  20  24
HETATM   24  C11 UNL     1      39.043  39.080  38.223  1.00  0.00     0.315 C 
BRANCH  24  25
HETATM   25  O4  UNL     1      40.301  39.587  38.523  1.00  0.00    -0.365 OA
ATOM     26  H4  UNL     1      40.844  39.515  37.747  1.00  0.00     0.213 HD
ENDBRANCH  24  25
BRANCH  24  27
HETATM   27  O5  UNL     1      38.225  39.039  39.346  1.00  0.00    -0.365 OA
ATOM     28  H5  UNL     1      38.716  38.769  40.113  1.00  0.00     0.213 HD
ENDBRANCH  24  27
ENDBRANCH  20  24
ENDBRANCH  11  15
TORSDOF 6
ENDMDL
