MODEL 1
REMARK VINA RESULT: -5.678616300      0.000      0.000
REMARK  2 active torsions:
REMARK  status: ('A' for Active; 'I' for Inactive)
REMARK    1  A    between atoms: C2_2  and  N1_5 
REMARK    2  A    between atoms: N1_5  and  C5_7 
ROOT
HETATM    1  C5  UNL     1      23.556 -24.826  71.881  1.00  0.00     0.122 C 
HETATM    2  C6  UNL     1      22.337 -24.017  72.178  1.00  0.00     0.031 C 
HETATM    3  C7  UNL     1      21.903 -24.011  73.622  1.00  0.00     0.002 C 
HETATM    4  C8  UNL     1      22.914 -23.528  74.594  1.00  0.00     0.000 C 
HETATM    5  C9  UNL     1      23.968 -24.574  74.909  1.00  0.00     0.006 C 
HETATM    6  C10 UNL     1      25.165 -24.329  74.017  1.00  0.00     0.054 C 
HETATM    7  C11 UNL     1      24.719 -24.186  72.610  1.00  0.00     0.002 C 
HETATM    8  N2  UNL     1      25.434 -23.397  71.910  1.00  0.00    -0.404 N 
ATOM      9  H21 UNL     1      26.217 -22.965  72.402  1.00  0.00     0.155 HD
ATOM     10  H22 UNL     1      25.127 -23.298  70.943  1.00  0.00     0.155 HD
ENDROOT
BRANCH   1  11
HETATM   11  N1  UNL     1      23.865 -24.780  70.509  1.00  0.00    -0.405 N 
ATOM     12  H1  UNL     1      23.932 -23.869  70.055  1.00  0.00     0.154 HD
BRANCH  11  13
HETATM   13  C2  UNL     1      24.082 -25.926  69.744  1.00  0.00     0.015 C 
HETATM   14  C1  UNL     1      25.523 -25.783  69.172  1.00  0.00     0.037 C 
HETATM   15  C3  UNL     1      24.117 -27.251  70.470  1.00  0.00     0.037 C 
HETATM   16  C4  UNL     1      23.177 -26.040  68.561  1.00  0.00     0.037 C 
ENDBRANCH  11  13
ENDBRANCH   1  11
TORSDOF 2
ENDMDL
MODEL 2
REMARK VINA RESULT: -5.678097239      0.097      1.141
REMARK  2 active torsions:
REMARK  status: ('A' for Active; 'I' for Inactive)
REMARK    1  A    between atoms: C2_2  and  N1_5 
REMARK    2  A    between atoms: N1_5  and  C5_7 
ROOT
HETATM    1  C5  UNL     1      23.522 -24.833  71.861  1.00  0.00     0.122 C 
HETATM    2  C6  UNL     1      22.304 -24.035  72.194  1.00  0.00     0.031 C 
HETATM    3  C7  UNL     1      21.893 -24.060  73.645  1.00  0.00     0.002 C 
HETATM    4  C8  UNL     1      22.918 -23.593  74.610  1.00  0.00     0.000 C 
HETATM    5  C9  UNL     1      23.981 -24.640  74.887  1.00  0.00     0.006 C 
HETATM    6  C10 UNL     1      25.162 -24.372  73.981  1.00  0.00     0.054 C 
HETATM    7  C11 UNL     1      24.694 -24.203  72.584  1.00  0.00     0.002 C 
HETATM    8  N2  UNL     1      25.394 -23.397  71.890  1.00  0.00    -0.404 N 
ATOM      9  H21 UNL     1      26.183 -22.972  72.377  1.00  0.00     0.155 HD
ATOM     10  H22 UNL     1      25.071 -23.280  70.930  1.00  0.00     0.155 HD
ENDROOT
BRANCH   1  11
HETATM   11  N1  UNL     1      23.808 -24.758  70.487  1.00  0.00    -0.405 N 
ATOM     12  H1  UNL     1      23.717 -23.857  70.018  1.00  0.00     0.154 HD
BRANCH  11  13
HETATM   13  C2  UNL     1      24.211 -25.863  69.736  1.00  0.00     0.015 C 
HETATM   14  C1  UNL     1      23.288 -25.881  68.483  1.00  0.00     0.037 C 
HETATM   15  C3  UNL     1      25.605 -25.834  69.151  1.00  0.00     0.037 C 
HETATM   16  C4  UNL     1      23.997 -27.170  70.426  1.00  0.00     0.037 C 
ENDBRANCH  11  13
ENDBRANCH   1  11
TORSDOF 2
ENDMDL
MODEL 3
REMARK VINA RESULT: -5.527790524      0.138      1.144
REMARK  2 active torsions:
REMARK  status: ('A' for Active; 'I' for Inactive)
REMARK    1  A    between atoms: C2_2  and  N1_5 
REMARK    2  A    between atoms: N1_5  and  C5_7 
ROOT
HETATM    1  C5  UNL     1      23.569 -24.870  71.827  1.00  0.00     0.122 C 
HETATM    2  C6  UNL     1      22.321 -24.104  72.119  1.00  0.00     0.031 C 
HETATM    3  C7  UNL     1      21.868 -24.133  73.557  1.00  0.00     0.002 C 
HETATM    4  C8  UNL     1      22.851 -23.633  74.549  1.00  0.00     0.000 C 
HETATM    5  C9  UNL     1      23.934 -24.650  74.864  1.00  0.00     0.006 C 
HETATM    6  C10 UNL     1      25.133 -24.353  73.991  1.00  0.00     0.054 C 
HETATM    7  C11 UNL     1      24.702 -24.204  72.580  1.00  0.00     0.002 C 
HETATM    8  N2  UNL     1      25.399 -23.382  71.902  1.00  0.00    -0.404 N 
ATOM      9  H21 UNL     1      26.162 -22.933  72.410  1.00  0.00     0.155 HD
ATOM     10  H22 UNL     1      25.102 -23.279  70.932  1.00  0.00     0.155 HD
ENDROOT
BRANCH   1  11
HETATM   11  N1  UNL     1      23.894 -24.794  70.461  1.00  0.00    -0.405 N 
ATOM     12  H1  UNL     1      23.920 -23.877  70.016  1.00  0.00     0.154 HD
BRANCH  11  13
HETATM   13  C2  UNL     1      24.181 -25.919  69.687  1.00  0.00     0.015 C 
HETATM   14  C1  UNL     1      24.169 -27.123  70.673  1.00  0.00     0.037 C 
HETATM   15  C3  UNL     1      23.172 -26.312  68.632  1.00  0.00     0.037 C 
HETATM   16  C4  UNL     1      25.544 -25.898  69.076  1.00  0.00     0.037 C 
ENDBRANCH  11  13
ENDBRANCH   1  11
TORSDOF 2
ENDMDL
MODEL 4
REMARK VINA RESULT: -5.282763179      1.451      4.523
REMARK  2 active torsions:
REMARK  status: ('A' for Active; 'I' for Inactive)
REMARK    1  A    between atoms: C2_2  and  N1_5 
REMARK    2  A    between atoms: N1_5  and  C5_7 
ROOT
HETATM    1  C5  UNL     1      24.199 -24.698  71.566  1.00  0.00     0.122 C 
HETATM    2  C6  UNL     1      23.168 -25.556  70.908  1.00  0.00     0.031 C 
HETATM    3  C7  UNL     1      23.371 -25.790  69.432  1.00  0.00     0.002 C 
HETATM    4  C8  UNL     1      24.666 -26.408  69.053  1.00  0.00     0.000 C 
HETATM    5  C9  UNL     1      25.812 -25.413  69.059  1.00  0.00     0.006 C 
HETATM    6  C10 UNL     1      26.517 -25.505  70.395  1.00  0.00     0.054 C 
HETATM    7  C11 UNL     1      25.521 -25.432  71.491  1.00  0.00     0.002 C 
HETATM    8  N2  UNL     1      25.837 -26.096  72.531  1.00  0.00    -0.404 N 
ATOM      9  H21 UNL     1      26.727 -26.591  72.480  1.00  0.00     0.155 HD
ATOM     10  H22 UNL     1      25.152 -26.046  73.285  1.00  0.00     0.155 HD
ENDROOT
BRANCH   1  11
HETATM   11  N1  UNL     1      23.909 -24.527  72.932  1.00  0.00    -0.405 N 
ATOM     12  H1  UNL     1      24.453 -25.053  73.615  1.00  0.00     0.154 HD
BRANCH  11  13
HETATM   13  C2  UNL     1      22.909 -23.671  73.392  1.00  0.00     0.015 C 
HETATM   14  C1  UNL     1      23.354 -23.231  74.817  1.00  0.00     0.037 C 
HETATM   15  C3  UNL     1      22.722 -22.363  72.657  1.00  0.00     0.037 C 
HETATM   16  C4  UNL     1      21.579 -24.332  73.559  1.00  0.00     0.037 C 
ENDBRANCH  11  13
ENDBRANCH   1  11
TORSDOF 2
ENDMDL
MODEL 5
REMARK VINA RESULT: -5.263171237      1.606      4.644
REMARK  2 active torsions:
REMARK  status: ('A' for Active; 'I' for Inactive)
REMARK    1  A    between atoms: C2_2  and  N1_5 
REMARK    2  A    between atoms: N1_5  and  C5_7 
ROOT
HETATM    1  C5  UNL     1      24.400 -24.923  71.870  1.00  0.00     0.122 C 
HETATM    2  C6  UNL     1      23.273 -25.511  71.085  1.00  0.00     0.031 C 
HETATM    3  C7  UNL     1      23.448 -25.487  69.587  1.00  0.00     0.002 C 
HETATM    4  C8  UNL     1      24.658 -26.174  69.072  1.00  0.00     0.000 C 
HETATM    5  C9  UNL     1      25.918 -25.344  69.238  1.00  0.00     0.006 C 
HETATM    6  C10 UNL     1      26.603 -25.769  70.518  1.00  0.00     0.054 C 
HETATM    7  C11 UNL     1      25.622 -25.784  71.630  1.00  0.00     0.002 C 
HETATM    8  N2  UNL     1      25.853 -26.665  72.521  1.00  0.00    -0.404 N 
ATOM      9  H21 UNL     1      26.676 -27.245  72.360  1.00  0.00     0.155 HD
ATOM     10  H22 UNL     1      25.178 -26.675  73.286  1.00  0.00     0.155 HD
ENDROOT
BRANCH   1  11
HETATM   11  N1  UNL     1      24.130 -24.978  73.249  1.00  0.00    -0.405 N 
ATOM     12  H1  UNL     1      23.879 -25.877  73.661  1.00  0.00     0.154 HD
BRANCH  11  13
HETATM   13  C2  UNL     1      24.193 -23.858  74.077  1.00  0.00     0.015 C 
HETATM   14  C1  UNL     1      23.424 -24.249  75.373  1.00  0.00     0.037 C 
HETATM   15  C3  UNL     1      25.555 -23.443  74.583  1.00  0.00     0.037 C 
HETATM   16  C4  UNL     1      23.491 -22.660  73.525  1.00  0.00     0.037 C 
ENDBRANCH  11  13
ENDBRANCH   1  11
TORSDOF 2
ENDMDL
