MODEL 1
REMARK VINA RESULT: -5.937747262      0.000      0.000
REMARK  2 active torsions:
REMARK  status: ('A' for Active; 'I' for Inactive)
REMARK    1  A    between atoms: N1_2  and  O1_3 
REMARK    2  A    between atoms: N1_2  and  C2_5 
ROOT
HETATM    1  C2  UNL     1      22.689 -23.487  72.806  1.00  0.00     0.038 C 
HETATM    2  C3  UNL     1      22.015 -24.315  73.893  1.00  0.00     0.035 C 
HETATM    3  C4  UNL     1      22.488 -24.288  71.528  1.00  0.00     0.027 C 
HETATM    4  C5  UNL     1      23.493 -25.398  71.378  1.00  0.00     0.002 C 
HETATM    5  C6  UNL     1      24.831 -24.698  71.233  1.00  0.00     0.005 C 
HETATM    6  C7  UNL     1      25.157 -23.982  72.488  1.00  0.00    -0.008 C 
HETATM    7  C8  UNL     1      25.671 -24.938  73.567  1.00  0.00     0.005 C 
HETATM    8  C9  UNL     1      25.740 -23.990  74.728  1.00  0.00     0.001 C 
HETATM    9  C10 UNL     1      24.443 -23.218  74.590  1.00  0.00     0.007 C 
HETATM   10  C11 UNL     1      24.109 -23.167  73.115  1.00  0.00     0.014 C 
ENDROOT
BRANCH   1  11
HETATM   11  N1  UNL     1      21.924 -22.272  72.568  1.00  0.00    -0.194 NA
HETATM   12  C1  UNL     1      20.578 -22.494  72.177  1.00  0.00     0.144 C 
BRANCH  11  13
HETATM   13  O1  UNL     1      22.522 -21.454  71.684  1.00  0.00    -0.313 OA
ATOM     14  H1  UNL     1      23.462 -21.590  71.708  1.00  0.00     0.237 HD
ENDBRANCH  11  13
ENDBRANCH   1  11
TORSDOF 2
ENDMDL
MODEL 2
REMARK VINA RESULT: -5.891488459      0.923      1.148
REMARK  2 active torsions:
REMARK  status: ('A' for Active; 'I' for Inactive)
REMARK    1  A    between atoms: N1_2  and  O1_3 
REMARK    2  A    between atoms: N1_2  and  C2_5 
ROOT
HETATM    1  C2  UNL     1      22.307 -23.122  72.908  1.00  0.00     0.038 C 
HETATM    2  C3  UNL     1      21.325 -24.166  73.427  1.00  0.00     0.035 C 
HETATM    3  C4  UNL     1      22.813 -23.689  71.590  1.00  0.00     0.027 C 
HETATM    4  C5  UNL     1      23.910 -24.702  71.779  1.00  0.00     0.002 C 
HETATM    5  C6  UNL     1      25.066 -23.920  72.375  1.00  0.00     0.005 C 
HETATM    6  C7  UNL     1      24.691 -23.427  73.721  1.00  0.00    -0.008 C 
HETATM    7  C8  UNL     1      24.778 -24.534  74.773  1.00  0.00     0.005 C 
HETATM    8  C9  UNL     1      24.189 -23.810  75.948  1.00  0.00     0.001 C 
HETATM    9  C10 UNL     1      23.009 -23.091  75.324  1.00  0.00     0.007 C 
HETATM   10  C11 UNL     1      23.377 -22.792  73.887  1.00  0.00     0.014 C 
ENDROOT
BRANCH   1  11
HETATM   11  N1  UNL     1      21.585 -21.925  72.507  1.00  0.00    -0.194 NA
HETATM   12  C1  UNL     1      20.255 -22.160  72.071  1.00  0.00     0.144 C 
BRANCH  11  13
HETATM   13  O1  UNL     1      22.245 -21.214  71.576  1.00  0.00    -0.313 OA
ATOM     14  H1  UNL     1      23.108 -21.589  71.441  1.00  0.00     0.237 HD
ENDBRANCH  11  13
ENDBRANCH   1  11
TORSDOF 2
ENDMDL
MODEL 3
REMARK VINA RESULT: -5.804692662      1.210      1.303
REMARK  2 active torsions:
REMARK  status: ('A' for Active; 'I' for Inactive)
REMARK    1  A    between atoms: N1_2  and  O1_3 
REMARK    2  A    between atoms: N1_2  and  C2_5 
ROOT
HETATM    1  C2  UNL     1      22.185 -23.625  72.490  1.00  0.00     0.038 C 
HETATM    2  C3  UNL     1      21.317 -24.584  73.297  1.00  0.00     0.035 C 
HETATM    3  C4  UNL     1      22.647 -24.438  71.289  1.00  0.00     0.027 C 
HETATM    4  C5  UNL     1      23.824 -25.320  71.606  1.00  0.00     0.002 C 
HETATM    5  C6  UNL     1      24.956 -24.360  71.928  1.00  0.00     0.005 C 
HETATM    6  C7  UNL     1      24.632 -23.605  73.161  1.00  0.00    -0.008 C 
HETATM    7  C8  UNL     1      24.866 -24.447  74.417  1.00  0.00     0.005 C 
HETATM    8  C9  UNL     1      24.301 -23.516  75.450  1.00  0.00     0.001 C 
HETATM    9  C10 UNL     1      23.034 -23.022  74.780  1.00  0.00     0.007 C 
HETATM   10  C11 UNL     1      23.288 -23.027  73.288  1.00  0.00     0.014 C 
ENDROOT
BRANCH   1  11
HETATM   11  N1  UNL     1      21.353 -22.590  71.897  1.00  0.00    -0.194 NA
HETATM   12  C1  UNL     1      21.735 -21.265  72.233  1.00  0.00     0.144 C 
BRANCH  11  13
HETATM   13  O1  UNL     1      20.046 -22.764  72.165  1.00  0.00    -0.313 OA
ATOM     14  H1  UNL     1      19.943 -23.452  72.811  1.00  0.00     0.237 HD
ENDBRANCH  11  13
ENDBRANCH   1  11
TORSDOF 2
ENDMDL
MODEL 4
REMARK VINA RESULT: -5.295199447      2.390      3.864
REMARK  2 active torsions:
REMARK  status: ('A' for Active; 'I' for Inactive)
REMARK    1  A    between atoms: N1_2  and  O1_3 
REMARK    2  A    between atoms: N1_2  and  C2_5 
ROOT
HETATM    1  C2  UNL     1      24.840 -25.258  71.371  1.00  0.00     0.038 C 
HETATM    2  C3  UNL     1      23.990 -26.522  71.319  1.00  0.00     0.035 C 
HETATM    3  C4  UNL     1      26.094 -25.666  72.131  1.00  0.00     0.027 C 
HETATM    4  C5  UNL     1      25.894 -25.656  73.622  1.00  0.00     0.002 C 
HETATM    5  C6  UNL     1      25.641 -24.201  73.973  1.00  0.00     0.005 C 
HETATM    6  C7  UNL     1      24.368 -23.756  73.360  1.00  0.00    -0.008 C 
HETATM    7  C8  UNL     1      23.156 -24.253  74.151  1.00  0.00     0.005 C 
HETATM    8  C9  UNL     1      22.058 -23.817  73.225  1.00  0.00     0.001 C 
HETATM    9  C10 UNL     1      22.612 -24.201  71.867  1.00  0.00     0.007 C 
HETATM   10  C11 UNL     1      24.119 -24.095  71.953  1.00  0.00     0.014 C 
ENDROOT
BRANCH   1  11
HETATM   11  N1  UNL     1      25.339 -24.945  70.040  1.00  0.00    -0.194 NA
HETATM   12  C1  UNL     1      24.729 -25.687  68.996  1.00  0.00     0.144 C 
BRANCH  11  13
HETATM   13  O1  UNL     1      26.676 -25.058  69.952  1.00  0.00    -0.313 OA
ATOM     14  H1  UNL     1      27.076 -24.205  70.073  1.00  0.00     0.237 HD
ENDBRANCH  11  13
ENDBRANCH   1  11
TORSDOF 2
ENDMDL
MODEL 5
REMARK VINA RESULT: -5.267360342      1.027      1.059
REMARK  2 active torsions:
REMARK  status: ('A' for Active; 'I' for Inactive)
REMARK    1  A    between atoms: N1_2  and  O1_3 
REMARK    2  A    between atoms: N1_2  and  C2_5 
ROOT
HETATM    1  C2  UNL     1      23.177 -23.544  72.530  1.00  0.00     0.038 C 
HETATM    2  C3  UNL     1      22.410 -24.105  73.721  1.00  0.00     0.035 C 
HETATM    3  C4  UNL     1      22.636 -24.303  71.328  1.00  0.00     0.027 C 
HETATM    4  C5  UNL     1      23.272 -25.657  71.166  1.00  0.00     0.002 C 
HETATM    5  C6  UNL     1      24.731 -25.371  70.863  1.00  0.00     0.005 C 
HETATM    6  C7  UNL     1      25.366 -24.729  72.037  1.00  0.00    -0.008 C 
HETATM    7  C8  UNL     1      25.698 -25.749  73.128  1.00  0.00     0.005 C 
HETATM    8  C9  UNL     1      26.142 -24.816  74.216  1.00  0.00     0.001 C 
HETATM    9  C10 UNL     1      25.104 -23.714  74.138  1.00  0.00     0.007 C 
HETATM   10  C11 UNL     1      24.653 -23.627  72.696  1.00  0.00     0.014 C 
ENDROOT
BRANCH   1  11
HETATM   11  N1  UNL     1      22.761 -22.172  72.279  1.00  0.00    -0.194 NA
HETATM   12  C1  UNL     1      22.587 -21.388  73.448  1.00  0.00     0.144 C 
BRANCH  11  13
HETATM   13  O1  UNL     1      21.652 -22.103  71.520  1.00  0.00    -0.313 OA
ATOM     14  H1  UNL     1      21.252 -21.247  71.619  1.00  0.00     0.237 HD
ENDBRANCH  11  13
ENDBRANCH   1  11
TORSDOF 2
ENDMDL
