MODEL 1
REMARK VINA RESULT: -5.693259905      0.000      0.000
REMARK  3 active torsions:
REMARK  status: ('A' for Active; 'I' for Inactive)
REMARK    1  A    between atoms: C2_2  and  C3_3 
REMARK    2  A    between atoms: C3_3  and  O1_4 
REMARK    3  A    between atoms: C7_9  and  C8_10 
ROOT
HETATM    1  C3  UNL     1      22.475 -23.289  72.503  1.00  0.00     0.242 C 
HETATM    2  C4  UNL     1      22.724 -23.444  73.991  1.00  0.00     0.073 C 
HETATM    3  C5  UNL     1      24.216 -23.232  74.189  1.00  0.00     0.007 C 
HETATM    4  C6  UNL     1      24.896 -24.382  73.457  1.00  0.00     0.034 C 
HETATM    5  C7  UNL     1      24.612 -24.262  71.972  1.00  0.00     0.197 C 
HETATM    6  N1  UNL     1      23.189 -24.317  71.786  1.00  0.00    -0.035 N 
ATOM      7  H11 UNL     1      22.954 -24.296  70.794  1.00  0.00     0.281 HD
ATOM      8  H12 UNL     1      22.828 -25.240  72.026  1.00  0.00     0.281 HD
ENDROOT
BRANCH   1   9
HETATM    9  C2  UNL     1      21.023 -23.473  72.280  1.00  0.00     0.030 C 
HETATM   10  C1  UNL     1      20.266 -22.385  72.196  1.00  0.00     0.012 C 
ENDBRANCH   1   9
BRANCH   1  11
HETATM   11  O1  UNL     1      22.923 -22.043  72.122  1.00  0.00    -0.362 OA
ATOM     12  H1  UNL     1      23.806 -21.860  72.419  1.00  0.00     0.213 HD
ENDBRANCH   1  11
BRANCH   5  13
HETATM   13  C8  UNL     1      25.220 -25.486  71.323  1.00  0.00    -0.023 C 
HETATM   14  C9  UNL     1      24.144 -26.387  70.815  1.00  0.00     0.016 C 
HETATM   15  C10 UNL     1      26.054 -26.239  72.360  1.00  0.00     0.016 C 
HETATM   16  C11 UNL     1      26.159 -25.117  70.199  1.00  0.00     0.016 C 
ENDBRANCH   5  13
TORSDOF 3
ENDMDL
MODEL 2
REMARK VINA RESULT: -5.597869332      0.480      1.245
REMARK  3 active torsions:
REMARK  status: ('A' for Active; 'I' for Inactive)
REMARK    1  A    between atoms: C2_2  and  C3_3 
REMARK    2  A    between atoms: C3_3  and  O1_4 
REMARK    3  A    between atoms: C7_9  and  C8_10 
ROOT
HETATM    1  C3  UNL     1      22.787 -23.615  72.766  1.00  0.00     0.242 C 
HETATM    2  C4  UNL     1      23.238 -23.717  74.211  1.00  0.00     0.073 C 
HETATM    3  C5  UNL     1      24.725 -23.404  74.207  1.00  0.00     0.007 C 
HETATM    4  C6  UNL     1      25.380 -24.525  73.410  1.00  0.00     0.034 C 
HETATM    5  C7  UNL     1      24.897 -24.460  71.974  1.00  0.00     0.197 C 
HETATM    6  N1  UNL     1      23.468 -24.611  71.978  1.00  0.00    -0.035 N 
ATOM      7  H11 UNL     1      23.105 -24.629  71.025  1.00  0.00     0.281 HD
ATOM      8  H12 UNL     1      23.205 -25.550  72.277  1.00  0.00     0.281 HD
ENDROOT
BRANCH   1   9
HETATM    9  C2  UNL     1      21.334 -23.898  72.740  1.00  0.00     0.030 C 
HETATM   10  C1  UNL     1      20.525 -22.944  72.291  1.00  0.00     0.012 C 
ENDBRANCH   1   9
BRANCH   1  11
HETATM   11  O1  UNL     1      23.097 -22.351  72.310  1.00  0.00    -0.362 OA
ATOM     12  H1  UNL     1      22.983 -22.258  71.372  1.00  0.00     0.213 HD
ENDBRANCH   1  11
BRANCH   5  13
HETATM   13  C8  UNL     1      25.495 -25.658  71.269  1.00  0.00    -0.023 C 
HETATM   14  C9  UNL     1      26.255 -25.219  70.062  1.00  0.00     0.016 C 
HETATM   15  C10 UNL     1      24.368 -26.595  70.836  1.00  0.00     0.016 C 
HETATM   16  C11 UNL     1      26.394 -26.456  72.184  1.00  0.00     0.016 C 
ENDBRANCH   5  13
TORSDOF 3
ENDMDL
MODEL 3
REMARK VINA RESULT: -5.557616400      1.112      1.758
REMARK  3 active torsions:
REMARK  status: ('A' for Active; 'I' for Inactive)
REMARK    1  A    between atoms: C2_2  and  C3_3 
REMARK    2  A    between atoms: C3_3  and  O1_4 
REMARK    3  A    between atoms: C7_9  and  C8_10 
ROOT
HETATM    1  C3  UNL     1      22.895 -23.879  72.472  1.00  0.00     0.242 C 
HETATM    2  C4  UNL     1      23.863 -24.272  73.572  1.00  0.00     0.073 C 
HETATM    3  C5  UNL     1      25.254 -24.105  72.984  1.00  0.00     0.007 C 
HETATM    4  C6  UNL     1      25.351 -25.129  71.860  1.00  0.00     0.034 C 
HETATM    5  C7  UNL     1      24.352 -24.771  70.776  1.00  0.00     0.197 C 
HETATM    6  N1  UNL     1      23.040 -24.784  71.359  1.00  0.00    -0.035 N 
ATOM      7  H11 UNL     1      22.328 -24.602  70.650  1.00  0.00     0.281 HD
ATOM      8  H12 UNL     1      22.773 -25.731  71.627  1.00  0.00     0.281 HD
ENDROOT
BRANCH   1   9
HETATM    9  C2  UNL     1      21.528 -24.014  73.022  1.00  0.00     0.030 C 
HETATM   10  C1  UNL     1      20.534 -23.424  72.366  1.00  0.00     0.012 C 
ENDBRANCH   1   9
BRANCH   1  11
HETATM   11  O1  UNL     1      23.193 -22.591  72.082  1.00  0.00    -0.362 OA
ATOM     12  H1  UNL     1      23.772 -22.556  71.331  1.00  0.00     0.213 HD
ENDBRANCH   1  11
BRANCH   5  13
HETATM   13  C8  UNL     1      24.423 -25.879  69.748  1.00  0.00    -0.023 C 
HETATM   14  C9  UNL     1      24.305 -27.209  70.416  1.00  0.00     0.016 C 
HETATM   15  C10 UNL     1      25.767 -25.802  69.024  1.00  0.00     0.016 C 
HETATM   16  C11 UNL     1      23.354 -25.734  68.692  1.00  0.00     0.016 C 
ENDBRANCH   5  13
TORSDOF 3
ENDMDL
MODEL 4
REMARK VINA RESULT: -5.498116708      1.914      4.297
REMARK  3 active torsions:
REMARK  status: ('A' for Active; 'I' for Inactive)
REMARK    1  A    between atoms: C2_2  and  C3_3 
REMARK    2  A    between atoms: C3_3  and  O1_4 
REMARK    3  A    between atoms: C7_9  and  C8_10 
ROOT
HETATM    1  C3  UNL     1      23.988 -25.558  70.203  1.00  0.00     0.242 C 
HETATM    2  C4  UNL     1      25.429 -25.099  70.316  1.00  0.00     0.073 C 
HETATM    3  C5  UNL     1      25.793 -25.226  71.786  1.00  0.00     0.007 C 
HETATM    4  C6  UNL     1      24.904 -24.228  72.518  1.00  0.00     0.034 C 
HETATM    5  C7  UNL     1      23.456 -24.652  72.369  1.00  0.00     0.197 C 
HETATM    6  N1  UNL     1      23.141 -24.676  70.967  1.00  0.00    -0.035 N 
ATOM      7  H11 UNL     1      22.157 -24.903  70.822  1.00  0.00     0.281 HD
ATOM      8  H12 UNL     1      23.156 -23.734  70.578  1.00  0.00     0.281 HD
ENDROOT
BRANCH   1   9
HETATM    9  C2  UNL     1      23.610 -25.463  68.775  1.00  0.00     0.030 C 
HETATM   10  C1  UNL     1      24.493 -25.874  67.871  1.00  0.00     0.012 C 
ENDBRANCH   1   9
BRANCH   1  11
HETATM   11  O1  UNL     1      23.908 -26.842  70.695  1.00  0.00    -0.362 OA
ATOM     12  H1  UNL     1      23.636 -26.874  71.604  1.00  0.00     0.213 HD
ENDBRANCH   1  11
BRANCH   5  13
HETATM   13  C8  UNL     1      22.625 -23.568  73.020  1.00  0.00    -0.023 C 
HETATM   14  C9  UNL     1      22.886 -23.532  74.489  1.00  0.00     0.016 C 
HETATM   15  C10 UNL     1      21.144 -23.865  72.783  1.00  0.00     0.016 C 
HETATM   16  C11 UNL     1      22.897 -22.212  72.412  1.00  0.00     0.016 C 
ENDBRANCH   5  13
TORSDOF 3
ENDMDL
MODEL 5
REMARK VINA RESULT: -5.327533031      1.832      4.638
REMARK  3 active torsions:
REMARK  status: ('A' for Active; 'I' for Inactive)
REMARK    1  A    between atoms: C2_2  and  C3_3 
REMARK    2  A    between atoms: C3_3  and  O1_4 
REMARK    3  A    between atoms: C7_9  and  C8_10 
ROOT
HETATM    1  C3  UNL     1      25.495 -25.637  71.647  1.00  0.00     0.242 C 
HETATM    2  C4  UNL     1      24.442 -26.457  70.926  1.00  0.00     0.073 C 
HETATM    3  C5  UNL     1      23.452 -25.456  70.356  1.00  0.00     0.007 C 
HETATM    4  C6  UNL     1      22.806 -24.784  71.561  1.00  0.00     0.034 C 
HETATM    5  C7  UNL     1      23.862 -24.000  72.316  1.00  0.00     0.197 C 
HETATM    6  N1  UNL     1      24.882 -24.919  72.737  1.00  0.00    -0.035 N 
ATOM      7  H11 UNL     1      25.588 -24.443  73.299  1.00  0.00     0.281 HD
ATOM      8  H12 UNL     1      24.518 -25.567  73.436  1.00  0.00     0.281 HD
ENDROOT
BRANCH   1   9
HETATM    9  C2  UNL     1      26.487 -26.587  72.200  1.00  0.00     0.030 C 
HETATM   10  C1  UNL     1      26.560 -26.707  73.521  1.00  0.00     0.012 C 
ENDBRANCH   1   9
BRANCH   1  11
HETATM   11  O1  UNL     1      26.043 -24.754  70.742  1.00  0.00    -0.362 OA
ATOM     12  H1  UNL     1      26.349 -23.951  71.146  1.00  0.00     0.213 HD
ENDBRANCH   1  11
BRANCH   5  13
HETATM   13  C8  UNL     1      23.182 -23.451  73.552  1.00  0.00    -0.023 C 
HETATM   14  C9  UNL     1      24.104 -23.526  74.723  1.00  0.00     0.016 C 
HETATM   15  C10 UNL     1      21.934 -24.284  73.845  1.00  0.00     0.016 C 
HETATM   16  C11 UNL     1      22.716 -22.029  73.350  1.00  0.00     0.016 C 
ENDBRANCH   5  13
TORSDOF 3
ENDMDL
