MODEL 1
REMARK VINA RESULT: -8.009240701      0.000      0.000
REMARK  9 active torsions:
REMARK  status: ('A' for Active; 'I' for Inactive)
REMARK    1  A    between atoms: N1_1  and  C1_4 
REMARK    2  A    between atoms: C3_8  and  O1_9 
REMARK    3  A    between atoms: O1_9  and  C4_10 
REMARK    4  A    between atoms: C4_10  and  C5_11 
REMARK    5  A    between atoms: C5_11  and  N3_12 
REMARK    6  A    between atoms: C5_11  and  O2_16 
REMARK    7  A    between atoms: C5_11  and  C6_18 
REMARK    8  A    between atoms: C6_18  and  N4_19 
REMARK    9  A    between atoms: C8_27  and  N8_28 
ROOT
HETATM    1  C4  UNL     1      18.096  10.552  28.191  1.00  0.00     0.246 C 
ENDROOT
BRANCH   1   2
HETATM    2  O1  UNL     1      18.423  10.307  29.513  1.00  0.00    -0.341 OA
BRANCH   2   3
HETATM    3  C3  UNL     1      19.205   9.313  30.015  1.00  0.00     0.128 A 
HETATM    4  C2  UNL     1      20.569   9.523  30.091  1.00  0.00     0.146 A 
HETATM    5  N2  UNL     1      21.388   8.570  30.580  1.00  0.00    -0.199 N 
HETATM    6  C1  UNL     1      20.818   7.416  30.985  1.00  0.00     0.677 A 
ATOM      7  H2  UNL     1      22.395   8.717  30.642  1.00  0.00     0.183 HD
HETATM    8  N9  UNL     1      19.490   7.192  30.919  1.00  0.00    -0.175 N 
HETATM    9  C8  UNL     1      18.650   8.125  30.436  1.00  0.00     0.149 A 
ATOM     10  H9  UNL     1      19.116   6.299  31.242  1.00  0.00     0.186 HD
BRANCH   6  11
HETATM   11  N1  UNL     1      21.585   6.480  31.461  1.00  0.00    -0.234 N 
ATOM     12  H12 UNL     1      22.037   6.631  32.362  1.00  0.00     0.174 HD
ATOM     13  H11 UNL     1      21.708   5.628  30.914  1.00  0.00     0.174 HD
ENDBRANCH   6  11
BRANCH   9  14
HETATM   14  N8  UNL     1      17.370   7.885  30.381  1.00  0.00    -0.383 N 
ATOM     15  H82 UNL     1      16.868   7.598  31.221  1.00  0.00     0.157 HD
ATOM     16  H81 UNL     1      16.828   7.970  29.522  1.00  0.00     0.157 HD
ENDBRANCH   9  14
ENDBRANCH   2   3
ENDBRANCH   1   2
BRANCH   1  17
HETATM   17  C5  UNL     1      17.342  11.861  28.120  1.00  0.00     0.262 C 
BRANCH  17  18
HETATM   18  N3  UNL     1      17.989  12.752  27.208  1.00  0.00    -0.043 N 
ATOM     19  H33 UNL     1      18.981  12.537  27.103  1.00  0.00     0.278 HD
ATOM     20  H32 UNL     1      17.698  12.590  26.244  1.00  0.00     0.278 HD
ATOM     21  H31 UNL     1      17.837  13.719  27.496  1.00  0.00     0.278 HD
ENDBRANCH  17  18
BRANCH  17  22
HETATM   22  O2  UNL     1      17.333  12.456  29.385  1.00  0.00    -0.362 OA
ATOM     23  H2  UNL     1      16.638  13.103  29.422  1.00  0.00     0.212 HD
ENDBRANCH  17  22
BRANCH  17  24
HETATM   24  C6  UNL     1      15.901  11.652  27.712  1.00  0.00     0.222 C 
BRANCH  24  25
HETATM   25  N4  UNL     1      15.265  10.715  28.610  1.00  0.00    -0.266 N 
HETATM   26  C7  UNL     1      14.703   9.551  28.247  1.00  0.00     0.220 A 
HETATM   27  N5  UNL     1      14.220   8.961  29.355  1.00  0.00    -0.279 N 
HETATM   28  N6  UNL     1      14.492   9.766  30.359  1.00  0.00    -0.227 N 
ATOM     29  H5  UNL     1      13.737   8.064  29.406  1.00  0.00     0.189 HD
HETATM   30  N7  UNL     1      15.124  10.830  29.925  1.00  0.00    -0.225 N 
ATOM     31  H6  UNL     1      14.247   9.588  31.334  1.00  0.00     0.210 HD
ATOM     32  H7  UNL     1      15.450  11.608  30.497  1.00  0.00     0.210 HD
ENDBRANCH  24  25
ENDBRANCH  17  24
ENDBRANCH   1  17
TORSDOF 9
ENDMDL
MODEL 2
REMARK VINA RESULT: -7.954747965      0.565      1.538
REMARK  9 active torsions:
REMARK  status: ('A' for Active; 'I' for Inactive)
REMARK    1  A    between atoms: N1_1  and  C1_4 
REMARK    2  A    between atoms: C3_8  and  O1_9 
REMARK    3  A    between atoms: O1_9  and  C4_10 
REMARK    4  A    between atoms: C4_10  and  C5_11 
REMARK    5  A    between atoms: C5_11  and  N3_12 
REMARK    6  A    between atoms: C5_11  and  O2_16 
REMARK    7  A    between atoms: C5_11  and  C6_18 
REMARK    8  A    between atoms: C6_18  and  N4_19 
REMARK    9  A    between atoms: C8_27  and  N8_28 
ROOT
HETATM    1  C4  UNL     1      18.018  10.443  28.024  1.00  0.00     0.246 C 
ENDROOT
BRANCH   1   2
HETATM    2  O1  UNL     1      18.391  10.251  29.342  1.00  0.00    -0.341 OA
BRANCH   2   3
HETATM    3  C3  UNL     1      19.205   9.287  29.852  1.00  0.00     0.128 A 
HETATM    4  C2  UNL     1      18.687   8.021  30.045  1.00  0.00     0.146 A 
HETATM    5  N2  UNL     1      19.451   7.031  30.547  1.00  0.00    -0.199 N 
HETATM    6  C1  UNL     1      20.731   7.334  30.851  1.00  0.00     0.677 A 
ATOM      7  H2  UNL     1      19.078   6.093  30.691  1.00  0.00     0.183 HD
HETATM    8  N9  UNL     1      21.256   8.562  30.671  1.00  0.00    -0.175 N 
HETATM    9  C8  UNL     1      20.516   9.568  30.171  1.00  0.00     0.149 A 
ATOM     10  H9  UNL     1      22.231   8.732  30.917  1.00  0.00     0.186 HD
BRANCH   6  11
HETATM   11  N1  UNL     1      21.490   6.397  31.338  1.00  0.00    -0.234 N 
ATOM     12  H12 UNL     1      21.051   5.617  31.827  1.00  0.00     0.174 HD
ATOM     13  H11 UNL     1      22.500   6.477  31.216  1.00  0.00     0.174 HD
ENDBRANCH   6  11
BRANCH   9  14
HETATM   14  N8  UNL     1      21.045  10.748  30.006  1.00  0.00    -0.383 N 
ATOM     15  H82 UNL     1      20.454  11.543  29.764  1.00  0.00     0.157 HD
ATOM     16  H81 UNL     1      22.044  10.925  30.108  1.00  0.00     0.157 HD
ENDBRANCH   9  14
ENDBRANCH   2   3
ENDBRANCH   1   2
BRANCH   1  17
HETATM   17  C5  UNL     1      17.251  11.745  27.930  1.00  0.00     0.262 C 
BRANCH  17  18
HETATM   18  N3  UNL     1      17.844  12.593  26.943  1.00  0.00    -0.043 N 
ATOM     19  H33 UNL     1      17.540  13.562  27.040  1.00  0.00     0.278 HD
ATOM     20  H32 UNL     1      18.841  12.732  27.107  1.00  0.00     0.278 HD
ATOM     21  H31 UNL     1      17.658  12.226  26.010  1.00  0.00     0.278 HD
ENDBRANCH  17  18
BRANCH  17  22
HETATM   22  O2  UNL     1      17.306  12.401  29.163  1.00  0.00    -0.362 OA
ATOM     23  H2  UNL     1      16.981  13.288  29.060  1.00  0.00     0.212 HD
ENDBRANCH  17  22
BRANCH  17  24
HETATM   24  C6  UNL     1      15.792  11.510  27.610  1.00  0.00     0.222 C 
BRANCH  24  25
HETATM   25  N4  UNL     1      15.213  10.611  28.582  1.00  0.00    -0.266 N 
HETATM   26  C7  UNL     1      14.648   9.425  28.302  1.00  0.00     0.220 A 
HETATM   27  N5  UNL     1      14.228   8.884  29.459  1.00  0.00    -0.279 N 
HETATM   28  N6  UNL     1      14.539   9.738  30.410  1.00  0.00    -0.227 N 
ATOM     29  H5  UNL     1      13.759   7.986  29.577  1.00  0.00     0.189 HD
HETATM   30  N7  UNL     1      15.136  10.786  29.895  1.00  0.00    -0.225 N 
ATOM     31  H6  UNL     1      14.345   9.605  31.402  1.00  0.00     0.210 HD
ATOM     32  H7  UNL     1      15.480  11.594  30.413  1.00  0.00     0.210 HD
ENDBRANCH  24  25
ENDBRANCH  17  24
ENDBRANCH   1  17
TORSDOF 9
ENDMDL
MODEL 3
REMARK VINA RESULT: -7.353313686      1.860      3.284
REMARK  9 active torsions:
REMARK  status: ('A' for Active; 'I' for Inactive)
REMARK    1  A    between atoms: N1_1  and  C1_4 
REMARK    2  A    between atoms: C3_8  and  O1_9 
REMARK    3  A    between atoms: O1_9  and  C4_10 
REMARK    4  A    between atoms: C4_10  and  C5_11 
REMARK    5  A    between atoms: C5_11  and  N3_12 
REMARK    6  A    between atoms: C5_11  and  O2_16 
REMARK    7  A    between atoms: C5_11  and  C6_18 
REMARK    8  A    between atoms: C6_18  and  N4_19 
REMARK    9  A    between atoms: C8_27  and  N8_28 
ROOT
HETATM    1  C4  UNL     1      15.995   8.885  28.120  1.00  0.00     0.246 C 
ENDROOT
BRANCH   1   2
HETATM    2  O1  UNL     1      16.665   8.336  29.199  1.00  0.00    -0.341 OA
BRANCH   2   3
HETATM    3  C3  UNL     1      17.950   8.554  29.589  1.00  0.00     0.128 A 
HETATM    4  C2  UNL     1      18.967   8.268  28.699  1.00  0.00     0.146 A 
HETATM    5  N2  UNL     1      20.257   8.466  29.036  1.00  0.00    -0.199 N 
HETATM    6  C1  UNL     1      20.503   8.951  30.271  1.00  0.00     0.677 A 
ATOM      7  H2  UNL     1      21.014   8.259  28.385  1.00  0.00     0.183 HD
HETATM    8  N9  UNL     1      19.526   9.237  31.155  1.00  0.00    -0.175 N 
HETATM    9  C8  UNL     1      18.231   9.049  30.844  1.00  0.00     0.149 A 
ATOM     10  H9  UNL     1      19.773   9.603  32.074  1.00  0.00     0.186 HD
BRANCH   6  11
HETATM   11  N1  UNL     1      21.739   9.151  30.623  1.00  0.00    -0.234 N 
ATOM     12  H12 UNL     1      22.482   8.822  30.006  1.00  0.00     0.174 HD
ATOM     13  H11 UNL     1      21.922   9.630  31.505  1.00  0.00     0.174 HD
ENDBRANCH   6  11
BRANCH   9  14
HETATM   14  N8  UNL     1      17.303   9.332  31.715  1.00  0.00    -0.383 N 
ATOM     15  H82 UNL     1      16.521   9.931  31.452  1.00  0.00     0.157 HD
ATOM     16  H81 UNL     1      17.316   8.978  32.672  1.00  0.00     0.157 HD
ENDBRANCH   9  14
ENDBRANCH   2   3
ENDBRANCH   1   2
BRANCH   1  17
HETATM   17  C5  UNL     1      14.826   9.690  28.644  1.00  0.00     0.262 C 
BRANCH  17  18
HETATM   18  N3  UNL     1      14.235   9.026  29.764  1.00  0.00    -0.043 N 
ATOM     19  H33 UNL     1      14.860   8.326  30.166  1.00  0.00     0.278 HD
ATOM     20  H32 UNL     1      14.158   9.639  30.575  1.00  0.00     0.278 HD
ATOM     21  H31 UNL     1      13.335   8.628  29.500  1.00  0.00     0.278 HD
ENDBRANCH  17  18
BRANCH  17  22
HETATM   22  O2  UNL     1      13.859   9.804  27.641  1.00  0.00    -0.362 OA
ATOM     23  H2  UNL     1      14.180   9.391  26.848  1.00  0.00     0.212 HD
ENDBRANCH  17  22
BRANCH  17  24
HETATM   24  C6  UNL     1      15.243  11.092  29.028  1.00  0.00     0.222 C 
BRANCH  24  25
HETATM   25  N4  UNL     1      15.830  11.761  27.889  1.00  0.00    -0.266 N 
HETATM   26  C7  UNL     1      17.105  12.172  27.803  1.00  0.00     0.220 A 
HETATM   27  N5  UNL     1      17.274  12.746  26.599  1.00  0.00    -0.279 N 
HETATM   28  N6  UNL     1      16.115  12.676  25.982  1.00  0.00    -0.227 N 
ATOM     29  H5  UNL     1      18.134  13.156  26.235  1.00  0.00     0.189 HD
HETATM   30  N7  UNL     1      15.232  12.083  26.749  1.00  0.00    -0.225 N 
ATOM     31  H6  UNL     1      15.929  13.032  25.044  1.00  0.00     0.210 HD
ATOM     32  H7  UNL     1      14.258  11.900  26.510  1.00  0.00     0.210 HD
ENDBRANCH  24  25
ENDBRANCH  17  24
ENDBRANCH   1  17
TORSDOF 9
ENDMDL
MODEL 4
REMARK VINA RESULT: -7.284336975      1.914      3.054
REMARK  9 active torsions:
REMARK  status: ('A' for Active; 'I' for Inactive)
REMARK    1  A    between atoms: N1_1  and  C1_4 
REMARK    2  A    between atoms: C3_8  and  O1_9 
REMARK    3  A    between atoms: O1_9  and  C4_10 
REMARK    4  A    between atoms: C4_10  and  C5_11 
REMARK    5  A    between atoms: C5_11  and  N3_12 
REMARK    6  A    between atoms: C5_11  and  O2_16 
REMARK    7  A    between atoms: C5_11  and  C6_18 
REMARK    8  A    between atoms: C6_18  and  N4_19 
REMARK    9  A    between atoms: C8_27  and  N8_28 
ROOT
HETATM    1  C4  UNL     1      16.952  10.591  30.545  1.00  0.00     0.246 C 
ENDROOT
BRANCH   1   2
HETATM    2  O1  UNL     1      18.316  10.483  30.335  1.00  0.00    -0.341 OA
BRANCH   2   3
HETATM    3  C3  UNL     1      19.122   9.417  30.587  1.00  0.00     0.128 A 
HETATM    4  C2  UNL     1      18.555   8.270  31.109  1.00  0.00     0.146 A 
HETATM    5  N2  UNL     1      19.310   7.186  31.377  1.00  0.00    -0.199 N 
HETATM    6  C1  UNL     1      20.632   7.275  31.116  1.00  0.00     0.677 A 
ATOM      7  H2  UNL     1      18.900   6.334  31.761  1.00  0.00     0.183 HD
HETATM    8  N9  UNL     1      21.204   8.385  30.607  1.00  0.00    -0.175 N 
HETATM    9  C8  UNL     1      20.475   9.480  30.330  1.00  0.00     0.149 A 
ATOM     10  H9  UNL     1      22.208   8.393  30.428  1.00  0.00     0.186 HD
BRANCH   6  11
HETATM   11  N1  UNL     1      21.383   6.244  31.365  1.00  0.00    -0.234 N 
ATOM     12  H12 UNL     1      21.026   5.315  31.147  1.00  0.00     0.174 HD
ATOM     13  H11 UNL     1      22.305   6.402  31.773  1.00  0.00     0.174 HD
ENDBRANCH   6  11
BRANCH   9  14
HETATM   14  N8  UNL     1      21.051  10.541  29.839  1.00  0.00    -0.383 N 
ATOM     15  H82 UNL     1      21.305  11.315  30.453  1.00  0.00     0.157 HD
ATOM     16  H81 UNL     1      21.268  10.643  28.848  1.00  0.00     0.157 HD
ENDBRANCH   9  14
ENDBRANCH   2   3
ENDBRANCH   1   2
BRANCH   1  17
HETATM   17  C5  UNL     1      16.363  11.428  29.430  1.00  0.00     0.262 C 
BRANCH  17  18
HETATM   18  N3  UNL     1      16.577  12.817  29.695  1.00  0.00    -0.043 N 
ATOM     19  H33 UNL     1      17.248  12.964  30.450  1.00  0.00     0.278 HD
ATOM     20  H32 UNL     1      17.095  13.274  28.944  1.00  0.00     0.278 HD
ATOM     21  H31 UNL     1      15.687  13.279  29.880  1.00  0.00     0.278 HD
ENDBRANCH  17  18
BRANCH  17  22
HETATM   22  O2  UNL     1      14.986  11.201  29.362  1.00  0.00    -0.362 OA
ATOM     23  H2  UNL     1      14.806  10.299  29.601  1.00  0.00     0.212 HD
ENDBRANCH  17  22
BRANCH  17  24
HETATM   24  C6  UNL     1      16.947  11.056  28.086  1.00  0.00     0.222 C 
BRANCH  24  25
HETATM   25  N4  UNL     1      16.358  11.872  27.050  1.00  0.00    -0.266 N 
HETATM   26  C7  UNL     1      17.014  12.779  26.308  1.00  0.00     0.220 A 
HETATM   27  N5  UNL     1      16.134  13.331  25.454  1.00  0.00    -0.279 N 
HETATM   28  N6  UNL     1      14.973  12.759  25.688  1.00  0.00    -0.227 N 
ATOM     29  H5  UNL     1      16.329  14.052  24.761  1.00  0.00     0.189 HD
HETATM   30  N7  UNL     1      15.093  11.875  26.649  1.00  0.00    -0.225 N 
ATOM     31  H6  UNL     1      14.106  12.972  25.195  1.00  0.00     0.210 HD
ATOM     32  H7  UNL     1      14.344  11.291  27.023  1.00  0.00     0.210 HD
ENDBRANCH  24  25
ENDBRANCH  17  24
ENDBRANCH   1  17
TORSDOF 9
ENDMDL
MODEL 5
REMARK VINA RESULT: -7.283136626      1.832      3.113
REMARK  9 active torsions:
REMARK  status: ('A' for Active; 'I' for Inactive)
REMARK    1  A    between atoms: N1_1  and  C1_4 
REMARK    2  A    between atoms: C3_8  and  O1_9 
REMARK    3  A    between atoms: O1_9  and  C4_10 
REMARK    4  A    between atoms: C4_10  and  C5_11 
REMARK    5  A    between atoms: C5_11  and  N3_12 
REMARK    6  A    between atoms: C5_11  and  O2_16 
REMARK    7  A    between atoms: C5_11  and  C6_18 
REMARK    8  A    between atoms: C6_18  and  N4_19 
REMARK    9  A    between atoms: C8_27  and  N8_28 
ROOT
HETATM    1  C4  UNL     1      16.369   8.971  28.817  1.00  0.00     0.246 C 
ENDROOT
BRANCH   1   2
HETATM    2  O1  UNL     1      17.451   9.459  29.528  1.00  0.00    -0.341 OA
BRANCH   2   3
HETATM    3  C3  UNL     1      18.495   8.762  30.051  1.00  0.00     0.128 A 
HETATM    4  C2  UNL     1      18.541   8.570  31.419  1.00  0.00     0.146 A 
HETATM    5  N2  UNL     1      19.555   7.887  31.987  1.00  0.00    -0.199 N 
HETATM    6  C1  UNL     1      20.512   7.407  31.165  1.00  0.00     0.677 A 
ATOM      7  H2  UNL     1      19.596   7.739  32.995  1.00  0.00     0.183 HD
HETATM    8  N9  UNL     1      20.485   7.582  29.829  1.00  0.00    -0.175 N 
HETATM    9  C8  UNL     1      19.486   8.260  29.236  1.00  0.00     0.149 A 
ATOM     10  H9  UNL     1      21.236   7.195  29.257  1.00  0.00     0.186 HD
BRANCH   6  11
HETATM   11  N1  UNL     1      21.501   6.744  31.687  1.00  0.00    -0.234 N 
ATOM     12  H12 UNL     1      21.649   5.777  31.396  1.00  0.00     0.174 HD
ATOM     13  H11 UNL     1      22.093   7.213  32.372  1.00  0.00     0.174 HD
ENDBRANCH   6  11
BRANCH   9  14
HETATM   14  N8  UNL     1      19.482   8.417  27.941  1.00  0.00    -0.383 N 
ATOM     15  H82 UNL     1      20.361   8.543  27.440  1.00  0.00     0.157 HD
ATOM     16  H81 UNL     1      18.626   8.422  27.388  1.00  0.00     0.157 HD
ENDBRANCH   9  14
ENDBRANCH   2   3
ENDBRANCH   1   2
BRANCH   1  17
HETATM   17  C5  UNL     1      15.134   9.734  29.244  1.00  0.00     0.262 C 
BRANCH  17  18
HETATM   18  N3  UNL     1      14.644   9.220  30.486  1.00  0.00    -0.043 N 
ATOM     19  H33 UNL     1      13.893   9.795  30.868  1.00  0.00     0.278 HD
ATOM     20  H32 UNL     1      14.120   8.354  30.361  1.00  0.00     0.278 HD
ATOM     21  H31 UNL     1      15.413   9.109  31.146  1.00  0.00     0.278 HD
ENDBRANCH  17  18
BRANCH  17  22
HETATM   22  O2  UNL     1      14.137   9.574  28.278  1.00  0.00    -0.362 OA
ATOM     23  H2  UNL     1      14.234  10.247  27.614  1.00  0.00     0.212 HD
ENDBRANCH  17  22
BRANCH  17  24
HETATM   24  C6  UNL     1      15.410  11.216  29.365  1.00  0.00     0.222 C 
BRANCH  24  25
HETATM   25  N4  UNL     1      15.689  11.773  28.061  1.00  0.00    -0.266 N 
HETATM   26  C7  UNL     1      16.851  12.335  27.690  1.00  0.00     0.220 A 
HETATM   27  N5  UNL     1      16.729  12.733  26.411  1.00  0.00    -0.279 N 
HETATM   28  N6  UNL     1      15.512  12.411  26.032  1.00  0.00    -0.227 N 
ATOM     29  H5  UNL     1      17.442  13.193  25.846  1.00  0.00     0.189 HD
HETATM   30  N7  UNL     1      14.872  11.830  27.018  1.00  0.00    -0.225 N 
ATOM     31  H6  UNL     1      15.122  12.588  25.105  1.00  0.00     0.210 HD
ATOM     32  H7  UNL     1      13.913  11.482  26.988  1.00  0.00     0.210 HD
ENDBRANCH  24  25
ENDBRANCH  17  24
ENDBRANCH   1  17
TORSDOF 9
ENDMDL
