MODEL 1
REMARK VINA RESULT: -8.241902373      0.000      0.000
REMARK  7 active torsions:
REMARK  status: ('A' for Active; 'I' for Inactive)
REMARK    1  A    between atoms: N1_1  and  C1_5 
REMARK    2  A    between atoms: C3_13  and  C4_14 
REMARK    3  A    between atoms: C4_14  and  N5_15 
REMARK    4  A    between atoms: N5_15  and  C5_17 
REMARK    5  A    between atoms: C5_17  and  C6_18 
REMARK    6  A    between atoms: C6_18  and  C7_19 
REMARK    7  A    between atoms: C7_19  and  N6_20 
ROOT
HETATM    1  C1  UNL     1      18.299   8.107  30.208  1.00  0.00     0.396 C 
HETATM    2  N2  UNL     1      19.307   7.109  30.385  1.00  0.00    -0.274 N 
ATOM      3  H2  UNL     1      19.419   6.324  29.744  1.00  0.00     0.181 HD
HETATM    4  N3  UNL     1      20.124   7.287  31.496  1.00  0.00    -0.021 NA
HETATM    5  N4  UNL     1      21.183   8.097  31.084  1.00  0.00    -0.252 N 
ATOM      6  H4  UNL     1      22.107   7.888  31.463  1.00  0.00     0.187 HD
HETATM    7  C2  UNL     1      21.082   9.189  30.183  1.00  0.00     0.258 C 
HETATM    8  O1  UNL     1      22.149   9.818  29.965  1.00  0.00    -0.270 OA
HETATM    9  C3  UNL     1      19.908   9.746  29.423  1.00  0.00     0.191 C 
HETATM   10  N9  UNL     1      18.741   9.461  30.236  1.00  0.00    -0.365 N 
ATOM     11  H9  UNL     1      18.271  10.178  30.788  1.00  0.00     0.158 HD
ENDROOT
BRANCH   9  12
HETATM   12  C4  UNL     1      20.006  11.250  29.324  1.00  0.00     0.153 C 
BRANCH  12  13
HETATM   13  N5  UNL     1      19.194  11.825  28.306  1.00  0.00    -0.400 N 
ATOM     14  H5  UNL     1      19.222  11.471  27.350  1.00  0.00     0.158 HD
BRANCH  13  15
HETATM   15  C5  UNL     1      18.352  12.899  28.656  1.00  0.00     0.057 C 
BRANCH  15  16
HETATM   16  C6  UNL     1      16.879  12.555  28.784  1.00  0.00     0.064 C 
BRANCH  16  17
HETATM   17  C7  UNL     1      16.551  11.316  27.974  1.00  0.00     0.135 C 
BRANCH  17  18
HETATM   18  N6  UNL     1      15.652  10.491  28.746  1.00  0.00    -0.337 N 
HETATM   19  C8  UNL     1      15.359  10.653  30.069  1.00  0.00     0.200 A 
HETATM   20  N7  UNL     1      14.508   9.719  30.472  1.00  0.00    -0.295 N 
HETATM   21  N8  UNL     1      14.250   8.956  29.413  1.00  0.00    -0.295 N 
ATOM     22  H7  UNL     1      14.125   9.608  31.411  1.00  0.00     0.187 HD
HETATM   23  C9  UNL     1      14.950   9.432  28.368  1.00  0.00     0.200 A 
ATOM     24  H8  UNL     1      13.628   8.148  29.397  1.00  0.00     0.187 HD
ENDBRANCH  17  18
ENDBRANCH  16  17
ENDBRANCH  15  16
ENDBRANCH  13  15
ENDBRANCH  12  13
ENDBRANCH   9  12
BRANCH   1  25
HETATM   25  N1  UNL     1      17.371   7.956  31.340  1.00  0.00    -0.040 N 
ATOM     26  H13 UNL     1      17.326   7.005  31.704  1.00  0.00     0.279 HD
ATOM     27  H12 UNL     1      17.699   8.402  32.197  1.00  0.00     0.279 HD
ATOM     28  H11 UNL     1      16.470   8.312  31.018  1.00  0.00     0.279 HD
ENDBRANCH   1  25
TORSDOF 7
ENDMDL
MODEL 2
REMARK VINA RESULT: -7.758888497      2.313      4.803
REMARK  7 active torsions:
REMARK  status: ('A' for Active; 'I' for Inactive)
REMARK    1  A    between atoms: N1_1  and  C1_5 
REMARK    2  A    between atoms: C3_13  and  C4_14 
REMARK    3  A    between atoms: C4_14  and  N5_15 
REMARK    4  A    between atoms: N5_15  and  C5_17 
REMARK    5  A    between atoms: C5_17  and  C6_18 
REMARK    6  A    between atoms: C6_18  and  C7_19 
REMARK    7  A    between atoms: C7_19  and  N6_20 
ROOT
HETATM    1  C1  UNL     1      15.506   9.838  30.647  1.00  0.00     0.396 C 
HETATM    2  N2  UNL     1      14.255   9.343  30.165  1.00  0.00    -0.274 N 
ATOM      3  H2  UNL     1      13.373   9.528  30.641  1.00  0.00     0.181 HD
HETATM    4  N3  UNL     1      14.329   8.589  28.999  1.00  0.00    -0.021 NA
HETATM    5  N4  UNL     1      14.233   9.491  27.937  1.00  0.00    -0.252 N 
ATOM      6  H4  UNL     1      13.700   9.195  27.119  1.00  0.00     0.187 HD
HETATM    7  C2  UNL     1      14.814  10.785  27.901  1.00  0.00     0.258 C 
HETATM    8  O1  UNL     1      14.641  11.432  26.837  1.00  0.00    -0.270 OA
HETATM    9  C3  UNL     1      15.618  11.544  28.924  1.00  0.00     0.191 C 
HETATM   10  N9  UNL     1      16.312  10.537  29.704  1.00  0.00    -0.365 N 
ATOM     11  H9  UNL     1      17.307  10.345  29.586  1.00  0.00     0.158 HD
ENDROOT
BRANCH   9  12
HETATM   12  C4  UNL     1      16.682  12.377  28.250  1.00  0.00     0.153 C 
BRANCH  12  13
HETATM   13  N5  UNL     1      17.444  13.186  29.138  1.00  0.00    -0.400 N 
ATOM     14  H5  UNL     1      16.987  13.836  29.778  1.00  0.00     0.158 HD
BRANCH  13  15
HETATM   15  C5  UNL     1      18.848  13.065  29.110  1.00  0.00     0.057 C 
BRANCH  15  16
HETATM   16  C6  UNL     1      19.378  11.818  28.425  1.00  0.00     0.064 C 
BRANCH  16  17
HETATM   17  C7  UNL     1      20.104  10.934  29.420  1.00  0.00     0.135 C 
BRANCH  17  18
HETATM   18  N6  UNL     1      19.620   9.583  29.268  1.00  0.00    -0.337 N 
HETATM   19  C8  UNL     1      19.761   8.578  30.181  1.00  0.00     0.200 A 
HETATM   20  N7  UNL     1      19.213   7.459  29.726  1.00  0.00    -0.295 N 
HETATM   21  N8  UNL     1      18.719   7.738  28.523  1.00  0.00    -0.295 N 
ATOM     22  H7  UNL     1      19.179   6.560  30.205  1.00  0.00     0.187 HD
HETATM   23  C9  UNL     1      18.971   9.032  28.252  1.00  0.00     0.200 A 
ATOM     24  H8  UNL     1      18.233   7.083  27.910  1.00  0.00     0.187 HD
ENDBRANCH  17  18
ENDBRANCH  16  17
ENDBRANCH  15  16
ENDBRANCH  13  15
ENDBRANCH  12  13
ENDBRANCH   9  12
BRANCH   1  25
HETATM   25  N1  UNL     1      16.284   8.657  31.054  1.00  0.00    -0.040 N 
ATOM     26  H13 UNL     1      17.119   8.506  30.487  1.00  0.00     0.279 HD
ATOM     27  H12 UNL     1      16.761   8.772  31.948  1.00  0.00     0.279 HD
ATOM     28  H11 UNL     1      15.635   7.870  31.039  1.00  0.00     0.279 HD
ENDBRANCH   1  25
TORSDOF 7
ENDMDL
MODEL 3
REMARK VINA RESULT: -7.602791668      1.756      3.483
REMARK  7 active torsions:
REMARK  status: ('A' for Active; 'I' for Inactive)
REMARK    1  A    between atoms: N1_1  and  C1_5 
REMARK    2  A    between atoms: C3_13  and  C4_14 
REMARK    3  A    between atoms: C4_14  and  N5_15 
REMARK    4  A    between atoms: N5_15  and  C5_17 
REMARK    5  A    between atoms: C5_17  and  C6_18 
REMARK    6  A    between atoms: C6_18  and  C7_19 
REMARK    7  A    between atoms: C7_19  and  N6_20 
ROOT
HETATM    1  C1  UNL     1      20.663   7.096  30.878  1.00  0.00     0.396 C 
HETATM    2  N2  UNL     1      21.448   7.915  30.010  1.00  0.00    -0.274 N 
ATOM      3  H2  UNL     1      21.673   7.640  29.054  1.00  0.00     0.181 HD
HETATM    4  N3  UNL     1      21.882   9.115  30.562  1.00  0.00    -0.021 NA
HETATM    5  N4  UNL     1      20.875  10.051  30.321  1.00  0.00    -0.252 N 
ATOM      6  H4  UNL     1      21.165  11.001  30.089  1.00  0.00     0.187 HD
HETATM    7  C2  UNL     1      19.481   9.791  30.370  1.00  0.00     0.258 C 
HETATM    8  O1  UNL     1      18.733  10.778  30.155  1.00  0.00    -0.270 OA
HETATM    9  C3  UNL     1      18.714   8.523  30.639  1.00  0.00     0.191 C 
HETATM   10  N9  UNL     1      19.557   7.731  31.514  1.00  0.00    -0.365 N 
ATOM     11  H9  UNL     1      19.372   7.635  32.512  1.00  0.00     0.158 HD
ENDROOT
BRANCH   9  12
HETATM   12  C4  UNL     1      17.451   8.822  31.413  1.00  0.00     0.153 C 
BRANCH  12  13
HETATM   13  N5  UNL     1      16.297   8.136  30.940  1.00  0.00    -0.400 N 
ATOM     14  H5  UNL     1      16.191   7.132  31.079  1.00  0.00     0.158 HD
BRANCH  13  15
HETATM   15  C5  UNL     1      15.306   8.885  30.274  1.00  0.00     0.057 C 
BRANCH  15  16
HETATM   16  C6  UNL     1      15.615   9.230  28.828  1.00  0.00     0.064 C 
BRANCH  16  17
HETATM   17  C7  UNL     1      14.943  10.531  28.437  1.00  0.00     0.135 C 
BRANCH  17  18
HETATM   18  N6  UNL     1      15.842  11.619  28.745  1.00  0.00    -0.337 N 
HETATM   19  C8  UNL     1      16.773  12.147  27.899  1.00  0.00     0.200 A 
HETATM   20  N7  UNL     1      17.440  13.125  28.497  1.00  0.00    -0.295 N 
HETATM   21  N8  UNL     1      16.941  13.231  29.726  1.00  0.00    -0.295 N 
ATOM     22  H7  UNL     1      18.189  13.687  28.093  1.00  0.00     0.187 HD
HETATM   23  C9  UNL     1      15.970  12.311  29.868  1.00  0.00     0.200 A 
ATOM     24  H8  UNL     1      17.243  13.895  30.438  1.00  0.00     0.187 HD
ENDBRANCH  17  18
ENDBRANCH  16  17
ENDBRANCH  15  16
ENDBRANCH  13  15
ENDBRANCH  12  13
ENDBRANCH   9  12
BRANCH   1  25
HETATM   25  N1  UNL     1      21.564   6.666  31.960  1.00  0.00    -0.040 N 
ATOM     26  H13 UNL     1      22.339   6.088  31.636  1.00  0.00     0.279 HD
ATOM     27  H12 UNL     1      22.126   7.424  32.346  1.00  0.00     0.279 HD
ATOM     28  H11 UNL     1      20.974   6.204  32.653  1.00  0.00     0.279 HD
ENDBRANCH   1  25
TORSDOF 7
ENDMDL
MODEL 4
REMARK VINA RESULT: -7.599177685      1.766      2.380
REMARK  7 active torsions:
REMARK  status: ('A' for Active; 'I' for Inactive)
REMARK    1  A    between atoms: N1_1  and  C1_5 
REMARK    2  A    between atoms: C3_13  and  C4_14 
REMARK    3  A    between atoms: C4_14  and  N5_15 
REMARK    4  A    between atoms: N5_15  and  C5_17 
REMARK    5  A    between atoms: C5_17  and  C6_18 
REMARK    6  A    between atoms: C6_18  and  C7_19 
REMARK    7  A    between atoms: C7_19  and  N6_20 
ROOT
HETATM    1  C1  UNL     1      20.468   9.590  30.550  1.00  0.00     0.396 C 
HETATM    2  N2  UNL     1      19.839   8.515  31.250  1.00  0.00    -0.274 N 
ATOM      3  H2  UNL     1      19.389   8.640  32.156  1.00  0.00     0.181 HD
HETATM    4  N3  UNL     1      19.886   7.283  30.606  1.00  0.00    -0.021 NA
HETATM    5  N4  UNL     1      18.765   7.226  29.776  1.00  0.00    -0.252 N 
ATOM      6  H4  UNL     1      18.290   6.327  29.693  1.00  0.00     0.187 HD
HETATM    7  C2  UNL     1      18.230   8.315  29.039  1.00  0.00     0.258 C 
HETATM    8  O1  UNL     1      17.232   8.051  28.321  1.00  0.00    -0.270 OA
HETATM    9  C3  UNL     1      18.646   9.759  28.955  1.00  0.00     0.191 C 
HETATM   10  N9  UNL     1      20.077   9.772  29.193  1.00  0.00    -0.365 N 
ATOM     11  H9  UNL     1      20.754   9.902  28.441  1.00  0.00     0.158 HD
ENDROOT
BRANCH   9  12
HETATM   12  C4  UNL     1      18.437  10.291  27.557  1.00  0.00     0.153 C 
BRANCH  12  13
HETATM   13  N5  UNL     1      18.303  11.705  27.481  1.00  0.00    -0.400 N 
ATOM     14  H5  UNL     1      18.343  12.188  26.583  1.00  0.00     0.158 HD
BRANCH  13  15
HETATM   15  C5  UNL     1      18.113  12.421  28.680  1.00  0.00     0.057 C 
BRANCH  15  16
HETATM   16  C6  UNL     1      16.686  12.857  28.957  1.00  0.00     0.064 C 
BRANCH  16  17
HETATM   17  C7  UNL     1      16.109  12.079  30.124  1.00  0.00     0.135 C 
BRANCH  17  18
HETATM   18  N6  UNL     1      15.372  10.953  29.602  1.00  0.00    -0.337 N 
HETATM   19  C8  UNL     1      15.021   9.836  30.303  1.00  0.00     0.200 A 
HETATM   20  N7  UNL     1      14.361   8.990  29.524  1.00  0.00    -0.295 N 
HETATM   21  N8  UNL     1      14.283   9.557  28.323  1.00  0.00    -0.295 N 
ATOM     22  H7  UNL     1      13.985   8.080  29.793  1.00  0.00     0.187 HD
HETATM   23  C9  UNL     1      14.901  10.751  28.380  1.00  0.00     0.200 A 
ATOM     24  H8  UNL     1      13.833   9.156  27.501  1.00  0.00     0.187 HD
ENDBRANCH  17  18
ENDBRANCH  16  17
ENDBRANCH  15  16
ENDBRANCH  13  15
ENDBRANCH  12  13
ENDBRANCH   9  12
BRANCH   1  25
HETATM   25  N1  UNL     1      21.905   9.275  30.522  1.00  0.00    -0.040 N 
ATOM     26  H13 UNL     1      22.101   8.282  30.396  1.00  0.00     0.279 HD
ATOM     27  H12 UNL     1      22.377   9.603  29.679  1.00  0.00     0.279 HD
ATOM     28  H11 UNL     1      22.297   9.661  31.382  1.00  0.00     0.279 HD
ENDBRANCH   1  25
TORSDOF 7
ENDMDL
MODEL 5
REMARK VINA RESULT: -7.458982984      5.176      6.843
REMARK  7 active torsions:
REMARK  status: ('A' for Active; 'I' for Inactive)
REMARK    1  A    between atoms: N1_1  and  C1_5 
REMARK    2  A    between atoms: C3_13  and  C4_14 
REMARK    3  A    between atoms: C4_14  and  N5_15 
REMARK    4  A    between atoms: N5_15  and  C5_17 
REMARK    5  A    between atoms: C5_17  and  C6_18 
REMARK    6  A    between atoms: C6_18  and  C7_19 
REMARK    7  A    between atoms: C7_19  and  N6_20 
ROOT
HETATM    1  C1  UNL     1      15.951   9.822  30.233  1.00  0.00     0.396 C 
HETATM    2  N2  UNL     1      14.588   9.397  30.182  1.00  0.00    -0.274 N 
ATOM      3  H2  UNL     1      13.881   9.747  30.826  1.00  0.00     0.181 HD
HETATM    4  N3  UNL     1      14.298   8.468  29.188  1.00  0.00    -0.021 NA
HETATM    5  N4  UNL     1      13.976   9.200  28.043  1.00  0.00    -0.252 N 
ATOM      6  H4  UNL     1      13.225   8.840  27.454  1.00  0.00     0.187 HD
HETATM    7  C2  UNL     1      14.607  10.402  27.631  1.00  0.00     0.258 C 
HETATM    8  O1  UNL     1      14.195  10.892  26.548  1.00  0.00    -0.270 OA
HETATM    9  C3  UNL     1      15.703  11.219  28.263  1.00  0.00     0.191 C 
HETATM   10  N9  UNL     1      16.517  10.276  29.007  1.00  0.00    -0.365 N 
ATOM     11  H9  UNL     1      17.428   9.961  28.676  1.00  0.00     0.158 HD
ENDROOT
BRANCH   9  12
HETATM   12  C4  UNL     1      16.597  11.817  27.203  1.00  0.00     0.153 C 
BRANCH  12  13
HETATM   13  N5  UNL     1      16.075  12.989  26.588  1.00  0.00    -0.400 N 
ATOM     14  H5  UNL     1      15.377  13.564  27.062  1.00  0.00     0.158 HD
BRANCH  13  15
HETATM   15  C5  UNL     1      16.547  13.334  25.306  1.00  0.00     0.057 C 
BRANCH  15  16
HETATM   16  C6  UNL     1      15.908  14.563  24.687  1.00  0.00     0.064 C 
BRANCH  16  17
HETATM   17  C7  UNL     1      14.888  14.161  23.639  1.00  0.00     0.135 C 
BRANCH  17  18
HETATM   18  N6  UNL     1      15.216  14.830  22.403  1.00  0.00    -0.337 N 
HETATM   19  C8  UNL     1      14.618  14.612  21.196  1.00  0.00     0.200 A 
HETATM   20  N7  UNL     1      15.164  15.382  20.263  1.00  0.00    -0.295 N 
HETATM   21  N8  UNL     1      16.112  16.096  20.865  1.00  0.00    -0.295 N 
ATOM     22  H7  UNL     1      14.907  15.419  19.277  1.00  0.00     0.187 HD
HETATM   23  C9  UNL     1      16.137  15.754  22.166  1.00  0.00     0.200 A 
ATOM     24  H8  UNL     1      16.716  16.785  20.416  1.00  0.00     0.187 HD
ENDBRANCH  17  18
ENDBRANCH  16  17
ENDBRANCH  15  16
ENDBRANCH  13  15
ENDBRANCH  12  13
ENDBRANCH   9  12
BRANCH   1  25
HETATM   25  N1  UNL     1      16.734   8.641  30.632  1.00  0.00    -0.040 N 
ATOM     26  H13 UNL     1      16.954   8.617  31.628  1.00  0.00     0.279 HD
ATOM     27  H12 UNL     1      16.202   7.772  30.601  1.00  0.00     0.279 HD
ATOM     28  H11 UNL     1      17.560   8.633  30.032  1.00  0.00     0.279 HD
ENDBRANCH   1  25
TORSDOF 7
ENDMDL
