MODEL 1
REMARK VINA RESULT: -7.355815562      0.000      0.000
REMARK  10 active torsions:
REMARK  status: ('A' for Active; 'I' for Inactive)
REMARK    1  A    between atoms: N1_1  and  C1_4 
REMARK    2  A    between atoms: N4_12  and  C5_13 
REMARK    3  A    between atoms: C5_13  and  O1_14 
REMARK    4  A    between atoms: C6_16  and  N5_17 
REMARK    5  A    between atoms: N6_20  and  C7_21 
REMARK    6  A    between atoms: C7_21  and  C8_22 
REMARK    7  A    between atoms: C8_22  and  N7_23 
REMARK    8  A    between atoms: N7_23  and  C9_25 
REMARK    9  A    between atoms: C9_25  and  C10_26 
REMARK   10  A    between atoms: C10_26  and  O2_27 
ROOT
HETATM    1  C1  UNL     1      15.438  11.324  27.799  1.00  0.00     0.131 A 
HETATM    2  N2  UNL     1      16.003  12.228  26.920  1.00  0.00    -0.337 N 
ATOM      3  H2  UNL     1      15.393  12.904  26.461  1.00  0.00     0.168 HD
HETATM    4  C2  UNL     1      17.300  12.261  26.644  1.00  0.00     0.183 A 
HETATM    5  N3  UNL     1      18.155  11.399  27.215  1.00  0.00    -0.336 N 
ATOM      6  H3  UNL     1      19.153  11.424  27.003  1.00  0.00     0.168 HD
HETATM    7  C3  UNL     1      17.649  10.507  28.075  1.00  0.00     0.156 A 
HETATM    8  C4  UNL     1      16.302  10.442  28.389  1.00  0.00     0.142 A 
HETATM    9  N4  UNL     1      16.126   9.438  29.281  1.00  0.00    -0.154 N 
HETATM   10  C6  UNL     1      17.366   8.913  29.484  1.00  0.00     0.684 A 
HETATM   11  N6  UNL     1      18.280   9.566  28.749  1.00  0.00    -0.161 N 
ENDROOT
BRANCH  11  12
HETATM   12  C7  UNL     1      19.679   9.221  28.775  1.00  0.00     0.194 C 
BRANCH  12  13
HETATM   13  C8  UNL     1      20.474   9.838  29.830  1.00  0.00     0.081 C 
BRANCH  13  14
HETATM   14  N7  UNL     1      21.236   8.939  30.582  1.00  0.00    -0.379 N 
ATOM     15  H7  UNL     1      21.873   9.345  31.268  1.00  0.00     0.164 HD
BRANCH  14  16
HETATM   16  C9  UNL     1      21.218   7.569  30.496  1.00  0.00     0.086 C 
BRANCH  16  17
HETATM   17  C10 UNL     1      20.709   6.814  31.685  1.00  0.00     0.208 C 
BRANCH  17  18
HETATM   18  O2  UNL     1      20.734   5.430  31.536  1.00  0.00    -0.396 OA
ATOM     19  H2  UNL     1      21.363   4.990  32.094  1.00  0.00     0.209 HD
ENDBRANCH  17  18
ENDBRANCH  16  17
ENDBRANCH  14  16
ENDBRANCH  13  14
ENDBRANCH  12  13
ENDBRANCH  11  12
BRANCH  10  20
HETATM   20  N5  UNL     1      17.569   7.906  30.294  1.00  0.00    -0.234 N 
ATOM     21  H52 UNL     1      17.136   7.745  31.204  1.00  0.00     0.174 HD
ATOM     22  H51 UNL     1      18.221   7.154  30.071  1.00  0.00     0.174 HD
ENDBRANCH  10  20
BRANCH   9  23
HETATM   23  C5  UNL     1      14.919   8.995  29.940  1.00  0.00     0.314 C 
BRANCH  23  24
HETATM   24  O1  UNL     1      13.947   8.603  29.055  1.00  0.00    -0.381 OA
ATOM     25  H1  UNL     1      13.303   8.026  29.449  1.00  0.00     0.211 HD
ENDBRANCH  23  24
ENDBRANCH   9  23
BRANCH   1  26
HETATM   26  N1  UNL     1      14.217  11.326  28.009  1.00  0.00    -0.383 N 
ATOM     27  H12 UNL     1      13.711  12.134  28.371  1.00  0.00     0.157 HD
ATOM     28  H11 UNL     1      13.658  10.491  27.833  1.00  0.00     0.157 HD
ENDBRANCH   1  26
TORSDOF 10
ENDMDL
MODEL 2
REMARK VINA RESULT: -7.086867632      1.588      2.431
REMARK  10 active torsions:
REMARK  status: ('A' for Active; 'I' for Inactive)
REMARK    1  A    between atoms: N1_1  and  C1_4 
REMARK    2  A    between atoms: N4_12  and  C5_13 
REMARK    3  A    between atoms: C5_13  and  O1_14 
REMARK    4  A    between atoms: C6_16  and  N5_17 
REMARK    5  A    between atoms: N6_20  and  C7_21 
REMARK    6  A    between atoms: C7_21  and  C8_22 
REMARK    7  A    between atoms: C8_22  and  N7_23 
REMARK    8  A    between atoms: N7_23  and  C9_25 
REMARK    9  A    between atoms: C9_25  and  C10_26 
REMARK   10  A    between atoms: C10_26  and  O2_27 
ROOT
HETATM    1  C1  UNL     1      17.367  12.159  27.349  1.00  0.00     0.131 A 
HETATM    2  N2  UNL     1      18.694  12.486  27.549  1.00  0.00    -0.337 N 
ATOM      3  H2  UNL     1      19.162  13.064  26.851  1.00  0.00     0.168 HD
HETATM    4  C2  UNL     1      19.391  12.085  28.604  1.00  0.00     0.183 A 
HETATM    5  N3  UNL     1      18.834  11.323  29.558  1.00  0.00    -0.336 N 
ATOM      6  H3  UNL     1      19.370  11.014  30.369  1.00  0.00     0.168 HD
HETATM    7  C3  UNL     1      17.549  10.984  29.404  1.00  0.00     0.156 A 
HETATM    8  C4  UNL     1      16.789  11.384  28.318  1.00  0.00     0.142 A 
HETATM    9  N4  UNL     1      15.542  10.876  28.467  1.00  0.00    -0.154 N 
HETATM   10  C6  UNL     1      15.573  10.176  29.635  1.00  0.00     0.684 A 
HETATM   11  N6  UNL     1      16.792  10.248  30.193  1.00  0.00    -0.161 N 
ENDROOT
BRANCH  11  12
HETATM   12  C7  UNL     1      17.107   9.600  31.442  1.00  0.00     0.194 C 
BRANCH  12  13
HETATM   13  C8  UNL     1      17.762   8.301  31.344  1.00  0.00     0.081 C 
BRANCH  13  14
HETATM   14  N7  UNL     1      19.148   8.339  31.516  1.00  0.00    -0.379 N 
ATOM     15  H7  UNL     1      19.492   8.844  32.333  1.00  0.00     0.164 HD
BRANCH  14  16
HETATM   16  C9  UNL     1      20.097   7.769  30.704  1.00  0.00     0.086 C 
BRANCH  16  17
HETATM   17  C10 UNL     1      21.085   6.845  31.348  1.00  0.00     0.208 C 
BRANCH  17  18
HETATM   18  O2  UNL     1      20.635   5.536  31.489  1.00  0.00    -0.396 OA
ATOM     19  H2  UNL     1      20.903   4.954  30.787  1.00  0.00     0.209 HD
ENDBRANCH  17  18
ENDBRANCH  16  17
ENDBRANCH  14  16
ENDBRANCH  13  14
ENDBRANCH  12  13
ENDBRANCH  11  12
BRANCH  10  20
HETATM   20  N5  UNL     1      14.526   9.540  30.091  1.00  0.00    -0.234 N 
ATOM     21  H52 UNL     1      13.934   8.879  29.588  1.00  0.00     0.174 HD
ATOM     22  H51 UNL     1      14.192   9.663  31.048  1.00  0.00     0.174 HD
ENDBRANCH  10  20
BRANCH   9  23
HETATM   23  C5  UNL     1      14.377  11.036  27.627  1.00  0.00     0.314 C 
BRANCH  23  24
HETATM   24  O1  UNL     1      13.711   9.856  27.415  1.00  0.00    -0.381 OA
ATOM     25  H1  UNL     1      12.855   9.838  27.828  1.00  0.00     0.211 HD
ENDBRANCH  23  24
ENDBRANCH   9  23
BRANCH   1  26
HETATM   26  N1  UNL     1      16.767  12.547  26.337  1.00  0.00    -0.383 N 
ATOM     27  H12 UNL     1      16.394  11.915  25.629  1.00  0.00     0.157 HD
ATOM     28  H11 UNL     1      16.631  13.543  26.163  1.00  0.00     0.157 HD
ENDBRANCH   1  26
TORSDOF 10
ENDMDL
MODEL 3
REMARK VINA RESULT: -6.984170284      1.858      2.664
REMARK  10 active torsions:
REMARK  status: ('A' for Active; 'I' for Inactive)
REMARK    1  A    between atoms: N1_1  and  C1_4 
REMARK    2  A    between atoms: N4_12  and  C5_13 
REMARK    3  A    between atoms: C5_13  and  O1_14 
REMARK    4  A    between atoms: C6_16  and  N5_17 
REMARK    5  A    between atoms: N6_20  and  C7_21 
REMARK    6  A    between atoms: C7_21  and  C8_22 
REMARK    7  A    between atoms: C8_22  and  N7_23 
REMARK    8  A    between atoms: N7_23  and  C9_25 
REMARK    9  A    between atoms: C9_25  and  C10_26 
REMARK   10  A    between atoms: C10_26  and  O2_27 
ROOT
HETATM    1  C1  UNL     1      17.225  12.322  27.270  1.00  0.00     0.131 A 
HETATM    2  N2  UNL     1      18.537  12.712  27.461  1.00  0.00    -0.337 N 
ATOM      3  H2  UNL     1      18.965  13.327  26.769  1.00  0.00     0.168 HD
HETATM    4  C2  UNL     1      19.268  12.327  28.499  1.00  0.00     0.183 A 
HETATM    5  N3  UNL     1      18.763  11.519  29.444  1.00  0.00    -0.336 N 
ATOM      6  H3  UNL     1      19.324  11.222  30.242  1.00  0.00     0.168 HD
HETATM    7  C3  UNL     1      17.494  11.118  29.299  1.00  0.00     0.156 A 
HETATM    8  C4  UNL     1      16.700  11.500  28.230  1.00  0.00     0.142 A 
HETATM    9  N4  UNL     1      15.483  10.927  28.385  1.00  0.00    -0.154 N 
HETATM   10  C6  UNL     1      15.565  10.207  29.538  1.00  0.00     0.684 A 
HETATM   11  N6  UNL     1      16.786  10.330  30.082  1.00  0.00    -0.161 N 
ENDROOT
BRANCH  11  12
HETATM   12  C7  UNL     1      17.150   9.675  31.314  1.00  0.00     0.194 C 
BRANCH  12  13
HETATM   13  C8  UNL     1      17.847   8.401  31.182  1.00  0.00     0.081 C 
BRANCH  13  14
HETATM   14  N7  UNL     1      19.185   8.429  31.584  1.00  0.00    -0.379 N 
ATOM     15  H7  UNL     1      19.378   8.850  32.493  1.00  0.00     0.164 HD
BRANCH  14  16
HETATM   16  C9  UNL     1      20.267   7.950  30.888  1.00  0.00     0.086 C 
BRANCH  16  17
HETATM   17  C10 UNL     1      20.915   8.876  29.905  1.00  0.00     0.208 C 
BRANCH  17  18
HETATM   18  O2  UNL     1      22.071   9.490  30.376  1.00  0.00    -0.396 OA
ATOM     19  H2  UNL     1      22.796   9.478  29.763  1.00  0.00     0.209 HD
ENDBRANCH  17  18
ENDBRANCH  16  17
ENDBRANCH  14  16
ENDBRANCH  13  14
ENDBRANCH  12  13
ENDBRANCH  11  12
BRANCH  10  20
HETATM   20  N5  UNL     1      14.558   9.509  29.995  1.00  0.00    -0.234 N 
ATOM     21  H52 UNL     1      14.287   8.562  29.728  1.00  0.00     0.174 HD
ATOM     22  H51 UNL     1      13.917   9.879  30.698  1.00  0.00     0.174 HD
ENDBRANCH  10  20
BRANCH   9  23
HETATM   23  C5  UNL     1      14.301  11.044  27.563  1.00  0.00     0.314 C 
BRANCH  23  24
HETATM   24  O1  UNL     1      13.679   9.838  27.355  1.00  0.00    -0.381 OA
ATOM     25  H1  UNL     1      13.492   9.675  26.437  1.00  0.00     0.211 HD
ENDBRANCH  23  24
ENDBRANCH   9  23
BRANCH   1  26
HETATM   26  N1  UNL     1      16.593  12.698  26.274  1.00  0.00    -0.383 N 
ATOM     27  H12 UNL     1      17.037  12.966  25.396  1.00  0.00     0.157 HD
ATOM     28  H11 UNL     1      15.576  12.768  26.300  1.00  0.00     0.157 HD
ENDBRANCH   1  26
TORSDOF 10
ENDMDL
MODEL 4
REMARK VINA RESULT: -6.791237225      2.682      6.532
REMARK  10 active torsions:
REMARK  status: ('A' for Active; 'I' for Inactive)
REMARK    1  A    between atoms: N1_1  and  C1_4 
REMARK    2  A    between atoms: N4_12  and  C5_13 
REMARK    3  A    between atoms: C5_13  and  O1_14 
REMARK    4  A    between atoms: C6_16  and  N5_17 
REMARK    5  A    between atoms: N6_20  and  C7_21 
REMARK    6  A    between atoms: C7_21  and  C8_22 
REMARK    7  A    between atoms: C8_22  and  N7_23 
REMARK    8  A    between atoms: N7_23  and  C9_25 
REMARK    9  A    between atoms: C9_25  and  C10_26 
REMARK   10  A    between atoms: C10_26  and  O2_27 
ROOT
HETATM    1  C1  UNL     1      18.250   8.441  30.978  1.00  0.00     0.131 A 
HETATM    2  N2  UNL     1      17.006   7.954  31.332  1.00  0.00    -0.337 N 
ATOM      3  H2  UNL     1      16.961   7.125  31.923  1.00  0.00     0.168 HD
HETATM    4  C2  UNL     1      15.868   8.512  30.941  1.00  0.00     0.183 A 
HETATM    5  N3  UNL     1      15.860   9.605  30.162  1.00  0.00    -0.336 N 
ATOM      6  H3  UNL     1      14.984  10.033  29.860  1.00  0.00     0.168 HD
HETATM    7  C3  UNL     1      17.043  10.110  29.796  1.00  0.00     0.156 A 
HETATM    8  C4  UNL     1      18.252   9.557  30.184  1.00  0.00     0.142 A 
HETATM    9  N4  UNL     1      19.248  10.303  29.649  1.00  0.00    -0.154 N 
HETATM   10  C6  UNL     1      18.624  11.287  28.944  1.00  0.00     0.684 A 
HETATM   11  N6  UNL     1      17.291  11.160  29.039  1.00  0.00    -0.161 N 
ENDROOT
BRANCH  11  12
HETATM   12  C7  UNL     1      16.382  12.074  28.392  1.00  0.00     0.194 C 
BRANCH  12  13
HETATM   13  C8  UNL     1      15.611  11.531  27.279  1.00  0.00     0.081 C 
BRANCH  13  14
HETATM   14  N7  UNL     1      15.428  12.418  26.215  1.00  0.00    -0.379 N 
ATOM     15  H7  UNL     1      14.493  12.456  25.809  1.00  0.00     0.164 HD
BRANCH  14  16
HETATM   16  C9  UNL     1      16.372  13.245  25.658  1.00  0.00     0.086 C 
BRANCH  16  17
HETATM   17  C10 UNL     1      15.906  14.211  24.612  1.00  0.00     0.208 C 
BRANCH  17  18
HETATM   18  O2  UNL     1      15.403  15.404  25.121  1.00  0.00    -0.396 OA
ATOM     19  H2  UNL     1      15.573  16.163  24.576  1.00  0.00     0.209 HD
ENDBRANCH  17  18
ENDBRANCH  16  17
ENDBRANCH  14  16
ENDBRANCH  13  14
ENDBRANCH  12  13
ENDBRANCH  11  12
BRANCH  10  20
HETATM   20  N5  UNL     1      19.291  12.197  28.283  1.00  0.00    -0.234 N 
ATOM     21  H52 UNL     1      19.361  12.302  27.270  1.00  0.00     0.174 HD
ATOM     22  H51 UNL     1      19.832  12.922  28.755  1.00  0.00     0.174 HD
ENDBRANCH  10  20
BRANCH   9  23
HETATM   23  C5  UNL     1      20.679  10.162  29.789  1.00  0.00     0.314 C 
BRANCH  23  24
HETATM   24  O1  UNL     1      21.123  10.495  31.044  1.00  0.00    -0.381 OA
ATOM     25  H1  UNL     1      21.588   9.783  31.468  1.00  0.00     0.211 HD
ENDBRANCH  23  24
ENDBRANCH   9  23
BRANCH   1  26
HETATM   26  N1  UNL     1      19.282   7.873  31.358  1.00  0.00    -0.383 N 
ATOM     27  H12 UNL     1      19.392   6.859  31.370  1.00  0.00     0.157 HD
ATOM     28  H11 UNL     1      20.080   8.413  31.694  1.00  0.00     0.157 HD
ENDBRANCH   1  26
TORSDOF 10
ENDMDL
MODEL 5
REMARK VINA RESULT: -6.786850286      1.009      1.065
REMARK  10 active torsions:
REMARK  status: ('A' for Active; 'I' for Inactive)
REMARK    1  A    between atoms: N1_1  and  C1_4 
REMARK    2  A    between atoms: N4_12  and  C5_13 
REMARK    3  A    between atoms: C5_13  and  O1_14 
REMARK    4  A    between atoms: C6_16  and  N5_17 
REMARK    5  A    between atoms: N6_20  and  C7_21 
REMARK    6  A    between atoms: C7_21  and  C8_22 
REMARK    7  A    between atoms: C8_22  and  N7_23 
REMARK    8  A    between atoms: N7_23  and  C9_25 
REMARK    9  A    between atoms: C9_25  and  C10_26 
REMARK   10  A    between atoms: C10_26  and  O2_27 
ROOT
HETATM    1  C1  UNL     1      16.072  11.792  27.469  1.00  0.00     0.131 A 
HETATM    2  N2  UNL     1      16.876  12.904  27.308  1.00  0.00    -0.337 N 
ATOM      3  H2  UNL     1      16.574  13.631  26.661  1.00  0.00     0.168 HD
HETATM    4  C2  UNL     1      18.022  13.072  27.954  1.00  0.00     0.183 A 
HETATM    5  N3  UNL     1      18.476  12.152  28.820  1.00  0.00    -0.336 N 
ATOM      6  H3  UNL     1      19.357  12.281  29.316  1.00  0.00     0.168 HD
HETATM    7  C3  UNL     1      17.726  11.059  29.006  1.00  0.00     0.156 A 
HETATM    8  C4  UNL     1      16.524  10.848  28.352  1.00  0.00     0.142 A 
HETATM    9  N4  UNL     1      16.024   9.659  28.763  1.00  0.00    -0.154 N 
HETATM   10  C6  UNL     1      16.934   9.171  29.651  1.00  0.00     0.684 A 
HETATM   11  N6  UNL     1      17.959  10.027  29.791  1.00  0.00    -0.161 N 
ENDROOT
BRANCH  11  12
HETATM   12  C7  UNL     1      19.067   9.764  30.676  1.00  0.00     0.194 C 
BRANCH  12  13
HETATM   13  C8  UNL     1      20.397   9.870  30.089  1.00  0.00     0.081 C 
BRANCH  13  14
HETATM   14  N7  UNL     1      21.266   8.831  30.434  1.00  0.00    -0.379 N 
ATOM     15  H7  UNL     1      22.183   9.103  30.787  1.00  0.00     0.164 HD
BRANCH  14  16
HETATM   16  C9  UNL     1      21.017   7.483  30.348  1.00  0.00     0.086 C 
BRANCH  16  17
HETATM   17  C10 UNL     1      20.775   6.748  31.630  1.00  0.00     0.208 C 
BRANCH  17  18
HETATM   18  O2  UNL     1      20.936   5.369  31.536  1.00  0.00    -0.396 OA
ATOM     19  H2  UNL     1      20.384   4.956  30.882  1.00  0.00     0.209 HD
ENDBRANCH  17  18
ENDBRANCH  16  17
ENDBRANCH  14  16
ENDBRANCH  13  14
ENDBRANCH  12  13
ENDBRANCH  11  12
BRANCH  10  20
HETATM   20  N5  UNL     1      16.772   8.019  30.249  1.00  0.00    -0.234 N 
ATOM     21  H52 UNL     1      15.892   7.575  30.512  1.00  0.00     0.174 HD
ATOM     22  H51 UNL     1      17.563   7.435  30.521  1.00  0.00     0.174 HD
ENDBRANCH  10  20
BRANCH   9  23
HETATM   23  C5  UNL     1      14.784   9.010  28.405  1.00  0.00     0.314 C 
BRANCH  23  24
HETATM   24  O1  UNL     1      14.039   8.651  29.500  1.00  0.00    -0.381 OA
ATOM     25  H1  UNL     1      14.086   7.720  29.686  1.00  0.00     0.211 HD
ENDBRANCH  23  24
ENDBRANCH   9  23
BRANCH   1  26
HETATM   26  N1  UNL     1      15.018  11.677  26.829  1.00  0.00    -0.383 N 
ATOM     27  H12 UNL     1      14.217  12.298  26.949  1.00  0.00     0.157 HD
ATOM     28  H11 UNL     1      14.903  10.928  26.146  1.00  0.00     0.157 HD
ENDBRANCH   1  26
TORSDOF 10
ENDMDL
