MODEL 1
REMARK VINA RESULT: -6.887556827      0.000      0.000
REMARK  11 active torsions:
REMARK  status: ('A' for Active; 'I' for Inactive)
REMARK    1  A    between atoms: N1_1  and  N2_4 
REMARK    2  A    between atoms: N2_4  and  C1_5 
REMARK    3  A    between atoms: C2_7  and  C3_8 
REMARK    4  A    between atoms: C3_8  and  N3_9 
REMARK    5  A    between atoms: C5_11  and  C6_12 
REMARK    6  A    between atoms: C6_12  and  N4_13 
REMARK    7  A    between atoms: C6_12  and  N5_17 
REMARK    8  A    between atoms: C8_24  and  N7_25 
REMARK    9  A    between atoms: N7_25  and  C9_27 
REMARK   10  A    between atoms: C9_27  and  C10_28 
REMARK   11  A    between atoms: C10_28  and  O2_29 
ROOT
HETATM    1  N3  UNL     1      18.677  10.947  27.923  1.00  0.00    -0.301 N 
HETATM    2  C4  UNL     1      19.318  11.951  28.540  1.00  0.00     0.122 A 
HETATM    3  C5  UNL     1      18.753  13.135  28.100  1.00  0.00     0.033 A 
HETATM    4  C7  UNL     1      17.764  12.809  27.210  1.00  0.00     0.119 A 
HETATM    5  N6  UNL     1      17.752  11.464  27.133  1.00  0.00    -0.309 N 
ATOM      6  H6  UNL     1      17.118  10.922  26.546  1.00  0.00     0.186 HD
ENDROOT
BRANCH   1   7
HETATM    7  C3  UNL     1      18.945   9.550  28.104  1.00  0.00     0.182 C 
BRANCH   7   8
HETATM    8  C2  UNL     1      19.711   9.193  29.322  1.00  0.00     0.170 C 
HETATM    9  O1  UNL     1      20.655   8.209  29.274  1.00  0.00    -0.357 OA
HETATM   10  C1  UNL     1      20.240   7.887  30.605  1.00  0.00     0.259 C 
HETATM   11  C8  UNL     1      18.868   8.160  30.138  1.00  0.00     0.158 C 
BRANCH  10  12
HETATM   12  N2  UNL     1      20.618   6.496  30.830  1.00  0.00    -0.114 NA
BRANCH  12  13
HETATM   13  N1  UNL     1      21.702   6.596  31.738  1.00  0.00    -0.346 N 
ATOM     14  H12 UNL     1      22.049   7.434  32.205  1.00  0.00     0.172 HD
ATOM     15  H11 UNL     1      22.041   5.637  31.805  1.00  0.00     0.172 HD
ENDBRANCH  12  13
ENDBRANCH  10  12
BRANCH  11  16
HETATM   16  N7  UNL     1      17.892   8.829  30.857  1.00  0.00    -0.389 N 
ATOM     17  H7  UNL     1      18.157   9.697  31.323  1.00  0.00     0.159 HD
BRANCH  16  18
HETATM   18  C9  UNL     1      16.575   8.400  30.990  1.00  0.00     0.082 C 
BRANCH  18  19
HETATM   19  C10 UNL     1      15.652   9.058  30.005  1.00  0.00     0.208 C 
BRANCH  19  20
HETATM   20  O2  UNL     1      14.469   8.282  29.845  1.00  0.00    -0.396 OA
ATOM     21  H2  UNL     1      14.081   8.445  28.992  1.00  0.00     0.209 HD
ENDBRANCH  19  20
ENDBRANCH  18  19
ENDBRANCH  16  18
ENDBRANCH  11  16
ENDBRANCH   7   8
ENDBRANCH   1   7
BRANCH   3  22
HETATM   22  C6  UNL     1      19.168  14.492  28.531  1.00  0.00     0.414 C 
BRANCH  22  23
HETATM   23  N4  UNL     1      18.328  15.476  27.844  1.00  0.00    -0.046 N 
ATOM     24  H43 UNL     1      18.704  15.746  26.936  1.00  0.00     0.277 HD
ATOM     25  H42 UNL     1      17.447  15.079  27.517  1.00  0.00     0.277 HD
ATOM     26  H41 UNL     1      18.191  16.274  28.464  1.00  0.00     0.277 HD
ENDBRANCH  22  23
BRANCH  22  27
HETATM   27  N5  UNL     1      19.001  14.610  29.957  1.00  0.00    -0.046 N 
ATOM     28  H53 UNL     1      18.022  14.553  30.238  1.00  0.00     0.277 HD
ATOM     29  H52 UNL     1      19.342  13.789  30.456  1.00  0.00     0.277 HD
ATOM     30  H51 UNL     1      19.445  15.470  30.279  1.00  0.00     0.277 HD
ENDBRANCH  22  27
ENDBRANCH   3  22
TORSDOF 11
ENDMDL
MODEL 2
REMARK VINA RESULT: -6.734569407      1.790      2.631
REMARK  11 active torsions:
REMARK  status: ('A' for Active; 'I' for Inactive)
REMARK    1  A    between atoms: N1_1  and  N2_4 
REMARK    2  A    between atoms: N2_4  and  C1_5 
REMARK    3  A    between atoms: C2_7  and  C3_8 
REMARK    4  A    between atoms: C3_8  and  N3_9 
REMARK    5  A    between atoms: C5_11  and  C6_12 
REMARK    6  A    between atoms: C6_12  and  N4_13 
REMARK    7  A    between atoms: C6_12  and  N5_17 
REMARK    8  A    between atoms: C8_24  and  N7_25 
REMARK    9  A    between atoms: N7_25  and  C9_27 
REMARK   10  A    between atoms: C9_27  and  C10_28 
REMARK   11  A    between atoms: C10_28  and  O2_29 
ROOT
HETATM    1  N3  UNL     1      18.245  10.156  28.342  1.00  0.00    -0.301 N 
HETATM    2  C4  UNL     1      17.008  10.029  27.838  1.00  0.00     0.122 A 
HETATM    3  C5  UNL     1      16.345  11.223  28.063  1.00  0.00     0.033 A 
HETATM    4  C7  UNL     1      17.216  12.057  28.711  1.00  0.00     0.119 A 
HETATM    5  N6  UNL     1      18.363  11.367  28.860  1.00  0.00    -0.309 N 
ATOM      6  H6  UNL     1      19.204  11.727  29.311  1.00  0.00     0.186 HD
ENDROOT
BRANCH   1   7
HETATM    7  C3  UNL     1      19.266   9.150  28.311  1.00  0.00     0.182 C 
BRANCH   7   8
HETATM    8  C2  UNL     1      19.926   8.862  29.607  1.00  0.00     0.170 C 
HETATM    9  O1  UNL     1      20.826   7.841  29.706  1.00  0.00    -0.357 OA
HETATM   10  C1  UNL     1      20.303   7.644  31.023  1.00  0.00     0.259 C 
HETATM   11  C8  UNL     1      18.981   7.932  30.435  1.00  0.00     0.158 C 
BRANCH  10  12
HETATM   12  N2  UNL     1      20.600   6.261  31.383  1.00  0.00    -0.114 NA
BRANCH  12  13
HETATM   13  N1  UNL     1      21.965   6.312  31.768  1.00  0.00    -0.346 N 
ATOM     14  H12 UNL     1      22.781   6.083  31.201  1.00  0.00     0.172 HD
ATOM     15  H11 UNL     1      21.923   6.629  32.736  1.00  0.00     0.172 HD
ENDBRANCH  12  13
ENDBRANCH  10  12
BRANCH  11  16
HETATM   16  N7  UNL     1      17.988   8.695  31.026  1.00  0.00    -0.389 N 
ATOM     17  H7  UNL     1      18.262   9.576  31.461  1.00  0.00     0.159 HD
BRANCH  16  18
HETATM   18  C9  UNL     1      16.643   8.344  31.067  1.00  0.00     0.082 C 
BRANCH  18  19
HETATM   19  C10 UNL     1      15.742   9.532  31.240  1.00  0.00     0.208 C 
BRANCH  19  20
HETATM   20  O2  UNL     1      14.516   9.327  30.544  1.00  0.00    -0.396 OA
ATOM     21  H2  UNL     1      14.650   8.741  29.808  1.00  0.00     0.209 HD
ENDBRANCH  19  20
ENDBRANCH  18  19
ENDBRANCH  16  18
ENDBRANCH  11  16
ENDBRANCH   7   8
ENDBRANCH   1   7
BRANCH   3  22
HETATM   22  C6  UNL     1      14.946  11.511  27.664  1.00  0.00     0.414 C 
BRANCH  22  23
HETATM   23  N4  UNL     1      14.953  12.060  26.306  1.00  0.00    -0.046 N 
ATOM     24  H43 UNL     1      15.055  11.339  25.592  1.00  0.00     0.277 HD
ATOM     25  H42 UNL     1      14.040  12.412  26.020  1.00  0.00     0.277 HD
ATOM     26  H41 UNL     1      15.682  12.772  26.249  1.00  0.00     0.277 HD
ENDBRANCH  22  23
BRANCH  22  27
HETATM   27  N5  UNL     1      14.180  10.291  27.699  1.00  0.00    -0.046 N 
ATOM     28  H53 UNL     1      14.090   9.864  26.777  1.00  0.00     0.277 HD
ATOM     29  H52 UNL     1      14.682   9.533  28.160  1.00  0.00     0.277 HD
ATOM     30  H51 UNL     1      13.274  10.474  28.130  1.00  0.00     0.277 HD
ENDBRANCH  22  27
ENDBRANCH   3  22
TORSDOF 11
ENDMDL
MODEL 3
REMARK VINA RESULT: -6.712432356      2.335      3.064
REMARK  11 active torsions:
REMARK  status: ('A' for Active; 'I' for Inactive)
REMARK    1  A    between atoms: N1_1  and  N2_4 
REMARK    2  A    between atoms: N2_4  and  C1_5 
REMARK    3  A    between atoms: C2_7  and  C3_8 
REMARK    4  A    between atoms: C3_8  and  N3_9 
REMARK    5  A    between atoms: C5_11  and  C6_12 
REMARK    6  A    between atoms: C6_12  and  N4_13 
REMARK    7  A    between atoms: C6_12  and  N5_17 
REMARK    8  A    between atoms: C8_24  and  N7_25 
REMARK    9  A    between atoms: N7_25  and  C9_27 
REMARK   10  A    between atoms: C9_27  and  C10_28 
REMARK   11  A    between atoms: C10_28  and  O2_29 
ROOT
HETATM    1  N3  UNL     1      17.094  12.215  27.387  1.00  0.00    -0.301 N 
HETATM    2  C4  UNL     1      16.179  12.395  26.422  1.00  0.00     0.122 A 
HETATM    3  C5  UNL     1      16.520  13.549  25.738  1.00  0.00     0.033 A 
HETATM    4  C7  UNL     1      17.656  14.046  26.319  1.00  0.00     0.119 A 
HETATM    5  N6  UNL     1      17.972  13.202  27.320  1.00  0.00    -0.309 N 
ATOM      6  H6  UNL     1      18.775  13.309  27.939  1.00  0.00     0.186 HD
ENDROOT
BRANCH   1   7
HETATM    7  C3  UNL     1      17.118  11.128  28.321  1.00  0.00     0.182 C 
BRANCH   7   8
HETATM    8  C2  UNL     1      18.299  11.074  29.216  1.00  0.00     0.170 C 
HETATM    9  O1  UNL     1      19.540  10.842  28.699  1.00  0.00    -0.357 OA
HETATM   10  C1  UNL     1      19.794  10.114  29.906  1.00  0.00     0.259 C 
HETATM   11  C8  UNL     1      18.409   9.622  29.784  1.00  0.00     0.158 C 
BRANCH  10  12
HETATM   12  N2  UNL     1      20.876   9.183  29.606  1.00  0.00    -0.114 NA
BRANCH  12  13
HETATM   13  N1  UNL     1      21.856   9.499  30.581  1.00  0.00    -0.346 N 
ATOM     14  H12 UNL     1      21.934  10.353  31.133  1.00  0.00     0.172 HD
ATOM     15  H11 UNL     1      22.452   8.671  30.591  1.00  0.00     0.172 HD
ENDBRANCH  12  13
ENDBRANCH  10  12
BRANCH  11  16
HETATM   16  N7  UNL     1      17.515   9.469  30.831  1.00  0.00    -0.389 N 
ATOM     17  H7  UNL     1      17.621  10.083  31.638  1.00  0.00     0.159 HD
BRANCH  16  18
HETATM   18  C9  UNL     1      16.484   8.535  30.858  1.00  0.00     0.082 C 
BRANCH  18  19
HETATM   19  C10 UNL     1      15.147   9.144  30.548  1.00  0.00     0.208 C 
BRANCH  19  20
HETATM   20  O2  UNL     1      14.418   8.304  29.659  1.00  0.00    -0.396 OA
ATOM     21  H2  UNL     1      13.484   8.447  29.763  1.00  0.00     0.209 HD
ENDBRANCH  19  20
ENDBRANCH  18  19
ENDBRANCH  16  18
ENDBRANCH  11  16
ENDBRANCH   7   8
ENDBRANCH   1   7
BRANCH   3  22
HETATM   22  C6  UNL     1      15.769  14.116  24.592  1.00  0.00     0.414 C 
BRANCH  22  23
HETATM   23  N4  UNL     1      14.388  13.633  24.656  1.00  0.00    -0.046 N 
ATOM     24  H43 UNL     1      14.322  12.682  25.018  1.00  0.00     0.277 HD
ATOM     25  H42 UNL     1      13.844  14.097  25.383  1.00  0.00     0.277 HD
ATOM     26  H41 UNL     1      13.968  13.730  23.732  1.00  0.00     0.277 HD
ENDBRANCH  22  23
BRANCH  22  27
HETATM   27  N5  UNL     1      15.794  15.555  24.671  1.00  0.00    -0.046 N 
ATOM     28  H53 UNL     1      15.792  15.994  23.751  1.00  0.00     0.277 HD
ATOM     29  H52 UNL     1      14.914  15.938  25.015  1.00  0.00     0.277 HD
ATOM     30  H51 UNL     1      16.590  15.848  25.237  1.00  0.00     0.277 HD
ENDBRANCH  22  27
ENDBRANCH   3  22
TORSDOF 11
ENDMDL
MODEL 4
REMARK VINA RESULT: -6.665261681      3.126      6.273
REMARK  11 active torsions:
REMARK  status: ('A' for Active; 'I' for Inactive)
REMARK    1  A    between atoms: N1_1  and  N2_4 
REMARK    2  A    between atoms: N2_4  and  C1_5 
REMARK    3  A    between atoms: C2_7  and  C3_8 
REMARK    4  A    between atoms: C3_8  and  N3_9 
REMARK    5  A    between atoms: C5_11  and  C6_12 
REMARK    6  A    between atoms: C6_12  and  N4_13 
REMARK    7  A    between atoms: C6_12  and  N5_17 
REMARK    8  A    between atoms: C8_24  and  N7_25 
REMARK    9  A    between atoms: N7_25  and  C9_27 
REMARK   10  A    between atoms: C9_27  and  C10_28 
REMARK   11  A    between atoms: C10_28  and  O2_29 
ROOT
HETATM    1  N3  UNL     1      18.808  10.737  28.462  1.00  0.00    -0.301 N 
HETATM    2  C4  UNL     1      19.718  10.479  29.412  1.00  0.00     0.122 A 
HETATM    3  C5  UNL     1      20.002   9.126  29.357  1.00  0.00     0.033 A 
HETATM    4  C7  UNL     1      19.240   8.590  28.353  1.00  0.00     0.119 A 
HETATM    5  N6  UNL     1      18.528   9.608  27.833  1.00  0.00    -0.309 N 
ATOM      6  H6  UNL     1      17.865   9.519  27.064  1.00  0.00     0.186 HD
ENDROOT
BRANCH   1   7
HETATM    7  C3  UNL     1      18.246  12.024  28.171  1.00  0.00     0.182 C 
BRANCH   7   8
HETATM    8  C2  UNL     1      16.766  12.098  28.182  1.00  0.00     0.170 C 
HETATM    9  O1  UNL     1      16.024  10.967  28.363  1.00  0.00    -0.357 OA
HETATM   10  C1  UNL     1      15.089  11.559  27.454  1.00  0.00     0.259 C 
HETATM   11  C8  UNL     1      16.268  12.029  26.702  1.00  0.00     0.158 C 
BRANCH  10  12
HETATM   12  N2  UNL     1      14.314  10.461  26.887  1.00  0.00    -0.114 NA
BRANCH  12  13
HETATM   13  N1  UNL     1      13.938   9.705  28.027  1.00  0.00    -0.346 N 
ATOM     14  H12 UNL     1      14.070   9.950  29.008  1.00  0.00     0.172 HD
ATOM     15  H11 UNL     1      13.511   8.871  27.624  1.00  0.00     0.172 HD
ENDBRANCH  12  13
ENDBRANCH  10  12
BRANCH  11  16
HETATM   16  N7  UNL     1      16.400  13.276  26.114  1.00  0.00    -0.389 N 
ATOM     17  H7  UNL     1      16.996  13.960  26.580  1.00  0.00     0.159 HD
BRANCH  16  18
HETATM   18  C9  UNL     1      15.778  13.660  24.930  1.00  0.00     0.082 C 
BRANCH  18  19
HETATM   19  C10 UNL     1      16.165  15.045  24.499  1.00  0.00     0.208 C 
BRANCH  19  20
HETATM   20  O2  UNL     1      16.635  15.796  25.614  1.00  0.00    -0.396 OA
ATOM     21  H2  UNL     1      16.851  16.682  25.346  1.00  0.00     0.209 HD
ENDBRANCH  19  20
ENDBRANCH  18  19
ENDBRANCH  16  18
ENDBRANCH  11  16
ENDBRANCH   7   8
ENDBRANCH   1   7
BRANCH   3  22
HETATM   22  C6  UNL     1      20.960   8.417  30.240  1.00  0.00     0.414 C 
BRANCH  22  23
HETATM   23  N4  UNL     1      21.936   9.388  30.742  1.00  0.00    -0.046 N 
ATOM     24  H43 UNL     1      22.787   9.413  30.181  1.00  0.00     0.277 HD
ATOM     25  H42 UNL     1      21.641  10.353  30.592  1.00  0.00     0.277 HD
ATOM     26  H41 UNL     1      22.120   9.183  31.724  1.00  0.00     0.277 HD
ENDBRANCH  22  23
BRANCH  22  27
HETATM   27  N5  UNL     1      20.244   7.823  31.341  1.00  0.00    -0.046 N 
ATOM     28  H53 UNL     1      20.802   7.127  31.835  1.00  0.00     0.277 HD
ATOM     29  H52 UNL     1      20.111   8.476  32.112  1.00  0.00     0.277 HD
ATOM     30  H51 UNL     1      19.361   7.441  31.001  1.00  0.00     0.277 HD
ENDBRANCH  22  27
ENDBRANCH   3  22
TORSDOF 11
ENDMDL
MODEL 5
REMARK VINA RESULT: -6.637795182      3.150      4.181
REMARK  11 active torsions:
REMARK  status: ('A' for Active; 'I' for Inactive)
REMARK    1  A    between atoms: N1_1  and  N2_4 
REMARK    2  A    between atoms: N2_4  and  C1_5 
REMARK    3  A    between atoms: C2_7  and  C3_8 
REMARK    4  A    between atoms: C3_8  and  N3_9 
REMARK    5  A    between atoms: C5_11  and  C6_12 
REMARK    6  A    between atoms: C6_12  and  N4_13 
REMARK    7  A    between atoms: C6_12  and  N5_17 
REMARK    8  A    between atoms: C8_24  and  N7_25 
REMARK    9  A    between atoms: N7_25  and  C9_27 
REMARK   10  A    between atoms: C9_27  and  C10_28 
REMARK   11  A    between atoms: C10_28  and  O2_29 
ROOT
HETATM    1  N3  UNL     1      16.256   9.604  30.626  1.00  0.00    -0.301 N 
HETATM    2  C4  UNL     1      15.498   9.551  29.519  1.00  0.00     0.122 A 
HETATM    3  C5  UNL     1      15.249  10.854  29.125  1.00  0.00     0.033 A 
HETATM    4  C7  UNL     1      15.875  11.678  30.021  1.00  0.00     0.119 A 
HETATM    5  N6  UNL     1      16.477  10.875  30.919  1.00  0.00    -0.309 N 
ATOM      6  H6  UNL     1      17.026  11.201  31.714  1.00  0.00     0.186 HD
ENDROOT
BRANCH   1   7
HETATM    7  C3  UNL     1      16.749   8.473  31.355  1.00  0.00     0.182 C 
BRANCH   7   8
HETATM    8  C2  UNL     1      18.223   8.319  31.384  1.00  0.00     0.170 C 
HETATM    9  O1  UNL     1      19.009   9.326  31.863  1.00  0.00    -0.357 OA
HETATM   10  C1  UNL     1      19.949   8.931  30.859  1.00  0.00     0.259 C 
HETATM   11  C8  UNL     1      18.780   8.729  29.982  1.00  0.00     0.158 C 
BRANCH  10  12
HETATM   12  N2  UNL     1      20.796  10.093  30.606  1.00  0.00    -0.114 NA
BRANCH  12  13
HETATM   13  N1  UNL     1      22.109   9.574  30.742  1.00  0.00    -0.346 N 
ATOM     14  H12 UNL     1      22.944  10.066  31.060  1.00  0.00     0.172 HD
ATOM     15  H11 UNL     1      22.008   8.603  30.447  1.00  0.00     0.172 HD
ENDBRANCH  12  13
ENDBRANCH  10  12
BRANCH  11  16
HETATM   16  N7  UNL     1      18.613   7.679  29.095  1.00  0.00    -0.389 N 
ATOM     17  H7  UNL     1      18.922   6.754  29.392  1.00  0.00     0.159 HD
BRANCH  16  18
HETATM   18  C9  UNL     1      18.052   7.799  27.828  1.00  0.00     0.082 C 
BRANCH  18  19
HETATM   19  C10 UNL     1      19.083   7.792  26.737  1.00  0.00     0.208 C 
BRANCH  19  20
HETATM   20  O2  UNL     1      18.912   6.650  25.903  1.00  0.00    -0.396 OA
ATOM     21  H2  UNL     1      19.695   6.113  25.915  1.00  0.00     0.209 HD
ENDBRANCH  19  20
ENDBRANCH  18  19
ENDBRANCH  16  18
ENDBRANCH  11  16
ENDBRANCH   7   8
ENDBRANCH   1   7
BRANCH   3  22
HETATM   22  C6  UNL     1      14.444  11.249  27.943  1.00  0.00     0.414 C 
BRANCH  22  23
HETATM   23  N4  UNL     1      15.331  11.890  26.970  1.00  0.00    -0.046 N 
ATOM     24  H43 UNL     1      15.383  11.378  26.090  1.00  0.00     0.277 HD
ATOM     25  H42 UNL     1      14.946  12.761  26.603  1.00  0.00     0.277 HD
ATOM     26  H41 UNL     1      16.246  12.019  27.402  1.00  0.00     0.277 HD
ENDBRANCH  22  23
BRANCH  22  27
HETATM   27  N5  UNL     1      13.841  10.076  27.364  1.00  0.00    -0.046 N 
ATOM     28  H53 UNL     1      14.207   9.871  26.434  1.00  0.00     0.277 HD
ATOM     29  H52 UNL     1      14.140   9.218  27.828  1.00  0.00     0.277 HD
ATOM     30  H51 UNL     1      12.827  10.182  27.365  1.00  0.00     0.277 HD
ENDBRANCH  22  27
ENDBRANCH   3  22
TORSDOF 11
ENDMDL
