MODEL 1
REMARK VINA RESULT: -7.879081959      0.000      0.000
REMARK  9 active torsions:
REMARK  status: ('A' for Active; 'I' for Inactive)
REMARK    1  A    between atoms: C2_2  and  N2_6 
REMARK    2  A    between atoms: N2_6  and  C3_8 
REMARK    3  A    between atoms: C3_8  and  C4_9 
REMARK    4  A    between atoms: C4_9  and  N3_10 
REMARK    5  A    between atoms: N3_10  and  C5_12 
REMARK    6  A    between atoms: C6_16  and  N5_17 
REMARK    7  A    between atoms: C7_23  and  N9_24 
REMARK    8  A    between atoms: C8_27  and  C9_28 
REMARK    9  A    between atoms: C9_28  and  O1_29 
ROOT
HETATM    1  C5  UNL     1      17.237  10.960  28.539  1.00  0.00     0.427 C 
HETATM    2  N4  UNL     1      18.347  11.007  29.473  1.00  0.00    -0.005 N 
ATOM      3  H41 UNL     1      18.145  11.404  30.391  1.00  0.00     0.285 HD
ATOM      4  H42 UNL     1      19.085  11.678  29.261  1.00  0.00     0.285 HD
HETATM    5  C6  UNL     1      18.737   9.586  29.453  1.00  0.00     0.362 C 
HETATM    6  C8  UNL     1      18.609   9.296  27.976  1.00  0.00     0.202 C 
HETATM    7  O2  UNL     1      17.787  10.291  27.451  1.00  0.00    -0.333 OA
ENDROOT
BRANCH   1   8
HETATM    8  N3  UNL     1      16.706  12.237  28.211  1.00  0.00    -0.373 N 
ATOM      9  H3  UNL     1      15.877  12.613  28.671  1.00  0.00     0.157 HD
BRANCH   8  10
HETATM   10  C4  UNL     1      17.404  12.959  27.197  1.00  0.00     0.137 C 
BRANCH  10  11
HETATM   11  C3  UNL     1      16.535  12.961  25.953  1.00  0.00     0.140 C 
BRANCH  11  12
HETATM   12  N2  UNL     1      16.553  14.245  25.304  1.00  0.00    -0.379 N 
ATOM     13  H2  UNL     1      17.188  14.981  25.612  1.00  0.00     0.160 HD
BRANCH  12  14
HETATM   14  C2  UNL     1      15.655  14.453  24.219  1.00  0.00     0.066 C 
HETATM   15  C1  UNL     1      16.092  15.298  23.059  1.00  0.00     0.088 C 
HETATM   16  N1  UNL     1      14.481  13.933  24.211  1.00  0.00    -0.389 N 
ATOM     17  H12 UNL     1      13.838  14.082  23.433  1.00  0.00     0.157 HD
ATOM     18  H11 UNL     1      14.184  13.359  24.999  1.00  0.00     0.157 HD
ENDBRANCH  12  14
ENDBRANCH  11  12
ENDBRANCH  10  11
ENDBRANCH   8  10
ENDBRANCH   1   8
BRANCH   5  19
HETATM   19  N5  UNL     1      20.037   9.367  29.977  1.00  0.00    -0.075 N 
HETATM   20  N6  UNL     1      21.051  10.207  30.017  1.00  0.00    -0.207 N 
HETATM   21  N7  UNL     1      22.082   9.602  30.589  1.00  0.00     0.009 NA
ATOM     22  H6  UNL     1      21.044  11.165  29.666  1.00  0.00     0.206 HD
HETATM   23  N8  UNL     1      21.751   8.368  30.925  1.00  0.00    -0.114 N 
HETATM   24  C7  UNL     1      20.467   8.222  30.540  1.00  0.00     0.708 A 
ATOM     25  H8  UNL     1      22.342   7.671  31.379  1.00  0.00     0.203 HD
BRANCH  24  26
HETATM   26  N9  UNL     1      19.768   7.134  30.697  1.00  0.00    -0.232 N 
ATOM     27  H92 UNL     1      19.958   6.422  31.403  1.00  0.00     0.174 HD
ATOM     28  H91 UNL     1      18.956   6.855  30.146  1.00  0.00     0.174 HD
ENDBRANCH  24  26
ENDBRANCH   5  19
BRANCH   6  29
HETATM   29  C9  UNL     1      17.977   7.923  27.834  1.00  0.00     0.200 C 
BRANCH  29  30
HETATM   30  O1  UNL     1      17.435   7.472  29.033  1.00  0.00    -0.398 OA
ATOM     31  H1  UNL     1      17.683   6.575  29.220  1.00  0.00     0.209 HD
ENDBRANCH  29  30
ENDBRANCH   6  29
TORSDOF 9
ENDMDL
MODEL 2
REMARK VINA RESULT: -7.688223362      1.977      3.505
REMARK  9 active torsions:
REMARK  status: ('A' for Active; 'I' for Inactive)
REMARK    1  A    between atoms: C2_2  and  N2_6 
REMARK    2  A    between atoms: N2_6  and  C3_8 
REMARK    3  A    between atoms: C3_8  and  C4_9 
REMARK    4  A    between atoms: C4_9  and  N3_10 
REMARK    5  A    between atoms: N3_10  and  C5_12 
REMARK    6  A    between atoms: C6_16  and  N5_17 
REMARK    7  A    between atoms: C7_23  and  N9_24 
REMARK    8  A    between atoms: C8_27  and  C9_28 
REMARK    9  A    between atoms: C9_28  and  O1_29 
ROOT
HETATM    1  C5  UNL     1      17.584  10.835  27.767  1.00  0.00     0.427 C 
HETATM    2  N4  UNL     1      18.551  10.946  28.844  1.00  0.00    -0.005 N 
ATOM      3  H41 UNL     1      18.225  11.411  29.693  1.00  0.00     0.285 HD
ATOM      4  H42 UNL     1      19.321  11.597  28.691  1.00  0.00     0.285 HD
HETATM    5  C6  UNL     1      18.919   9.526  28.983  1.00  0.00     0.362 C 
HETATM    6  C8  UNL     1      18.998   9.128  27.528  1.00  0.00     0.202 C 
HETATM    7  O2  UNL     1      18.274  10.085  26.820  1.00  0.00    -0.333 OA
ENDROOT
BRANCH   1   8
HETATM    8  N3  UNL     1      17.124  12.085  27.274  1.00  0.00    -0.373 N 
ATOM      9  H3  UNL     1      17.760  12.858  27.079  1.00  0.00     0.157 HD
BRANCH   8  10
HETATM   10  C4  UNL     1      15.715  12.194  27.071  1.00  0.00     0.137 C 
BRANCH  10  11
HETATM   11  C3  UNL     1      15.064  10.980  27.707  1.00  0.00     0.140 C 
BRANCH  11  12
HETATM   12  N2  UNL     1      14.918  11.151  29.128  1.00  0.00    -0.379 N 
ATOM     13  H2  UNL     1      14.792  12.076  29.538  1.00  0.00     0.160 HD
BRANCH  12  14
HETATM   14  C2  UNL     1      14.955   9.984  29.944  1.00  0.00     0.066 C 
HETATM   15  C1  UNL     1      15.878   9.945  31.125  1.00  0.00     0.088 C 
HETATM   16  N1  UNL     1      14.215   8.965  29.690  1.00  0.00    -0.389 N 
ATOM     17  H12 UNL     1      14.241   8.129  30.274  1.00  0.00     0.157 HD
ATOM     18  H11 UNL     1      13.587   8.991  28.887  1.00  0.00     0.157 HD
ENDBRANCH  12  14
ENDBRANCH  11  12
ENDBRANCH  10  11
ENDBRANCH   8  10
ENDBRANCH   1   8
BRANCH   5  19
HETATM   19  N5  UNL     1      20.129   9.342  29.702  1.00  0.00    -0.075 N 
HETATM   20  N6  UNL     1      21.144  10.174  29.816  1.00  0.00    -0.207 N 
HETATM   21  N7  UNL     1      22.072   9.611  30.576  1.00  0.00     0.009 NA
ATOM     22  H6  UNL     1      21.205  11.099  29.390  1.00  0.00     0.206 HD
HETATM   23  N8  UNL     1      21.672   8.412  30.961  1.00  0.00    -0.114 N 
HETATM   24  C7  UNL     1      20.452   8.245  30.412  1.00  0.00     0.708 A 
ATOM     25  H8  UNL     1      22.179   7.751  31.550  1.00  0.00     0.203 HD
BRANCH  24  26
HETATM   26  N9  UNL     1      19.716   7.179  30.558  1.00  0.00    -0.232 N 
ATOM     27  H92 UNL     1      19.405   6.810  31.457  1.00  0.00     0.174 HD
ATOM     28  H91 UNL     1      19.363   6.585  29.808  1.00  0.00     0.174 HD
ENDBRANCH  24  26
ENDBRANCH   5  19
BRANCH   6  29
HETATM   29  C9  UNL     1      18.373   7.751  27.397  1.00  0.00     0.200 C 
BRANCH  29  30
HETATM   30  O1  UNL     1      17.615   7.415  28.513  1.00  0.00    -0.398 OA
ATOM     31  H1  UNL     1      18.084   6.834  29.100  1.00  0.00     0.209 HD
ENDBRANCH  29  30
ENDBRANCH   6  29
TORSDOF 9
ENDMDL
MODEL 3
REMARK VINA RESULT: -7.637303925      1.765      2.295
REMARK  9 active torsions:
REMARK  status: ('A' for Active; 'I' for Inactive)
REMARK    1  A    between atoms: C2_2  and  N2_6 
REMARK    2  A    between atoms: N2_6  and  C3_8 
REMARK    3  A    between atoms: C3_8  and  C4_9 
REMARK    4  A    between atoms: C4_9  and  N3_10 
REMARK    5  A    between atoms: N3_10  and  C5_12 
REMARK    6  A    between atoms: C6_16  and  N5_17 
REMARK    7  A    between atoms: C7_23  and  N9_24 
REMARK    8  A    between atoms: C8_27  and  C9_28 
REMARK    9  A    between atoms: C9_28  and  O1_29 
ROOT
HETATM    1  C5  UNL     1      17.185  10.897  28.541  1.00  0.00     0.427 C 
HETATM    2  N4  UNL     1      18.294  10.950  29.477  1.00  0.00    -0.005 N 
ATOM      3  H41 UNL     1      18.084  11.328  30.401  1.00  0.00     0.285 HD
ATOM      4  H42 UNL     1      19.019  11.638  29.275  1.00  0.00     0.285 HD
HETATM    5  C6  UNL     1      18.710   9.537  29.434  1.00  0.00     0.362 C 
HETATM    6  C8  UNL     1      18.588   9.268  27.953  1.00  0.00     0.202 C 
HETATM    7  O2  UNL     1      17.748  10.255  27.443  1.00  0.00    -0.333 OA
ENDROOT
BRANCH   1   8
HETATM    8  N3  UNL     1      16.631  12.168  28.233  1.00  0.00    -0.373 N 
ATOM      9  H3  UNL     1      16.295  12.803  28.957  1.00  0.00     0.157 HD
BRANCH   8  10
HETATM   10  C4  UNL     1      16.572  12.502  26.847  1.00  0.00     0.137 C 
BRANCH  10  11
HETATM   11  C3  UNL     1      17.636  13.551  26.580  1.00  0.00     0.140 C 
BRANCH  11  12
HETATM   12  N2  UNL     1      18.023  14.222  27.793  1.00  0.00    -0.379 N 
ATOM     13  H2  UNL     1      17.719  13.880  28.704  1.00  0.00     0.160 HD
BRANCH  12  14
HETATM   14  C2  UNL     1      18.843  15.380  27.677  1.00  0.00     0.066 C 
HETATM   15  C1  UNL     1      20.272  15.225  27.249  1.00  0.00     0.088 C 
HETATM   16  N1  UNL     1      18.386  16.554  27.932  1.00  0.00    -0.389 N 
ATOM     17  H12 UNL     1      18.974  17.383  27.848  1.00  0.00     0.157 HD
ATOM     18  H11 UNL     1      17.415  16.659  28.223  1.00  0.00     0.157 HD
ENDBRANCH  12  14
ENDBRANCH  11  12
ENDBRANCH  10  11
ENDBRANCH   8  10
ENDBRANCH   1   8
BRANCH   5  19
HETATM   19  N5  UNL     1      20.015   9.334  29.955  1.00  0.00    -0.075 N 
HETATM   20  N6  UNL     1      21.030  10.174  29.961  1.00  0.00    -0.207 N 
HETATM   21  N7  UNL     1      22.064   9.588  30.545  1.00  0.00     0.009 NA
ATOM     22  H6  UNL     1      21.020  11.120  29.579  1.00  0.00     0.206 HD
HETATM   23  N8  UNL     1      21.734   8.365  30.923  1.00  0.00    -0.114 N 
HETATM   24  C7  UNL     1      20.448   8.208  30.552  1.00  0.00     0.708 A 
ATOM     25  H8  UNL     1      22.328   7.683  31.395  1.00  0.00     0.203 HD
BRANCH  24  26
HETATM   26  N9  UNL     1      19.749   7.126  30.750  1.00  0.00    -0.232 N 
ATOM     27  H92 UNL     1      19.081   7.000  31.511  1.00  0.00     0.174 HD
ATOM     28  H91 UNL     1      19.778   6.279  30.182  1.00  0.00     0.174 HD
ENDBRANCH  24  26
ENDBRANCH   5  19
BRANCH   6  29
HETATM   29  C9  UNL     1      17.982   7.886  27.789  1.00  0.00     0.200 C 
BRANCH  29  30
HETATM   30  O1  UNL     1      17.516   7.375  28.995  1.00  0.00    -0.398 OA
ATOM     31  H1  UNL     1      16.650   7.700  29.208  1.00  0.00     0.209 HD
ENDBRANCH  29  30
ENDBRANCH   6  29
TORSDOF 9
ENDMDL
MODEL 4
REMARK VINA RESULT: -7.567545894      3.459      4.548
REMARK  9 active torsions:
REMARK  status: ('A' for Active; 'I' for Inactive)
REMARK    1  A    between atoms: C2_2  and  N2_6 
REMARK    2  A    between atoms: N2_6  and  C3_8 
REMARK    3  A    between atoms: C3_8  and  C4_9 
REMARK    4  A    between atoms: C4_9  and  N3_10 
REMARK    5  A    between atoms: N3_10  and  C5_12 
REMARK    6  A    between atoms: C6_16  and  N5_17 
REMARK    7  A    between atoms: C7_23  and  N9_24 
REMARK    8  A    between atoms: C8_27  and  C9_28 
REMARK    9  A    between atoms: C9_28  and  O1_29 
ROOT
HETATM    1  C5  UNL     1      16.205  12.738  26.094  1.00  0.00     0.427 C 
HETATM    2  N4  UNL     1      15.367  11.843  26.871  1.00  0.00    -0.005 N 
ATOM      3  H41 UNL     1      14.818  11.168  26.339  1.00  0.00     0.285 HD
ATOM      4  H42 UNL     1      14.554  12.266  27.320  1.00  0.00     0.285 HD
HETATM    5  C6  UNL     1      16.388  11.282  27.773  1.00  0.00     0.362 C 
HETATM    6  C8  UNL     1      17.180  12.530  28.088  1.00  0.00     0.202 C 
HETATM    7  O2  UNL     1      16.885  13.445  27.080  1.00  0.00    -0.333 OA
ENDROOT
BRANCH   1   8
HETATM    8  N3  UNL     1      15.483  13.569  25.196  1.00  0.00    -0.373 N 
ATOM      9  H3  UNL     1      14.544  13.332  24.875  1.00  0.00     0.157 HD
BRANCH   8  10
HETATM   10  C4  UNL     1      16.152  14.756  24.772  1.00  0.00     0.137 C 
BRANCH  10  11
HETATM   11  C3  UNL     1      16.231  14.722  23.256  1.00  0.00     0.140 C 
BRANCH  11  12
HETATM   12  N2  UNL     1      15.131  15.432  22.659  1.00  0.00    -0.379 N 
ATOM     13  H2  UNL     1      14.434  15.903  23.235  1.00  0.00     0.160 HD
BRANCH  12  14
HETATM   14  C2  UNL     1      15.050  15.455  21.238  1.00  0.00     0.066 C 
HETATM   15  C1  UNL     1      14.313  14.358  20.529  1.00  0.00     0.088 C 
HETATM   16  N1  UNL     1      15.594  16.394  20.550  1.00  0.00    -0.389 N 
ATOM     17  H12 UNL     1      15.535  16.411  19.532  1.00  0.00     0.157 HD
ATOM     18  H11 UNL     1      16.094  17.140  21.032  1.00  0.00     0.157 HD
ENDBRANCH  12  14
ENDBRANCH  11  12
ENDBRANCH  10  11
ENDBRANCH   8  10
ENDBRANCH   1   8
BRANCH   5  19
HETATM   19  N5  UNL     1      15.825  10.650  28.912  1.00  0.00    -0.075 N 
HETATM   20  N6  UNL     1      16.219  10.731  30.167  1.00  0.00    -0.207 N 
HETATM   21  N7  UNL     1      15.418   9.985  30.913  1.00  0.00     0.009 NA
ATOM     22  H6  UNL     1      17.010  11.278  30.508  1.00  0.00     0.206 HD
HETATM   23  N8  UNL     1      14.499   9.412  30.155  1.00  0.00    -0.114 N 
HETATM   24  C7  UNL     1      14.756   9.831  28.899  1.00  0.00     0.708 A 
ATOM     25  H8  UNL     1      13.753   8.785  30.456  1.00  0.00     0.203 HD
BRANCH  24  26
HETATM   26  N9  UNL     1      14.066   9.486  27.850  1.00  0.00    -0.232 N 
ATOM     27  H92 UNL     1      13.484  10.123  27.305  1.00  0.00     0.174 HD
ATOM     28  H91 UNL     1      14.016   8.552  27.443  1.00  0.00     0.174 HD
ENDBRANCH  24  26
ENDBRANCH   5  19
BRANCH   6  29
HETATM   29  C9  UNL     1      18.650  12.151  28.081  1.00  0.00     0.200 C 
BRANCH  29  30
HETATM   30  O1  UNL     1      19.105  11.805  29.348  1.00  0.00    -0.398 OA
ATOM     31  H1  UNL     1      19.399  10.903  29.386  1.00  0.00     0.209 HD
ENDBRANCH  29  30
ENDBRANCH   6  29
TORSDOF 9
ENDMDL
MODEL 5
REMARK VINA RESULT: -7.464644576      2.200      3.351
REMARK  9 active torsions:
REMARK  status: ('A' for Active; 'I' for Inactive)
REMARK    1  A    between atoms: C2_2  and  N2_6 
REMARK    2  A    between atoms: N2_6  and  C3_8 
REMARK    3  A    between atoms: C3_8  and  C4_9 
REMARK    4  A    between atoms: C4_9  and  N3_10 
REMARK    5  A    between atoms: N3_10  and  C5_12 
REMARK    6  A    between atoms: C6_16  and  N5_17 
REMARK    7  A    between atoms: C7_23  and  N9_24 
REMARK    8  A    between atoms: C8_27  and  C9_28 
REMARK    9  A    between atoms: C9_28  and  O1_29 
ROOT
HETATM    1  C5  UNL     1      16.838  12.490  26.631  1.00  0.00     0.427 C 
HETATM    2  N4  UNL     1      17.813  11.435  26.840  1.00  0.00    -0.005 N 
ATOM      3  H41 UNL     1      18.792  11.722  26.836  1.00  0.00     0.285 HD
ATOM      4  H42 UNL     1      17.925  10.768  26.077  1.00  0.00     0.285 HD
HETATM    5  C6  UNL     1      17.304  10.887  28.110  1.00  0.00     0.362 C 
HETATM    6  C8  UNL     1      15.818  10.915  27.835  1.00  0.00     0.202 C 
HETATM    7  O2  UNL     1      15.630  11.819  26.792  1.00  0.00    -0.333 OA
ENDROOT
BRANCH   1   8
HETATM    8  N3  UNL     1      16.959  13.145  25.376  1.00  0.00    -0.373 N 
ATOM      9  H3  UNL     1      17.807  13.085  24.813  1.00  0.00     0.157 HD
BRANCH   8  10
HETATM   10  C4  UNL     1      15.820  13.894  24.952  1.00  0.00     0.137 C 
BRANCH  10  11
HETATM   11  C3  UNL     1      16.202  14.634  23.684  1.00  0.00     0.140 C 
BRANCH  11  12
HETATM   12  N2  UNL     1      15.045  14.929  22.882  1.00  0.00    -0.379 N 
ATOM     13  H2  UNL     1      14.137  15.105  23.312  1.00  0.00     0.160 HD
BRANCH  12  14
HETATM   14  C2  UNL     1      15.209  14.968  21.468  1.00  0.00     0.066 C 
HETATM   15  C1  UNL     1      14.198  14.287  20.594  1.00  0.00     0.088 C 
HETATM   16  N1  UNL     1      16.204  15.573  20.925  1.00  0.00    -0.389 N 
ATOM     17  H12 UNL     1      16.321  15.601  19.913  1.00  0.00     0.157 HD
ATOM     18  H11 UNL     1      16.891  16.036  21.519  1.00  0.00     0.157 HD
ENDBRANCH  12  14
ENDBRANCH  11  12
ENDBRANCH  10  11
ENDBRANCH   8  10
ENDBRANCH   1   8
BRANCH   5  19
HETATM   19  N5  UNL     1      17.817   9.595  28.394  1.00  0.00    -0.075 N 
HETATM   20  N6  UNL     1      17.244   8.427  28.186  1.00  0.00    -0.207 N 
HETATM   21  N7  UNL     1      18.066   7.471  28.595  1.00  0.00     0.009 NA
ATOM     22  H6  UNL     1      16.320   8.282  27.777  1.00  0.00     0.206 HD
HETATM   23  N8  UNL     1      19.176   8.006  29.072  1.00  0.00    -0.114 N 
HETATM   24  C7  UNL     1      19.018   9.339  28.945  1.00  0.00     0.708 A 
ATOM     25  H8  UNL     1      19.983   7.514  29.456  1.00  0.00     0.203 HD
BRANCH  24  26
HETATM   26  N9  UNL     1      19.903  10.224  29.305  1.00  0.00    -0.232 N 
ATOM     27  H92 UNL     1      19.952  10.649  30.232  1.00  0.00     0.174 HD
ATOM     28  H91 UNL     1      20.648  10.604  28.720  1.00  0.00     0.174 HD
ENDBRANCH  24  26
ENDBRANCH   5  19
BRANCH   6  29
HETATM   29  C9  UNL     1      15.128  11.381  29.104  1.00  0.00     0.200 C 
BRANCH  29  30
HETATM   30  O1  UNL     1      14.759  10.316  29.918  1.00  0.00    -0.398 OA
ATOM     31  H1  UNL     1      14.056   9.804  29.537  1.00  0.00     0.209 HD
ENDBRANCH  29  30
ENDBRANCH   6  29
TORSDOF 9
ENDMDL
