MODEL 1
REMARK VINA RESULT: -8.849468798      0.000      0.000
REMARK  12 active torsions:
REMARK  status: ('A' for Active; 'I' for Inactive)
REMARK    1  A    between atoms: O1_1  and  C1_3 
REMARK    2  A    between atoms: C1_3  and  N1_4 
REMARK    3  A    between atoms: C1_3  and  N2_20 
REMARK    4  A    between atoms: N1_4  and  C2_6 
REMARK    5  A    between atoms: C2_6  and  C3_7 
REMARK    6  A    between atoms: C3_7  and  C4_8 
REMARK    7  A    between atoms: C4_8  and  C5_9 
REMARK    8  A    between atoms: C5_9  and  C6_10 
REMARK    9  A    between atoms: C6_10  and  C7_11 
REMARK   10  A    between atoms: C7_11  and  C8_12 
REMARK   11  A    between atoms: N2_20  and  C16_21 
REMARK   12  A    between atoms: N2_20  and  C23_28 
ROOT
HETATM    1  C1  UNL     1      14.314  23.546  44.199  1.00  0.00     0.215 C 
ENDROOT
BRANCH   1   2
HETATM    2  O1  UNL     1      14.578  24.741  44.642  1.00  0.00    -0.333 OA
ATOM      3  H1  UNL     1      15.442  24.864  45.016  1.00  0.00     0.220 HD
ENDBRANCH   1   2
BRANCH   1   4
HETATM    4  N1  UNL     1      12.968  23.196  44.157  1.00  0.00    -0.356 N 
ATOM      5  H1  UNL     1      12.265  23.929  44.250  1.00  0.00     0.163 HD
BRANCH   4   6
HETATM    6  C2  UNL     1      12.531  21.825  43.986  1.00  0.00     0.123 C 
BRANCH   6   7
HETATM    7  C3  UNL     1      12.343  21.435  42.562  1.00  0.00     0.020 C 
BRANCH   7   8
HETATM    8  C4  UNL     1      12.957  20.041  42.370  1.00  0.00     0.002 C 
BRANCH   8   9
HETATM    9  C5  UNL     1      13.115  19.861  40.880  1.00  0.00     0.000 C 
BRANCH   9  10
HETATM   10  C6  UNL     1      11.815  19.874  40.133  1.00  0.00     0.000 C 
BRANCH  10  11
HETATM   11  C7  UNL     1      12.052  19.241  38.788  1.00  0.00     0.004 C 
BRANCH  11  12
HETATM   12  C8  UNL     1      10.824  19.311  37.904  1.00  0.00    -0.014 C 
HETATM   13  C9  UNL     1      10.505  17.953  37.350  1.00  0.00     0.004 C 
HETATM   14  C10 UNL     1      10.053  16.959  38.343  1.00  0.00     0.000 C 
HETATM   15  C11 UNL     1       8.667  16.427  38.140  1.00  0.00     0.000 C 
HETATM   16  C12 UNL     1       7.668  17.451  37.703  1.00  0.00     0.000 C 
HETATM   17  C13 UNL     1       7.669  18.659  38.617  1.00  0.00     0.000 C 
HETATM   18  C14 UNL     1       8.360  19.784  37.921  1.00  0.00     0.000 C 
HETATM   19  C15 UNL     1       9.704  19.985  38.606  1.00  0.00     0.004 C 
ENDBRANCH  11  12
ENDBRANCH  10  11
ENDBRANCH   9  10
ENDBRANCH   8   9
ENDBRANCH   7   8
ENDBRANCH   6   7
ENDBRANCH   4   6
ENDBRANCH   1   4
BRANCH   1  20
HETATM   20  N2  UNL     1      15.444  22.804  43.831  1.00  0.00    -0.338 N 
BRANCH  20  21
HETATM   21  C16 UNL     1      16.020  21.908  44.854  1.00  0.00     0.088 C 
HETATM   22  C17 UNL     1      16.418  20.597  44.273  1.00  0.00     0.025 C 
HETATM   23  C18 UNL     1      17.254  19.831  45.243  1.00  0.00     0.002 C 
HETATM   24  C19 UNL     1      18.663  20.381  45.309  1.00  0.00     0.000 C 
HETATM   25  C20 UNL     1      18.868  21.183  46.582  1.00  0.00     0.000 C 
HETATM   26  C21 UNL     1      17.635  22.044  46.765  1.00  0.00     0.002 C 
HETATM   27  C22 UNL     1      17.154  22.670  45.499  1.00  0.00     0.025 C 
ENDBRANCH  20  21
BRANCH  20  28
HETATM   28  C23 UNL     1      16.055  22.853  42.535  1.00  0.00     0.088 C 
HETATM   29  C24 UNL     1      17.031  23.979  42.320  1.00  0.00     0.025 C 
HETATM   30  C25 UNL     1      16.903  24.538  40.894  1.00  0.00     0.002 C 
HETATM   31  C26 UNL     1      16.974  23.369  39.969  1.00  0.00     0.000 C 
HETATM   32  C27 UNL     1      15.739  22.520  40.098  1.00  0.00     0.002 C 
HETATM   33  C28 UNL     1      15.060  22.854  41.416  1.00  0.00     0.025 C 
ENDBRANCH  20  28
ENDBRANCH   1  20
TORSDOF 12
ENDMDL
MODEL 2
REMARK VINA RESULT: -8.725621198      0.855      1.489
REMARK  12 active torsions:
REMARK  status: ('A' for Active; 'I' for Inactive)
REMARK    1  A    between atoms: O1_1  and  C1_3 
REMARK    2  A    between atoms: C1_3  and  N1_4 
REMARK    3  A    between atoms: C1_3  and  N2_20 
REMARK    4  A    between atoms: N1_4  and  C2_6 
REMARK    5  A    between atoms: C2_6  and  C3_7 
REMARK    6  A    between atoms: C3_7  and  C4_8 
REMARK    7  A    between atoms: C4_8  and  C5_9 
REMARK    8  A    between atoms: C5_9  and  C6_10 
REMARK    9  A    between atoms: C6_10  and  C7_11 
REMARK   10  A    between atoms: C7_11  and  C8_12 
REMARK   11  A    between atoms: N2_20  and  C16_21 
REMARK   12  A    between atoms: N2_20  and  C23_28 
ROOT
HETATM    1  C1  UNL     1      14.655  23.589  43.771  1.00  0.00     0.215 C 
ENDROOT
BRANCH   1   2
HETATM    2  O1  UNL     1      15.165  24.375  44.674  1.00  0.00    -0.333 OA
ATOM      3  H1  UNL     1      15.846  24.965  44.375  1.00  0.00     0.220 HD
ENDBRANCH   1   2
BRANCH   1   4
HETATM    4  N1  UNL     1      13.302  23.294  43.914  1.00  0.00    -0.356 N 
ATOM      5  H1  UNL     1      12.661  24.040  44.186  1.00  0.00     0.163 HD
BRANCH   4   6
HETATM    6  C2  UNL     1      12.773  21.964  43.689  1.00  0.00     0.123 C 
BRANCH   6   7
HETATM    7  C3  UNL     1      12.598  21.631  42.249  1.00  0.00     0.020 C 
BRANCH   7   8
HETATM    8  C4  UNL     1      13.168  20.223  42.020  1.00  0.00     0.002 C 
BRANCH   8   9
HETATM    9  C5  UNL     1      13.140  20.005  40.527  1.00  0.00     0.000 C 
BRANCH   9  10
HETATM   10  C6  UNL     1      11.762  19.786  39.978  1.00  0.00     0.000 C 
BRANCH  10  11
HETATM   11  C7  UNL     1      11.905  19.175  38.610  1.00  0.00     0.004 C 
BRANCH  11  12
HETATM   12  C8  UNL     1      10.619  19.257  37.814  1.00  0.00    -0.014 C 
HETATM   13  C9  UNL     1      10.247  17.904  37.285  1.00  0.00     0.004 C 
HETATM   14  C10 UNL     1       9.856  16.913  38.307  1.00  0.00     0.000 C 
HETATM   15  C11 UNL     1       8.453  16.396  38.203  1.00  0.00     0.000 C 
HETATM   16  C12 UNL     1       7.437  17.431  37.837  1.00  0.00     0.000 C 
HETATM   17  C13 UNL     1       7.515  18.638  38.748  1.00  0.00     0.000 C 
HETATM   18  C14 UNL     1       8.166  19.756  38.006  1.00  0.00     0.000 C 
HETATM   19  C15 UNL     1       9.558  19.943  38.594  1.00  0.00     0.004 C 
ENDBRANCH  11  12
ENDBRANCH  10  11
ENDBRANCH   9  10
ENDBRANCH   8   9
ENDBRANCH   7   8
ENDBRANCH   6   7
ENDBRANCH   4   6
ENDBRANCH   1   4
BRANCH   1  20
HETATM   20  N2  UNL     1      15.564  23.169  42.791  1.00  0.00    -0.338 N 
BRANCH  20  21
HETATM   21  C16 UNL     1      16.553  22.146  43.190  1.00  0.00     0.088 C 
HETATM   22  C17 UNL     1      17.938  22.688  43.174  1.00  0.00     0.025 C 
HETATM   23  C18 UNL     1      18.873  21.743  43.853  1.00  0.00     0.002 C 
HETATM   24  C19 UNL     1      18.723  21.808  45.358  1.00  0.00     0.000 C 
HETATM   25  C20 UNL     1      17.969  20.595  45.875  1.00  0.00     0.000 C 
HETATM   26  C21 UNL     1      16.803  20.366  44.937  1.00  0.00     0.002 C 
HETATM   27  C22 UNL     1      16.107  21.625  44.536  1.00  0.00     0.025 C 
ENDBRANCH  20  21
BRANCH  20  28
HETATM   28  C23 UNL     1      15.580  23.655  41.444  1.00  0.00     0.088 C 
HETATM   29  C24 UNL     1      15.727  22.604  40.375  1.00  0.00     0.025 C 
HETATM   30  C25 UNL     1      16.625  23.114  39.237  1.00  0.00     0.002 C 
HETATM   31  C26 UNL     1      16.086  24.447  38.834  1.00  0.00     0.000 C 
HETATM   32  C27 UNL     1      16.326  25.463  39.917  1.00  0.00     0.002 C 
HETATM   33  C28 UNL     1      16.604  24.725  41.216  1.00  0.00     0.025 C 
ENDBRANCH  20  28
ENDBRANCH   1  20
TORSDOF 12
ENDMDL
MODEL 3
REMARK VINA RESULT: -8.484424030      1.290      2.104
REMARK  12 active torsions:
REMARK  status: ('A' for Active; 'I' for Inactive)
REMARK    1  A    between atoms: O1_1  and  C1_3 
REMARK    2  A    between atoms: C1_3  and  N1_4 
REMARK    3  A    between atoms: C1_3  and  N2_20 
REMARK    4  A    between atoms: N1_4  and  C2_6 
REMARK    5  A    between atoms: C2_6  and  C3_7 
REMARK    6  A    between atoms: C3_7  and  C4_8 
REMARK    7  A    between atoms: C4_8  and  C5_9 
REMARK    8  A    between atoms: C5_9  and  C6_10 
REMARK    9  A    between atoms: C6_10  and  C7_11 
REMARK   10  A    between atoms: C7_11  and  C8_12 
REMARK   11  A    between atoms: N2_20  and  C16_21 
REMARK   12  A    between atoms: N2_20  and  C23_28 
ROOT
HETATM    1  C1  UNL     1      13.504  22.633  43.048  1.00  0.00     0.215 C 
ENDROOT
BRANCH   1   2
HETATM    2  O1  UNL     1      12.503  23.438  42.839  1.00  0.00    -0.333 OA
ATOM      3  H1  UNL     1      12.123  23.838  43.612  1.00  0.00     0.220 HD
ENDBRANCH   1   2
BRANCH   1   4
HETATM    4  N1  UNL     1      13.178  21.369  43.531  1.00  0.00    -0.356 N 
ATOM      5  H1  UNL     1      13.471  21.111  44.473  1.00  0.00     0.163 HD
BRANCH   4   6
HETATM    6  C2  UNL     1      12.435  20.408  42.741  1.00  0.00     0.123 C 
BRANCH   6   7
HETATM    7  C3  UNL     1      13.183  19.910  41.555  1.00  0.00     0.020 C 
BRANCH   7   8
HETATM    8  C4  UNL     1      12.220  19.904  40.359  1.00  0.00     0.002 C 
BRANCH   8   9
HETATM    9  C5  UNL     1      13.059  19.546  39.156  1.00  0.00     0.000 C 
BRANCH   9  10
HETATM   10  C6  UNL     1      12.250  19.162  37.953  1.00  0.00     0.000 C 
BRANCH  10  11
HETATM   11  C7  UNL     1      11.058  18.377  38.433  1.00  0.00     0.004 C 
BRANCH  11  12
HETATM   12  C8  UNL     1       9.782  18.802  37.737  1.00  0.00    -0.014 C 
HETATM   13  C9  UNL     1       9.009  17.598  37.286  1.00  0.00     0.004 C 
HETATM   14  C10 UNL     1       8.449  16.767  38.370  1.00  0.00     0.000 C 
HETATM   15  C11 UNL     1       6.955  16.657  38.393  1.00  0.00     0.000 C 
HETATM   16  C12 UNL     1       6.234  17.928  38.071  1.00  0.00     0.000 C 
HETATM   17  C13 UNL     1       6.718  19.078  38.930  1.00  0.00     0.000 C 
HETATM   18  C14 UNL     1       7.586  19.962  38.100  1.00  0.00     0.000 C 
HETATM   19  C15 UNL     1       9.020  19.764  38.572  1.00  0.00     0.004 C 
ENDBRANCH  11  12
ENDBRANCH  10  11
ENDBRANCH   9  10
ENDBRANCH   8   9
ENDBRANCH   7   8
ENDBRANCH   6   7
ENDBRANCH   4   6
ENDBRANCH   1   4
BRANCH   1  20
HETATM   20  N2  UNL     1      14.758  23.181  42.746  1.00  0.00    -0.338 N 
BRANCH  20  21
HETATM   21  C16 UNL     1      15.717  23.316  43.862  1.00  0.00     0.088 C 
HETATM   22  C17 UNL     1      15.040  23.744  45.116  1.00  0.00     0.025 C 
HETATM   23  C18 UNL     1      15.961  23.590  46.281  1.00  0.00     0.002 C 
HETATM   24  C19 UNL     1      16.093  22.139  46.689  1.00  0.00     0.000 C 
HETATM   25  C20 UNL     1      17.428  21.573  46.239  1.00  0.00     0.000 C 
HETATM   26  C21 UNL     1      17.659  22.058  44.823  1.00  0.00     0.002 C 
HETATM   27  C22 UNL     1      16.438  21.993  43.967  1.00  0.00     0.025 C 
ENDBRANCH  20  21
BRANCH  20  28
HETATM   28  C23 UNL     1      15.162  23.595  41.436  1.00  0.00     0.088 C 
HETATM   29  C24 UNL     1      15.523  22.485  40.485  1.00  0.00     0.025 C 
HETATM   30  C25 UNL     1      16.721  22.891  39.612  1.00  0.00     0.002 C 
HETATM   31  C26 UNL     1      16.392  24.226  39.030  1.00  0.00     0.000 C 
HETATM   32  C27 UNL     1      16.397  25.282  40.101  1.00  0.00     0.002 C 
HETATM   33  C28 UNL     1      16.273  24.600  41.453  1.00  0.00     0.025 C 
ENDBRANCH  20  28
ENDBRANCH   1  20
TORSDOF 12
ENDMDL
MODEL 4
REMARK VINA RESULT: -8.475219706      1.403      2.558
REMARK  12 active torsions:
REMARK  status: ('A' for Active; 'I' for Inactive)
REMARK    1  A    between atoms: O1_1  and  C1_3 
REMARK    2  A    between atoms: C1_3  and  N1_4 
REMARK    3  A    between atoms: C1_3  and  N2_20 
REMARK    4  A    between atoms: N1_4  and  C2_6 
REMARK    5  A    between atoms: C2_6  and  C3_7 
REMARK    6  A    between atoms: C3_7  and  C4_8 
REMARK    7  A    between atoms: C4_8  and  C5_9 
REMARK    8  A    between atoms: C5_9  and  C6_10 
REMARK    9  A    between atoms: C6_10  and  C7_11 
REMARK   10  A    between atoms: C7_11  and  C8_12 
REMARK   11  A    between atoms: N2_20  and  C16_21 
REMARK   12  A    between atoms: N2_20  and  C23_28 
ROOT
HETATM    1  C1  UNL     1      15.065  23.683  44.128  1.00  0.00     0.215 C 
ENDROOT
BRANCH   1   2
HETATM    2  O1  UNL     1      15.730  24.251  45.091  1.00  0.00    -0.333 OA
ATOM      3  H1  UNL     1      15.778  25.199  45.060  1.00  0.00     0.220 HD
ENDBRANCH   1   2
BRANCH   1   4
HETATM    4  N1  UNL     1      13.682  23.640  44.285  1.00  0.00    -0.356 N 
ATOM      5  H1  UNL     1      13.165  24.518  44.339  1.00  0.00     0.163 HD
BRANCH   4   6
HETATM    6  C2  UNL     1      12.952  22.392  44.374  1.00  0.00     0.123 C 
BRANCH   6   7
HETATM    7  C3  UNL     1      12.648  21.787  43.049  1.00  0.00     0.020 C 
BRANCH   7   8
HETATM    8  C4  UNL     1      13.526  20.537  42.889  1.00  0.00     0.002 C 
BRANCH   8   9
HETATM    9  C5  UNL     1      12.784  19.631  41.937  1.00  0.00     0.000 C 
BRANCH   9  10
HETATM   10  C6  UNL     1      12.944  20.014  40.496  1.00  0.00     0.000 C 
BRANCH  10  11
HETATM   11  C7  UNL     1      11.613  19.823  39.819  1.00  0.00     0.004 C 
BRANCH  11  12
HETATM   12  C8  UNL     1      11.695  18.833  38.676  1.00  0.00    -0.014 C 
HETATM   13  C9  UNL     1      10.457  18.909  37.832  1.00  0.00     0.004 C 
HETATM   14  C10 UNL     1      10.288  20.165  37.075  1.00  0.00     0.000 C 
HETATM   15  C11 UNL     1      10.264  20.023  35.584  1.00  0.00     0.000 C 
HETATM   16  C12 UNL     1      11.243  19.030  35.041  1.00  0.00     0.000 C 
HETATM   17  C13 UNL     1      12.645  19.290  35.550  1.00  0.00     0.000 C 
HETATM   18  C14 UNL     1      12.973  18.273  36.590  1.00  0.00     0.000 C 
HETATM   19  C15 UNL     1      12.973  18.983  37.937  1.00  0.00     0.004 C 
ENDBRANCH  11  12
ENDBRANCH  10  11
ENDBRANCH   9  10
ENDBRANCH   8   9
ENDBRANCH   7   8
ENDBRANCH   6   7
ENDBRANCH   4   6
ENDBRANCH   1   4
BRANCH   1  20
HETATM   20  N2  UNL     1      15.862  23.206  43.079  1.00  0.00    -0.338 N 
BRANCH  20  21
HETATM   21  C16 UNL     1      16.848  22.157  43.410  1.00  0.00     0.088 C 
HETATM   22  C17 UNL     1      18.238  22.687  43.393  1.00  0.00     0.025 C 
HETATM   23  C18 UNL     1      19.177  21.704  44.009  1.00  0.00     0.002 C 
HETATM   24  C19 UNL     1      19.056  21.700  45.518  1.00  0.00     0.000 C 
HETATM   25  C20 UNL     1      18.301  20.472  45.993  1.00  0.00     0.000 C 
HETATM   26  C21 UNL     1      17.115  20.296  45.068  1.00  0.00     0.002 C 
HETATM   27  C22 UNL     1      16.424  21.578  44.740  1.00  0.00     0.025 C 
ENDBRANCH  20  21
BRANCH  20  28
HETATM   28  C23 UNL     1      15.766  23.658  41.723  1.00  0.00     0.088 C 
HETATM   29  C24 UNL     1      15.815  22.580  40.673  1.00  0.00     0.025 C 
HETATM   30  C25 UNL     1      16.616  23.055  39.450  1.00  0.00     0.002 C 
HETATM   31  C26 UNL     1      16.053  24.381  39.060  1.00  0.00     0.000 C 
HETATM   32  C27 UNL     1      16.390  25.421  40.093  1.00  0.00     0.002 C 
HETATM   33  C28 UNL     1      16.773  24.713  41.382  1.00  0.00     0.025 C 
ENDBRANCH  20  28
ENDBRANCH   1  20
TORSDOF 12
ENDMDL
MODEL 5
REMARK VINA RESULT: -8.462211704      0.798      3.690
REMARK  12 active torsions:
REMARK  status: ('A' for Active; 'I' for Inactive)
REMARK    1  A    between atoms: O1_1  and  C1_3 
REMARK    2  A    between atoms: C1_3  and  N1_4 
REMARK    3  A    between atoms: C1_3  and  N2_20 
REMARK    4  A    between atoms: N1_4  and  C2_6 
REMARK    5  A    between atoms: C2_6  and  C3_7 
REMARK    6  A    between atoms: C3_7  and  C4_8 
REMARK    7  A    between atoms: C4_8  and  C5_9 
REMARK    8  A    between atoms: C5_9  and  C6_10 
REMARK    9  A    between atoms: C6_10  and  C7_11 
REMARK   10  A    between atoms: C7_11  and  C8_12 
REMARK   11  A    between atoms: N2_20  and  C16_21 
REMARK   12  A    between atoms: N2_20  and  C23_28 
ROOT
HETATM    1  C1  UNL     1      14.689  23.611  43.956  1.00  0.00     0.215 C 
ENDROOT
BRANCH   1   2
HETATM    2  O1  UNL     1      14.699  24.689  44.686  1.00  0.00    -0.333 OA
ATOM      3  H1  UNL     1      15.301  25.370  44.411  1.00  0.00     0.220 HD
ENDBRANCH   1   2
BRANCH   1   4
HETATM    4  N1  UNL     1      13.434  23.158  43.558  1.00  0.00    -0.356 N 
ATOM      5  H1  UNL     1      12.837  23.778  43.011  1.00  0.00     0.163 HD
BRANCH   4   6
HETATM    6  C2  UNL     1      12.948  21.834  43.893  1.00  0.00     0.123 C 
BRANCH   6   7
HETATM    7  C3  UNL     1      13.302  20.799  42.885  1.00  0.00     0.020 C 
BRANCH   7   8
HETATM    8  C4  UNL     1      13.046  21.392  41.491  1.00  0.00     0.002 C 
BRANCH   8   9
HETATM    9  C5  UNL     1      13.266  20.262  40.516  1.00  0.00     0.000 C 
BRANCH   9  10
HETATM   10  C6  UNL     1      11.997  19.608  40.057  1.00  0.00     0.000 C 
BRANCH  10  11
HETATM   11  C7  UNL     1      12.185  19.197  38.622  1.00  0.00     0.004 C 
BRANCH  11  12
HETATM   12  C8  UNL     1      10.908  19.338  37.819  1.00  0.00    -0.014 C 
HETATM   13  C9  UNL     1      10.480  18.003  37.284  1.00  0.00     0.004 C 
HETATM   14  C10 UNL     1      10.040  17.029  38.302  1.00  0.00     0.000 C 
HETATM   15  C11 UNL     1       8.616  16.574  38.189  1.00  0.00     0.000 C 
HETATM   16  C12 UNL     1       7.649  17.653  37.820  1.00  0.00     0.000 C 
HETATM   17  C13 UNL     1       7.775  18.854  38.734  1.00  0.00     0.000 C 
HETATM   18  C14 UNL     1       8.479  19.944  37.998  1.00  0.00     0.000 C 
HETATM   19  C15 UNL     1       9.874  20.068  38.595  1.00  0.00     0.004 C 
ENDBRANCH  11  12
ENDBRANCH  10  11
ENDBRANCH   9  10
ENDBRANCH   8   9
ENDBRANCH   7   8
ENDBRANCH   6   7
ENDBRANCH   4   6
ENDBRANCH   1   4
BRANCH   1  20
HETATM   20  N2  UNL     1      15.958  23.082  43.688  1.00  0.00    -0.338 N 
BRANCH  20  21
HETATM   21  C16 UNL     1      16.605  23.497  42.427  1.00  0.00     0.088 C 
HETATM   22  C17 UNL     1      16.462  22.459  41.371  1.00  0.00     0.025 C 
HETATM   23  C18 UNL     1      16.855  23.012  40.042  1.00  0.00     0.002 C 
HETATM   24  C19 UNL     1      15.780  23.919  39.483  1.00  0.00     0.000 C 
HETATM   25  C20 UNL     1      16.184  25.376  39.614  1.00  0.00     0.000 C 
HETATM   26  C21 UNL     1      16.774  25.549  40.998  1.00  0.00     0.002 C 
HETATM   27  C22 UNL     1      16.008  24.837  42.063  1.00  0.00     0.025 C 
ENDBRANCH  20  21
BRANCH  20  28
HETATM   28  C23 UNL     1      16.659  22.188  44.561  1.00  0.00     0.088 C 
HETATM   29  C24 UNL     1      16.422  22.398  46.034  1.00  0.00     0.025 C 
HETATM   30  C25 UNL     1      17.721  22.181  46.825  1.00  0.00     0.002 C 
HETATM   31  C26 UNL     1      18.271  20.864  46.390  1.00  0.00     0.000 C 
HETATM   32  C27 UNL     1      18.765  20.942  44.971  1.00  0.00     0.002 C 
HETATM   33  C28 UNL     1      18.135  22.156  44.308  1.00  0.00     0.025 C 
ENDBRANCH  20  28
ENDBRANCH   1  20
TORSDOF 12
ENDMDL
