MODEL 1
REMARK VINA RESULT: -8.588545067      0.000      0.000
REMARK  11 active torsions:
REMARK  status: ('A' for Active; 'I' for Inactive)
REMARK    1  A    between atoms: C2_2  and  C3_3 
REMARK    2  A    between atoms: C3_3  and  C4_4 
REMARK    3  A    between atoms: C4_4  and  C5_5 
REMARK    4  A    between atoms: C5_5  and  C6_6 
REMARK    5  A    between atoms: C6_6  and  C7_7 
REMARK    6  A    between atoms: C7_7  and  C8_8 
REMARK    7  A    between atoms: C8_8  and  C9_9 
REMARK    8  A    between atoms: C9_9  and  C10_10 
REMARK    9  A    between atoms: C10_10  and  C11_11 
REMARK   10  A    between atoms: C11_11  and  O1_15 
REMARK   11  A    between atoms: O1_15  and  N2_16 
ROOT
HETATM    1  N2  UNL     1      19.663  22.812  44.376  1.00  0.00    -0.267 N 
ATOM      2  H2  UNL     1      20.390  23.126  43.734  1.00  0.00     0.194 HD
HETATM    3  C12 UNL     1      18.425  22.848  43.992  1.00  0.00     0.015 C 
HETATM    4  C13 UNL     1      18.136  23.344  42.639  1.00  0.00     0.060 C 
HETATM    5  C14 UNL     1      17.226  22.388  41.955  1.00  0.00    -0.004 C 
HETATM    6  C15 UNL     1      17.288  22.744  40.456  1.00  0.00     0.005 C 
HETATM    7  C16 UNL     1      16.189  23.787  40.265  1.00  0.00     0.001 C 
HETATM    8  C17 UNL     1      15.466  23.881  41.612  1.00  0.00     0.006 C 
HETATM    9  C18 UNL     1      15.791  22.538  42.209  1.00  0.00    -0.001 C 
HETATM   10  C19 UNL     1      15.279  22.332  43.594  1.00  0.00    -0.032 C 
HETATM   11  C20 UNL     1      13.892  23.001  43.558  1.00  0.00     0.010 C 
HETATM   12  C21 UNL     1      13.116  22.795  44.801  1.00  0.00     0.001 C 
HETATM   13  C22 UNL     1      13.945  22.793  46.038  1.00  0.00     0.000 C 
HETATM   14  C23 UNL     1      15.306  23.352  45.904  1.00  0.00     0.006 C 
HETATM   15  C24 UNL     1      16.048  23.037  44.663  1.00  0.00     0.004 C 
HETATM   16  C25 UNL     1      17.383  22.379  44.967  1.00  0.00     0.038 C 
HETATM   17  C26 UNL     1      17.368  20.907  44.961  1.00  0.00     0.011 C 
HETATM   18  C27 UNL     1      16.072  20.241  44.763  1.00  0.00     0.002 C 
HETATM   19  C28 UNL     1      15.125  20.852  43.817  1.00  0.00     0.010 C 
ENDROOT
BRANCH   1  20
HETATM   20  O1  UNL     1      20.019  22.366  45.617  1.00  0.00    -0.225 OA
BRANCH  20  21
HETATM   21  C11 UNL     1      20.928  23.065  46.392  1.00  0.00     0.140 C 
HETATM   22  N1  UNL     1      20.668  24.288  46.692  1.00  0.00    -0.382 N 
ATOM     23  H12 UNL     1      21.339  24.804  47.262  1.00  0.00     0.158 HD
ATOM     24  H11 UNL     1      19.817  24.753  46.375  1.00  0.00     0.158 HD
BRANCH  21  25
HETATM   25  C10 UNL     1      22.167  22.389  46.852  1.00  0.00     0.086 C 
BRANCH  25  26
HETATM   26  C9  UNL     1      21.902  21.100  47.567  1.00  0.00     0.008 C 
BRANCH  26  27
HETATM   27  C8  UNL     1      22.756  20.931  48.804  1.00  0.00     0.000 C 
BRANCH  27  28
HETATM   28  C7  UNL     1      23.309  22.322  49.134  1.00  0.00     0.000 C 
BRANCH  28  29
HETATM   29  C6  UNL     1      23.930  22.319  50.494  1.00  0.00     0.000 C 
BRANCH  29  30
HETATM   30  C5  UNL     1      24.512  23.650  50.842  1.00  0.00     0.000 C 
BRANCH  30  31
HETATM   31  C4  UNL     1      23.599  24.763  50.465  1.00  0.00     0.000 C 
BRANCH  31  32
HETATM   32  C3  UNL     1      23.394  25.701  51.642  1.00  0.00    -0.000 C 
BRANCH  32  33
HETATM   33  C2  UNL     1      23.789  25.089  52.951  1.00  0.00    -0.005 C 
HETATM   34  C1  UNL     1      22.663  25.159  53.975  1.00  0.00     0.005 C 
ENDBRANCH  32  33
ENDBRANCH  31  32
ENDBRANCH  30  31
ENDBRANCH  29  30
ENDBRANCH  28  29
ENDBRANCH  27  28
ENDBRANCH  26  27
ENDBRANCH  25  26
ENDBRANCH  21  25
ENDBRANCH  20  21
ENDBRANCH   1  20
TORSDOF 11
ENDMDL
MODEL 2
REMARK VINA RESULT: -8.528506536      1.781      3.093
REMARK  11 active torsions:
REMARK  status: ('A' for Active; 'I' for Inactive)
REMARK    1  A    between atoms: C2_2  and  C3_3 
REMARK    2  A    between atoms: C3_3  and  C4_4 
REMARK    3  A    between atoms: C4_4  and  C5_5 
REMARK    4  A    between atoms: C5_5  and  C6_6 
REMARK    5  A    between atoms: C6_6  and  C7_7 
REMARK    6  A    between atoms: C7_7  and  C8_8 
REMARK    7  A    between atoms: C8_8  and  C9_9 
REMARK    8  A    between atoms: C9_9  and  C10_10 
REMARK    9  A    between atoms: C10_10  and  C11_11 
REMARK   10  A    between atoms: C11_11  and  O1_15 
REMARK   11  A    between atoms: O1_15  and  N2_16 
ROOT
HETATM    1  N2  UNL     1      18.634  22.364  43.931  1.00  0.00    -0.267 N 
ATOM      2  H2  UNL     1      19.476  22.681  43.452  1.00  0.00     0.194 HD
HETATM    3  C12 UNL     1      17.481  22.542  43.364  1.00  0.00     0.015 C 
HETATM    4  C13 UNL     1      17.453  23.198  42.049  1.00  0.00     0.060 C 
HETATM    5  C14 UNL     1      16.609  22.396  41.124  1.00  0.00    -0.004 C 
HETATM    6  C15 UNL     1      16.940  22.901  39.705  1.00  0.00     0.005 C 
HETATM    7  C16 UNL     1      15.959  24.045  39.467  1.00  0.00     0.001 C 
HETATM    8  C17 UNL     1      15.030  24.058  40.684  1.00  0.00     0.006 C 
HETATM    9  C18 UNL     1      15.165  22.637  41.165  1.00  0.00    -0.001 C 
HETATM   10  C19 UNL     1      14.418  22.332  42.419  1.00  0.00    -0.032 C 
HETATM   11  C20 UNL     1      13.102  23.113  42.243  1.00  0.00     0.010 C 
HETATM   12  C21 UNL     1      12.119  22.844  43.317  1.00  0.00     0.001 C 
HETATM   13  C22 UNL     1      12.731  22.645  44.660  1.00  0.00     0.000 C 
HETATM   14  C23 UNL     1      14.129  23.101  44.807  1.00  0.00     0.006 C 
HETATM   15  C24 UNL     1      15.044  22.856  43.670  1.00  0.00     0.004 C 
HETATM   16  C25 UNL     1      16.264  22.062  44.102  1.00  0.00     0.038 C 
HETATM   17  C26 UNL     1      16.155  20.604  43.923  1.00  0.00     0.011 C 
HETATM   18  C27 UNL     1      14.869  20.072  43.448  1.00  0.00     0.002 C 
HETATM   19  C28 UNL     1      14.134  20.854  42.442  1.00  0.00     0.010 C 
ENDROOT
BRANCH   1  20
HETATM   20  O1  UNL     1      18.750  21.763  45.153  1.00  0.00    -0.225 OA
BRANCH  20  21
HETATM   21  C11 UNL     1      19.382  22.404  46.204  1.00  0.00     0.140 C 
HETATM   22  N1  UNL     1      18.729  23.292  46.866  1.00  0.00    -0.382 N 
ATOM     23  H12 UNL     1      19.196  23.764  47.640  1.00  0.00     0.158 HD
ATOM     24  H11 UNL     1      17.765  23.536  46.637  1.00  0.00     0.158 HD
BRANCH  21  25
HETATM   25  C10 UNL     1      20.785  22.049  46.537  1.00  0.00     0.086 C 
BRANCH  25  26
HETATM   26  C9  UNL     1      21.707  23.229  46.532  1.00  0.00     0.008 C 
BRANCH  26  27
HETATM   27  C8  UNL     1      23.062  22.915  47.126  1.00  0.00     0.000 C 
BRANCH  27  28
HETATM   28  C7  UNL     1      23.178  23.765  48.397  1.00  0.00     0.000 C 
BRANCH  28  29
HETATM   29  C6  UNL     1      23.601  22.911  49.549  1.00  0.00     0.000 C 
BRANCH  29  30
HETATM   30  C5  UNL     1      23.143  21.498  49.390  1.00  0.00     0.000 C 
BRANCH  30  31
HETATM   31  C4  UNL     1      24.167  20.532  49.874  1.00  0.00     0.000 C 
BRANCH  31  32
HETATM   32  C3  UNL     1      24.770  19.770  48.707  1.00  0.00    -0.000 C 
BRANCH  32  33
HETATM   33  C2  UNL     1      23.751  19.370  47.684  1.00  0.00    -0.005 C 
HETATM   34  C1  UNL     1      23.931  17.925  47.236  1.00  0.00     0.005 C 
ENDBRANCH  32  33
ENDBRANCH  31  32
ENDBRANCH  30  31
ENDBRANCH  29  30
ENDBRANCH  28  29
ENDBRANCH  27  28
ENDBRANCH  26  27
ENDBRANCH  25  26
ENDBRANCH  21  25
ENDBRANCH  20  21
ENDBRANCH   1  20
TORSDOF 11
ENDMDL
MODEL 3
REMARK VINA RESULT: -8.416044659      1.350      1.933
REMARK  11 active torsions:
REMARK  status: ('A' for Active; 'I' for Inactive)
REMARK    1  A    between atoms: C2_2  and  C3_3 
REMARK    2  A    between atoms: C3_3  and  C4_4 
REMARK    3  A    between atoms: C4_4  and  C5_5 
REMARK    4  A    between atoms: C5_5  and  C6_6 
REMARK    5  A    between atoms: C6_6  and  C7_7 
REMARK    6  A    between atoms: C7_7  and  C8_8 
REMARK    7  A    between atoms: C8_8  and  C9_9 
REMARK    8  A    between atoms: C9_9  and  C10_10 
REMARK    9  A    between atoms: C10_10  and  C11_11 
REMARK   10  A    between atoms: C11_11  and  O1_15 
REMARK   11  A    between atoms: O1_15  and  N2_16 
ROOT
HETATM    1  N2  UNL     1      18.675  22.735  44.209  1.00  0.00    -0.267 N 
ATOM      2  H2  UNL     1      19.510  23.068  43.726  1.00  0.00     0.194 HD
HETATM    3  C12 UNL     1      17.530  22.796  43.604  1.00  0.00     0.015 C 
HETATM    4  C13 UNL     1      17.498  23.348  42.243  1.00  0.00     0.060 C 
HETATM    5  C14 UNL     1      16.730  22.428  41.363  1.00  0.00    -0.004 C 
HETATM    6  C15 UNL     1      17.068  22.845  39.917  1.00  0.00     0.005 C 
HETATM    7  C16 UNL     1      16.025  23.903  39.570  1.00  0.00     0.001 C 
HETATM    8  C17 UNL     1      15.064  23.948  40.762  1.00  0.00     0.006 C 
HETATM    9  C18 UNL     1      15.273  22.579  41.353  1.00  0.00    -0.001 C 
HETATM   10  C19 UNL     1      14.513  22.322  42.609  1.00  0.00    -0.032 C 
HETATM   11  C20 UNL     1      13.156  23.003  42.344  1.00  0.00     0.010 C 
HETATM   12  C21 UNL     1      12.163  22.753  43.413  1.00  0.00     0.001 C 
HETATM   13  C22 UNL     1      12.749  22.694  44.780  1.00  0.00     0.000 C 
HETATM   14  C23 UNL     1      14.111  23.247  44.924  1.00  0.00     0.006 C 
HETATM   15  C24 UNL     1      15.070  22.976  43.830  1.00  0.00     0.004 C 
HETATM   16  C25 UNL     1      16.325  22.296  44.349  1.00  0.00     0.038 C 
HETATM   17  C26 UNL     1      16.311  20.826  44.280  1.00  0.00     0.011 C 
HETATM   18  C27 UNL     1      15.074  20.179  43.818  1.00  0.00     0.002 C 
HETATM   19  C28 UNL     1      14.319  20.835  42.738  1.00  0.00     0.010 C 
ENDROOT
BRANCH   1  20
HETATM   20  O1  UNL     1      18.795  22.235  45.475  1.00  0.00    -0.225 OA
BRANCH  20  21
HETATM   21  C11 UNL     1      19.966  22.396  46.197  1.00  0.00     0.140 C 
HETATM   22  N1  UNL     1      20.468  23.575  46.299  1.00  0.00    -0.382 N 
ATOM     23  H12 UNL     1      21.330  23.693  46.831  1.00  0.00     0.158 HD
ATOM     24  H11 UNL     1      20.030  24.388  45.866  1.00  0.00     0.158 HD
BRANCH  21  25
HETATM   25  C10 UNL     1      20.602  21.212  46.827  1.00  0.00     0.086 C 
BRANCH  25  26
HETATM   26  C9  UNL     1      22.024  21.454  47.230  1.00  0.00     0.008 C 
BRANCH  26  27
HETATM   27  C8  UNL     1      22.346  20.902  48.601  1.00  0.00     0.000 C 
BRANCH  27  28
HETATM   28  C7  UNL     1      23.836  20.544  48.579  1.00  0.00     0.000 C 
BRANCH  28  29
HETATM   29  C6  UNL     1      24.476  20.927  49.874  1.00  0.00     0.000 C 
BRANCH  29  30
HETATM   30  C5  UNL     1      23.848  22.147  50.465  1.00  0.00     0.000 C 
BRANCH  30  31
HETATM   31  C4  UNL     1      24.606  23.378  50.113  1.00  0.00     0.000 C 
BRANCH  31  32
HETATM   32  C3  UNL     1      23.657  24.550  49.931  1.00  0.00    -0.000 C 
BRANCH  32  33
HETATM   33  C2  UNL     1      23.201  24.717  48.515  1.00  0.00    -0.005 C 
HETATM   34  C1  UNL     1      24.314  24.416  47.518  1.00  0.00     0.005 C 
ENDBRANCH  32  33
ENDBRANCH  31  32
ENDBRANCH  30  31
ENDBRANCH  29  30
ENDBRANCH  28  29
ENDBRANCH  27  28
ENDBRANCH  26  27
ENDBRANCH  25  26
ENDBRANCH  21  25
ENDBRANCH  20  21
ENDBRANCH   1  20
TORSDOF 11
ENDMDL
MODEL 4
REMARK VINA RESULT: -8.381616792      1.688      3.680
REMARK  11 active torsions:
REMARK  status: ('A' for Active; 'I' for Inactive)
REMARK    1  A    between atoms: C2_2  and  C3_3 
REMARK    2  A    between atoms: C3_3  and  C4_4 
REMARK    3  A    between atoms: C4_4  and  C5_5 
REMARK    4  A    between atoms: C5_5  and  C6_6 
REMARK    5  A    between atoms: C6_6  and  C7_7 
REMARK    6  A    between atoms: C7_7  and  C8_8 
REMARK    7  A    between atoms: C8_8  and  C9_9 
REMARK    8  A    between atoms: C9_9  and  C10_10 
REMARK    9  A    between atoms: C10_10  and  C11_11 
REMARK   10  A    between atoms: C11_11  and  O1_15 
REMARK   11  A    between atoms: O1_15  and  N2_16 
ROOT
HETATM    1  N2  UNL     1      19.569  22.828  44.354  1.00  0.00    -0.267 N 
ATOM      2  H2  UNL     1      20.305  23.146  43.724  1.00  0.00     0.194 HD
HETATM    3  C12 UNL     1      18.337  22.861  43.952  1.00  0.00     0.015 C 
HETATM    4  C13 UNL     1      18.066  23.359  42.597  1.00  0.00     0.060 C 
HETATM    5  C14 UNL     1      17.170  22.402  41.896  1.00  0.00    -0.004 C 
HETATM    6  C15 UNL     1      17.252  22.763  40.399  1.00  0.00     0.005 C 
HETATM    7  C16 UNL     1      16.153  23.803  40.195  1.00  0.00     0.001 C 
HETATM    8  C17 UNL     1      15.410  23.890  41.531  1.00  0.00     0.006 C 
HETATM    9  C18 UNL     1      15.731  22.546  42.129  1.00  0.00    -0.001 C 
HETATM   10  C19 UNL     1      15.199  22.335  43.506  1.00  0.00    -0.032 C 
HETATM   11  C20 UNL     1      13.810  22.999  43.451  1.00  0.00     0.010 C 
HETATM   12  C21 UNL     1      13.016  22.786  44.682  1.00  0.00     0.001 C 
HETATM   13  C22 UNL     1      13.828  22.783  45.931  1.00  0.00     0.000 C 
HETATM   14  C23 UNL     1      15.188  23.348  45.819  1.00  0.00     0.006 C 
HETATM   15  C24 UNL     1      15.950  23.039  44.588  1.00  0.00     0.004 C 
HETATM   16  C25 UNL     1      17.282  22.385  44.910  1.00  0.00     0.038 C 
HETATM   17  C26 UNL     1      17.273  20.913  44.900  1.00  0.00     0.011 C 
HETATM   18  C27 UNL     1      15.982  20.243  44.681  1.00  0.00     0.002 C 
HETATM   19  C28 UNL     1      15.047  20.853  43.722  1.00  0.00     0.010 C 
ENDROOT
BRANCH   1  20
HETATM   20  O1  UNL     1      19.908  22.379  45.599  1.00  0.00    -0.225 OA
BRANCH  20  21
HETATM   21  C11 UNL     1      20.873  23.027  46.352  1.00  0.00     0.140 C 
HETATM   22  N1  UNL     1      20.700  24.268  46.637  1.00  0.00    -0.382 N 
ATOM     23  H12 UNL     1      21.411  24.745  47.191  1.00  0.00     0.158 HD
ATOM     24  H11 UNL     1      19.877  24.784  46.326  1.00  0.00     0.158 HD
BRANCH  21  25
HETATM   25  C10 UNL     1      22.071  22.276  46.805  1.00  0.00     0.086 C 
BRANCH  25  26
HETATM   26  C9  UNL     1      23.115  23.153  47.424  1.00  0.00     0.008 C 
BRANCH  26  27
HETATM   27  C8  UNL     1      23.262  22.925  48.912  1.00  0.00     0.000 C 
BRANCH  27  28
HETATM   28  C7  UNL     1      24.373  21.881  49.077  1.00  0.00     0.000 C 
BRANCH  28  29
HETATM   29  C6  UNL     1      23.803  20.603  49.605  1.00  0.00     0.000 C 
BRANCH  29  30
HETATM   30  C5  UNL     1      24.427  19.409  48.961  1.00  0.00     0.000 C 
BRANCH  30  31
HETATM   31  C4  UNL     1      23.825  19.126  47.629  1.00  0.00     0.000 C 
BRANCH  31  32
HETATM   32  C3  UNL     1      24.318  17.792  47.098  1.00  0.00    -0.000 C 
BRANCH  32  33
HETATM   33  C2  UNL     1      25.197  17.934  45.893  1.00  0.00    -0.005 C 
HETATM   34  C1  UNL     1      24.787  16.984  44.774  1.00  0.00     0.005 C 
ENDBRANCH  32  33
ENDBRANCH  31  32
ENDBRANCH  30  31
ENDBRANCH  29  30
ENDBRANCH  28  29
ENDBRANCH  27  28
ENDBRANCH  26  27
ENDBRANCH  25  26
ENDBRANCH  21  25
ENDBRANCH  20  21
ENDBRANCH   1  20
TORSDOF 11
ENDMDL
MODEL 5
REMARK VINA RESULT: -8.007125856      7.400     10.687
REMARK  11 active torsions:
REMARK  status: ('A' for Active; 'I' for Inactive)
REMARK    1  A    between atoms: C2_2  and  C3_3 
REMARK    2  A    between atoms: C3_3  and  C4_4 
REMARK    3  A    between atoms: C4_4  and  C5_5 
REMARK    4  A    between atoms: C5_5  and  C6_6 
REMARK    5  A    between atoms: C6_6  and  C7_7 
REMARK    6  A    between atoms: C7_7  and  C8_8 
REMARK    7  A    between atoms: C8_8  and  C9_9 
REMARK    8  A    between atoms: C9_9  and  C10_10 
REMARK    9  A    between atoms: C10_10  and  C11_11 
REMARK   10  A    between atoms: C11_11  and  O1_15 
REMARK   11  A    between atoms: O1_15  and  N2_16 
ROOT
HETATM    1  N2  UNL     1      12.740  19.160  38.962  1.00  0.00    -0.267 N 
ATOM      2  H2  UNL     1      13.693  18.798  38.974  1.00  0.00     0.194 HD
HETATM    3  C12 UNL     1      11.997  18.949  37.920  1.00  0.00     0.015 C 
HETATM    4  C13 UNL     1      12.577  18.192  36.802  1.00  0.00     0.060 C 
HETATM    5  C14 UNL     1      11.628  17.123  36.395  1.00  0.00    -0.004 C 
HETATM    6  C15 UNL     1      12.442  16.146  35.522  1.00  0.00     0.005 C 
HETATM    7  C16 UNL     1      12.298  16.690  34.103  1.00  0.00     0.001 C 
HETATM    8  C17 UNL     1      11.311  17.857  34.202  1.00  0.00     0.006 C 
HETATM    9  C18 UNL     1      10.565  17.498  35.460  1.00  0.00    -0.001 C 
HETATM   10  C19 UNL     1       9.550  18.502  35.888  1.00  0.00    -0.032 C 
HETATM   11  C20 UNL     1       8.924  18.959  34.556  1.00  0.00     0.010 C 
HETATM   12  C21 UNL     1       7.768  19.866  34.739  1.00  0.00     0.001 C 
HETATM   13  C22 UNL     1       7.908  20.798  35.892  1.00  0.00     0.000 C 
HETATM   14  C23 UNL     1       9.273  20.952  36.437  1.00  0.00     0.006 C 
HETATM   15  C24 UNL     1      10.108  19.733  36.524  1.00  0.00     0.004 C 
HETATM   16  C25 UNL     1      10.600  19.499  37.942  1.00  0.00     0.038 C 
HETATM   17  C26 UNL     1       9.759  18.603  38.754  1.00  0.00     0.011 C 
HETATM   18  C27 UNL     1       8.507  18.118  38.154  1.00  0.00     0.002 C 
HETATM   19  C28 UNL     1       8.516  17.792  36.719  1.00  0.00     0.010 C 
ENDROOT
BRANCH   1  20
HETATM   20  O1  UNL     1      12.279  19.854  40.045  1.00  0.00    -0.225 OA
BRANCH  20  21
HETATM   21  C11 UNL     1      13.085  20.065  41.152  1.00  0.00     0.140 C 
HETATM   22  N1  UNL     1      13.032  19.221  42.120  1.00  0.00    -0.382 N 
ATOM     23  H12 UNL     1      13.626  19.376  42.935  1.00  0.00     0.158 HD
ATOM     24  H11 UNL     1      12.417  18.408  42.096  1.00  0.00     0.158 HD
BRANCH  21  25
HETATM   25  C10 UNL     1      13.981  21.248  41.187  1.00  0.00     0.086 C 
BRANCH  25  26
HETATM   26  C9  UNL     1      13.756  22.119  42.384  1.00  0.00     0.008 C 
BRANCH  26  27
HETATM   27  C8  UNL     1      12.473  22.915  42.296  1.00  0.00     0.000 C 
BRANCH  27  28
HETATM   28  C7  UNL     1      11.833  22.849  43.687  1.00  0.00     0.000 C 
BRANCH  28  29
HETATM   29  C6  UNL     1      12.798  22.265  44.669  1.00  0.00     0.000 C 
BRANCH  29  30
HETATM   30  C5  UNL     1      12.671  22.899  46.016  1.00  0.00     0.000 C 
BRANCH  30  31
HETATM   31  C4  UNL     1      13.989  22.996  46.702  1.00  0.00     0.000 C 
BRANCH  31  32
HETATM   32  C3  UNL     1      15.118  22.955  45.687  1.00  0.00    -0.000 C 
BRANCH  32  33
HETATM   33  C2  UNL     1      16.194  21.979  46.053  1.00  0.00    -0.005 C 
HETATM   34  C1  UNL     1      16.410  20.935  44.964  1.00  0.00     0.005 C 
ENDBRANCH  32  33
ENDBRANCH  31  32
ENDBRANCH  30  31
ENDBRANCH  29  30
ENDBRANCH  28  29
ENDBRANCH  27  28
ENDBRANCH  26  27
ENDBRANCH  25  26
ENDBRANCH  21  25
ENDBRANCH  20  21
ENDBRANCH   1  20
TORSDOF 11
ENDMDL
