MODEL 1
REMARK VINA RESULT: -8.298374428      0.000      0.000
REMARK  11 active torsions:
REMARK  status: ('A' for Active; 'I' for Inactive)
REMARK    1  A    between atoms: C8_8  and  C9_9 
REMARK    2  A    between atoms: C9_9  and  C10_10 
REMARK    3  A    between atoms: C10_10  and  C11_11 
REMARK    4  A    between atoms: C11_11  and  C12_12 
REMARK    5  A    between atoms: C12_12  and  C13_13 
REMARK    6  A    between atoms: C13_13  and  C14_14 
REMARK    7  A    between atoms: C14_14  and  C15_15 
REMARK    8  A    between atoms: C15_15  and  C16_16 
REMARK    9  A    between atoms: C16_16  and  C17_17 
REMARK   10  A    between atoms: C21_24  and  S1_25 
REMARK   11  A    between atoms: S1_25  and  C22_26 
ROOT
HETATM    1  C17 UNL     1      11.340  19.462  38.733  1.00  0.00     0.199 C 
HETATM    2  N1  UNL     1      11.745  18.149  38.403  1.00  0.00    -0.070 N 
ATOM      3  H11 UNL     1      11.036  17.459  38.652  1.00  0.00     0.277 HD
ATOM      4  H12 UNL     1      12.496  17.820  39.009  1.00  0.00     0.277 HD
HETATM    5  C18 UNL     1      12.106  18.071  37.004  1.00  0.00     0.233 C 
HETATM    6  C19 UNL     1      11.510  19.187  36.205  1.00  0.00     0.029 C 
HETATM    7  C20 UNL     1      10.219  19.748  36.636  1.00  0.00     0.019 C 
HETATM    8  C21 UNL     1      10.067  19.922  38.186  1.00  0.00     0.078 C 
ENDROOT
BRANCH   1   9
HETATM    9  C16 UNL     1      11.684  19.870  40.155  1.00  0.00     0.034 C 
BRANCH   9  10
HETATM   10  C15 UNL     1      13.157  19.855  40.399  1.00  0.00     0.002 C 
BRANCH  10  11
HETATM   11  C14 UNL     1      13.598  21.112  41.129  1.00  0.00     0.000 C 
BRANCH  11  12
HETATM   12  C13 UNL     1      13.922  20.764  42.579  1.00  0.00     0.000 C 
BRANCH  12  13
HETATM   13  C12 UNL     1      12.832  21.296  43.490  1.00  0.00     0.000 C 
BRANCH  13  14
HETATM   14  C11 UNL     1      13.003  22.730  43.870  1.00  0.00     0.000 C 
BRANCH  14  15
HETATM   15  C10 UNL     1      13.670  22.911  45.235  1.00  0.00     0.005 C 
BRANCH  15  16
HETATM   16  C9  UNL     1      14.861  23.797  45.106  1.00  0.00     0.039 C 
BRANCH  16  17
HETATM   17  C8  UNL     1      15.954  23.274  44.264  1.00  0.00    -0.047 A 
HETATM   18  C3  UNL     1      16.673  22.150  44.689  1.00  0.00    -0.020 A 
HETATM   19  C2  UNL     1      16.892  21.107  45.658  1.00  0.00     0.013 A 
HETATM   20  C4  UNL     1      17.715  21.628  43.970  1.00  0.00    -0.025 A 
HETATM   21  C1  UNL     1      17.908  20.585  44.974  1.00  0.00     0.013 A 
HETATM   22  C5  UNL     1      18.105  22.194  42.778  1.00  0.00     0.012 A 
HETATM   23  C6  UNL     1      17.423  23.300  42.324  1.00  0.00     0.001 A 
HETATM   24  C7  UNL     1      16.361  23.824  43.069  1.00  0.00     0.008 A 
ENDBRANCH  16  17
ENDBRANCH  15  16
ENDBRANCH  14  15
ENDBRANCH  13  14
ENDBRANCH  12  13
ENDBRANCH  11  12
ENDBRANCH  10  11
ENDBRANCH   9  10
ENDBRANCH   1   9
BRANCH   8  25
HETATM   25  S1  UNL     1       8.560  19.210  38.720  1.00  0.00    -0.157 SA
BRANCH  25  26
HETATM   26  C22 UNL     1       7.943  17.719  38.047  1.00  0.00     0.047 C 
HETATM   27  C23 UNL     1       8.758  16.512  38.221  1.00  0.00     0.015 C 
HETATM   28  C24 UNL     1       8.380  15.393  37.249  1.00  0.00     0.001 C 
HETATM   29  C25 UNL     1       7.527  15.850  36.112  1.00  0.00     0.000 C 
HETATM   30  C26 UNL     1       6.142  16.265  36.523  1.00  0.00     0.000 C 
HETATM   31  C27 UNL     1       5.924  16.263  37.999  1.00  0.00     0.001 C 
HETATM   32  C28 UNL     1       6.583  17.390  38.745  1.00  0.00     0.015 C 
ENDBRANCH  25  26
ENDBRANCH   8  25
TORSDOF 11
ENDMDL
MODEL 2
REMARK VINA RESULT: -8.280046158      2.846     10.438
REMARK  11 active torsions:
REMARK  status: ('A' for Active; 'I' for Inactive)
REMARK    1  A    between atoms: C8_8  and  C9_9 
REMARK    2  A    between atoms: C9_9  and  C10_10 
REMARK    3  A    between atoms: C10_10  and  C11_11 
REMARK    4  A    between atoms: C11_11  and  C12_12 
REMARK    5  A    between atoms: C12_12  and  C13_13 
REMARK    6  A    between atoms: C13_13  and  C14_14 
REMARK    7  A    between atoms: C14_14  and  C15_15 
REMARK    8  A    between atoms: C15_15  and  C16_16 
REMARK    9  A    between atoms: C16_16  and  C17_17 
REMARK   10  A    between atoms: C21_24  and  S1_25 
REMARK   11  A    between atoms: S1_25  and  C22_26 
ROOT
HETATM    1  C17 UNL     1      15.061  21.768  44.502  1.00  0.00     0.199 C 
HETATM    2  N1  UNL     1      16.376  21.570  44.976  1.00  0.00    -0.070 N 
ATOM      3  H11 UNL     1      17.043  22.191  44.518  1.00  0.00     0.277 HD
ATOM      4  H12 UNL     1      16.763  20.679  44.665  1.00  0.00     0.277 HD
HETATM    5  C18 UNL     1      16.417  21.703  46.416  1.00  0.00     0.233 C 
HETATM    6  C19 UNL     1      15.246  22.468  46.945  1.00  0.00     0.029 C 
HETATM    7  C20 UNL     1      14.644  23.508  46.093  1.00  0.00     0.019 C 
HETATM    8  C21 UNL     1      14.523  23.123  44.580  1.00  0.00     0.078 C 
ENDROOT
BRANCH   1   9
HETATM    9  C16 UNL     1      14.724  20.946  43.270  1.00  0.00     0.034 C 
BRANCH   9  10
HETATM   10  C15 UNL     1      13.275  21.034  42.920  1.00  0.00     0.002 C 
BRANCH  10  11
HETATM   11  C14 UNL     1      12.846  19.840  42.084  1.00  0.00     0.000 C 
BRANCH  11  12
HETATM   12  C13 UNL     1      13.041  20.165  40.606  1.00  0.00     0.000 C 
BRANCH  12  13
HETATM   13  C12 UNL     1      11.806  19.757  39.825  1.00  0.00     0.000 C 
BRANCH  13  14
HETATM   14  C11 UNL     1      12.102  19.027  38.555  1.00  0.00     0.000 C 
BRANCH  14  15
HETATM   15  C10 UNL     1      10.840  18.560  37.827  1.00  0.00     0.005 C 
BRANCH  15  16
HETATM   16  C9  UNL     1      10.498  17.171  38.243  1.00  0.00     0.039 C 
BRANCH  16  17
HETATM   17  C8  UNL     1       9.060  16.838  38.227  1.00  0.00    -0.047 A 
HETATM   18  C3  UNL     1       8.124  17.809  38.604  1.00  0.00    -0.020 A 
HETATM   19  C2  UNL     1       7.831  19.150  39.039  1.00  0.00     0.013 A 
HETATM   20  C4  UNL     1       6.778  17.560  38.635  1.00  0.00    -0.025 A 
HETATM   21  C1  UNL     1       6.519  18.927  39.077  1.00  0.00     0.013 A 
HETATM   22  C5  UNL     1       6.280  16.324  38.292  1.00  0.00     0.012 A 
HETATM   23  C6  UNL     1       7.167  15.342  37.915  1.00  0.00     0.001 A 
HETATM   24  C7  UNL     1       8.540  15.609  37.887  1.00  0.00     0.008 A 
ENDBRANCH  16  17
ENDBRANCH  15  16
ENDBRANCH  14  15
ENDBRANCH  13  14
ENDBRANCH  12  13
ENDBRANCH  11  12
ENDBRANCH  10  11
ENDBRANCH   9  10
ENDBRANCH   1   9
BRANCH   8  25
HETATM   25  S1  UNL     1      15.187  24.401  43.585  1.00  0.00    -0.157 SA
BRANCH  25  26
HETATM   26  C22 UNL     1      15.815  24.105  41.981  1.00  0.00     0.047 C 
HETATM   27  C23 UNL     1      16.331  25.257  41.235  1.00  0.00     0.015 C 
HETATM   28  C24 UNL     1      16.436  24.995  39.732  1.00  0.00     0.001 C 
HETATM   29  C25 UNL     1      15.686  23.786  39.281  1.00  0.00     0.000 C 
HETATM   30  C26 UNL     1      16.270  22.491  39.774  1.00  0.00     0.000 C 
HETATM   31  C27 UNL     1      17.410  22.665  40.722  1.00  0.00     0.001 C 
HETATM   32  C28 UNL     1      17.030  23.127  42.102  1.00  0.00     0.015 C 
ENDBRANCH  25  26
ENDBRANCH   8  25
TORSDOF 11
ENDMDL
MODEL 3
REMARK VINA RESULT: -8.253224150      0.693      1.819
REMARK  11 active torsions:
REMARK  status: ('A' for Active; 'I' for Inactive)
REMARK    1  A    between atoms: C8_8  and  C9_9 
REMARK    2  A    between atoms: C9_9  and  C10_10 
REMARK    3  A    between atoms: C10_10  and  C11_11 
REMARK    4  A    between atoms: C11_11  and  C12_12 
REMARK    5  A    between atoms: C12_12  and  C13_13 
REMARK    6  A    between atoms: C13_13  and  C14_14 
REMARK    7  A    between atoms: C14_14  and  C15_15 
REMARK    8  A    between atoms: C15_15  and  C16_16 
REMARK    9  A    between atoms: C16_16  and  C17_17 
REMARK   10  A    between atoms: C21_24  and  S1_25 
REMARK   11  A    between atoms: S1_25  and  C22_26 
ROOT
HETATM    1  C17 UNL     1      11.355  19.380  38.732  1.00  0.00     0.199 C 
HETATM    2  N1  UNL     1      11.547  17.997  38.523  1.00  0.00    -0.070 N 
ATOM      3  H11 UNL     1      10.697  17.463  38.704  1.00  0.00     0.277 HD
ATOM      4  H12 UNL     1      12.142  17.582  39.240  1.00  0.00     0.277 HD
HETATM    5  C18 UNL     1      12.061  17.757  37.191  1.00  0.00     0.233 C 
HETATM    6  C19 UNL     1      11.789  18.902  36.268  1.00  0.00     0.029 C 
HETATM    7  C20 UNL     1      10.581  19.713  36.490  1.00  0.00     0.019 C 
HETATM    8  C21 UNL     1      10.269  20.020  37.995  1.00  0.00     0.078 C 
ENDROOT
BRANCH   1   9
HETATM    9  C16 UNL     1      11.586  19.820  40.168  1.00  0.00     0.034 C 
BRANCH   9  10
HETATM   10  C15 UNL     1      13.039  19.965  40.480  1.00  0.00     0.002 C 
BRANCH  10  11
HETATM   11  C14 UNL     1      13.310  19.671  41.945  1.00  0.00     0.000 C 
BRANCH  11  12
HETATM   12  C13 UNL     1      13.831  20.934  42.624  1.00  0.00     0.000 C 
BRANCH  12  13
HETATM   13  C12 UNL     1      12.746  21.528  43.503  1.00  0.00     0.000 C 
BRANCH  13  14
HETATM   14  C11 UNL     1      13.071  22.884  44.039  1.00  0.00     0.000 C 
BRANCH  14  15
HETATM   15  C10 UNL     1      13.556  22.853  45.490  1.00  0.00     0.005 C 
BRANCH  15  16
HETATM   16  C9  UNL     1      14.903  23.481  45.589  1.00  0.00     0.039 C 
BRANCH  16  17
HETATM   17  C8  UNL     1      16.037  22.620  45.197  1.00  0.00    -0.047 A 
HETATM   18  C3  UNL     1      16.664  22.828  43.962  1.00  0.00    -0.020 A 
HETATM   19  C2  UNL     1      16.775  23.572  42.735  1.00  0.00     0.013 A 
HETATM   20  C4  UNL     1      17.704  22.052  43.526  1.00  0.00    -0.025 A 
HETATM   21  C1  UNL     1      17.787  22.828  42.292  1.00  0.00     0.013 A 
HETATM   22  C5  UNL     1      18.186  21.017  44.296  1.00  0.00     0.012 A 
HETATM   23  C6  UNL     1      17.597  20.781  45.517  1.00  0.00     0.001 A 
HETATM   24  C7  UNL     1      16.535  21.581  45.951  1.00  0.00     0.008 A 
ENDBRANCH  16  17
ENDBRANCH  15  16
ENDBRANCH  14  15
ENDBRANCH  13  14
ENDBRANCH  12  13
ENDBRANCH  11  12
ENDBRANCH  10  11
ENDBRANCH   9  10
ENDBRANCH   1   9
BRANCH   8  25
HETATM   25  S1  UNL     1       8.601  19.627  38.350  1.00  0.00    -0.157 SA
BRANCH  25  26
HETATM   26  C22 UNL     1       7.901  18.077  37.944  1.00  0.00     0.047 C 
HETATM   27  C23 UNL     1       6.709  17.659  38.689  1.00  0.00     0.015 C 
HETATM   28  C24 UNL     1       6.442  16.157  38.593  1.00  0.00     0.001 C 
HETATM   29  C25 UNL     1       7.603  15.374  38.074  1.00  0.00     0.000 C 
HETATM   30  C26 UNL     1       7.913  15.638  36.627  1.00  0.00     0.000 C 
HETATM   31  C27 UNL     1       7.087  16.723  36.020  1.00  0.00     0.001 C 
HETATM   32  C28 UNL     1       7.447  18.118  36.448  1.00  0.00     0.015 C 
ENDBRANCH  25  26
ENDBRANCH   8  25
TORSDOF 11
ENDMDL
MODEL 4
REMARK VINA RESULT: -8.225681790      2.877     10.387
REMARK  11 active torsions:
REMARK  status: ('A' for Active; 'I' for Inactive)
REMARK    1  A    between atoms: C8_8  and  C9_9 
REMARK    2  A    between atoms: C9_9  and  C10_10 
REMARK    3  A    between atoms: C10_10  and  C11_11 
REMARK    4  A    between atoms: C11_11  and  C12_12 
REMARK    5  A    between atoms: C12_12  and  C13_13 
REMARK    6  A    between atoms: C13_13  and  C14_14 
REMARK    7  A    between atoms: C14_14  and  C15_15 
REMARK    8  A    between atoms: C15_15  and  C16_16 
REMARK    9  A    between atoms: C16_16  and  C17_17 
REMARK   10  A    between atoms: C21_24  and  S1_25 
REMARK   11  A    between atoms: S1_25  and  C22_26 
ROOT
HETATM    1  C17 UNL     1      15.116  21.848  44.646  1.00  0.00     0.199 C 
HETATM    2  N1  UNL     1      16.427  21.608  45.115  1.00  0.00    -0.070 N 
ATOM      3  H11 UNL     1      17.114  22.194  44.641  1.00  0.00     0.277 HD
ATOM      4  H12 UNL     1      16.776  20.697  44.819  1.00  0.00     0.277 HD
HETATM    5  C18 UNL     1      16.484  21.767  46.552  1.00  0.00     0.233 C 
HETATM    6  C19 UNL     1      15.346  22.587  47.074  1.00  0.00     0.029 C 
HETATM    7  C20 UNL     1      14.779  23.633  46.207  1.00  0.00     0.019 C 
HETATM    8  C21 UNL     1      14.632  23.224  44.701  1.00  0.00     0.078 C 
ENDROOT
BRANCH   1   9
HETATM    9  C16 UNL     1      14.738  21.016  43.433  1.00  0.00     0.034 C 
BRANCH   9  10
HETATM   10  C15 UNL     1      13.306  21.200  43.054  1.00  0.00     0.002 C 
BRANCH  10  11
HETATM   11  C14 UNL     1      13.150  21.279  41.545  1.00  0.00     0.000 C 
BRANCH  11  12
HETATM   12  C13 UNL     1      13.049  19.866  40.976  1.00  0.00     0.000 C 
BRANCH  12  13
HETATM   13  C12 UNL     1      11.988  19.826  39.893  1.00  0.00     0.000 C 
BRANCH  13  14
HETATM   14  C11 UNL     1      12.399  19.080  38.666  1.00  0.00     0.000 C 
BRANCH  14  15
HETATM   15  C10 UNL     1      11.261  18.915  37.656  1.00  0.00     0.005 C 
BRANCH  15  16
HETATM   16  C9  UNL     1      10.489  17.677  37.957  1.00  0.00     0.039 C 
BRANCH  16  17
HETATM   17  C8  UNL     1       9.063  17.879  38.282  1.00  0.00    -0.047 A 
HETATM   18  C3  UNL     1       8.185  16.789  38.232  1.00  0.00    -0.020 A 
HETATM   19  C2  UNL     1       7.958  15.385  38.009  1.00  0.00     0.013 A 
HETATM   20  C4  UNL     1       6.847  16.910  38.497  1.00  0.00    -0.025 A 
HETATM   21  C1  UNL     1       6.654  15.482  38.262  1.00  0.00     0.013 A 
HETATM   22  C5  UNL     1       6.300  18.129  38.829  1.00  0.00     0.012 A 
HETATM   23  C6  UNL     1       7.130  19.225  38.889  1.00  0.00     0.001 A 
HETATM   24  C7  UNL     1       8.495  19.088  38.617  1.00  0.00     0.008 A 
ENDBRANCH  16  17
ENDBRANCH  15  16
ENDBRANCH  14  15
ENDBRANCH  13  14
ENDBRANCH  12  13
ENDBRANCH  11  12
ENDBRANCH  10  11
ENDBRANCH   9  10
ENDBRANCH   1   9
BRANCH   8  25
HETATM   25  S1  UNL     1      15.337  24.456  43.678  1.00  0.00    -0.157 SA
BRANCH  25  26
HETATM   26  C22 UNL     1      15.896  24.116  42.057  1.00  0.00     0.047 C 
HETATM   27  C23 UNL     1      16.402  25.243  41.267  1.00  0.00     0.015 C 
HETATM   28  C24 UNL     1      16.443  24.948  39.767  1.00  0.00     0.001 C 
HETATM   29  C25 UNL     1      15.654  23.744  39.371  1.00  0.00     0.000 C 
HETATM   30  C26 UNL     1      16.234  22.450  39.868  1.00  0.00     0.000 C 
HETATM   31  C27 UNL     1      17.413  22.622  40.767  1.00  0.00     0.001 C 
HETATM   32  C28 UNL     1      17.097  23.119  42.150  1.00  0.00     0.015 C 
ENDBRANCH  25  26
ENDBRANCH   8  25
TORSDOF 11
ENDMDL
MODEL 5
REMARK VINA RESULT: -8.213730837      3.224     10.228
REMARK  11 active torsions:
REMARK  status: ('A' for Active; 'I' for Inactive)
REMARK    1  A    between atoms: C8_8  and  C9_9 
REMARK    2  A    between atoms: C9_9  and  C10_10 
REMARK    3  A    between atoms: C10_10  and  C11_11 
REMARK    4  A    between atoms: C11_11  and  C12_12 
REMARK    5  A    between atoms: C12_12  and  C13_13 
REMARK    6  A    between atoms: C13_13  and  C14_14 
REMARK    7  A    between atoms: C14_14  and  C15_15 
REMARK    8  A    between atoms: C15_15  and  C16_16 
REMARK    9  A    between atoms: C16_16  and  C17_17 
REMARK   10  A    between atoms: C21_24  and  S1_25 
REMARK   11  A    between atoms: S1_25  and  C22_26 
ROOT
HETATM    1  C17 UNL     1      15.521  23.676  41.731  1.00  0.00     0.199 C 
HETATM    2  N1  UNL     1      16.067  24.976  41.657  1.00  0.00    -0.070 N 
ATOM      3  H11 UNL     1      16.891  25.077  42.250  1.00  0.00     0.277 HD
ATOM      4  H12 UNL     1      15.469  25.666  42.111  1.00  0.00     0.277 HD
HETATM    5  C18 UNL     1      16.347  25.325  40.281  1.00  0.00     0.233 C 
HETATM    6  C19 UNL     1      16.461  24.118  39.405  1.00  0.00     0.029 C 
HETATM    7  C20 UNL     1      16.960  22.865  39.996  1.00  0.00     0.019 C 
HETATM    8  C21 UNL     1      16.416  22.560  41.434  1.00  0.00     0.078 C 
ENDROOT
BRANCH   1   9
HETATM    9  C16 UNL     1      14.522  23.495  42.861  1.00  0.00     0.034 C 
BRANCH   9  10
HETATM   10  C15 UNL     1      13.269  22.830  42.397  1.00  0.00     0.002 C 
BRANCH  10  11
HETATM   11  C14 UNL     1      12.986  21.579  43.210  1.00  0.00     0.000 C 
BRANCH  11  12
HETATM   12  C13 UNL     1      13.519  20.361  42.461  1.00  0.00     0.000 C 
BRANCH  12  13
HETATM   13  C12 UNL     1      13.337  20.558  40.968  1.00  0.00     0.000 C 
BRANCH  13  14
HETATM   14  C11 UNL     1      12.159  19.839  40.398  1.00  0.00     0.000 C 
BRANCH  14  15
HETATM   15  C10 UNL     1      12.345  19.456  38.928  1.00  0.00     0.005 C 
BRANCH  15  16
HETATM   16  C9  UNL     1      11.231  18.570  38.489  1.00  0.00     0.039 C 
BRANCH  16  17
HETATM   17  C8  UNL     1       9.982  19.258  38.110  1.00  0.00    -0.047 A 
HETATM   18  C3  UNL     1       9.964  20.080  36.976  1.00  0.00    -0.020 A 
HETATM   19  C2  UNL     1      10.644  20.646  35.841  1.00  0.00     0.013 A 
HETATM   20  C4  UNL     1       8.846  20.767  36.583  1.00  0.00    -0.025 A 
HETATM   21  C1  UNL     1       9.569  21.322  35.443  1.00  0.00     0.013 A 
HETATM   22  C5  UNL     1       7.673  20.676  37.297  1.00  0.00     0.012 A 
HETATM   23  C6  UNL     1       7.649  19.878  38.418  1.00  0.00     0.001 A 
HETATM   24  C7  UNL     1       8.798  19.182  38.810  1.00  0.00     0.008 A 
ENDBRANCH  16  17
ENDBRANCH  15  16
ENDBRANCH  14  15
ENDBRANCH  13  14
ENDBRANCH  12  13
ENDBRANCH  11  12
ENDBRANCH  10  11
ENDBRANCH   9  10
ENDBRANCH   1   9
BRANCH   8  25
HETATM   25  S1  UNL     1      17.746  22.178  42.505  1.00  0.00    -0.157 SA
BRANCH  25  26
HETATM   26  C22 UNL     1      17.538  22.027  44.234  1.00  0.00     0.047 C 
HETATM   27  C23 UNL     1      16.322  21.361  44.712  1.00  0.00     0.015 C 
HETATM   28  C24 UNL     1      16.013  21.664  46.178  1.00  0.00     0.001 C 
HETATM   29  C25 UNL     1      16.780  22.823  46.724  1.00  0.00     0.000 C 
HETATM   30  C26 UNL     1      18.255  22.566  46.856  1.00  0.00     0.000 C 
HETATM   31  C27 UNL     1      18.691  21.252  46.299  1.00  0.00     0.001 C 
HETATM   32  C28 UNL     1      18.716  21.169  44.799  1.00  0.00     0.015 C 
ENDBRANCH  25  26
ENDBRANCH   8  25
TORSDOF 11
ENDMDL
