MODEL 1
REMARK VINA RESULT: -4.884672696      0.000      0.000
REMARK  1 active torsions:
REMARK  status: ('A' for Active; 'I' for Inactive)
REMARK    1  A    between atoms: C2_2  and  C3_3 
ROOT
HETATM    1  C3  UNL     1       6.392  -6.085  29.791  1.00  0.00     0.215 C 
HETATM    2  N1  UNL     1       6.405  -4.957  30.735  1.00  0.00    -0.067 N 
ATOM      3  H11 UNL     1       6.978  -5.079  31.570  1.00  0.00     0.277 HD
ATOM      4  H12 UNL     1       5.542  -4.798  31.255  1.00  0.00     0.277 HD
HETATM    5  C4  UNL     1       6.811  -3.892  29.833  1.00  0.00     0.234 C 
HETATM    6  C5  UNL     1       6.070  -4.140  28.535  1.00  0.00     0.038 C 
HETATM    7  C6  UNL     1       5.551  -5.562  28.689  1.00  0.00    -0.014 C 
HETATM    8  C7  UNL     1       4.085  -5.477  29.019  1.00  0.00     0.017 C 
HETATM    9  C8  UNL     1       5.685  -6.333  27.393  1.00  0.00     0.017 C 
ENDROOT
BRANCH   1  10
HETATM   10  C2  UNL     1       5.901  -7.320  30.422  1.00  0.00    -0.004 C 
HETATM   11  C1  UNL     1       6.640  -8.373  30.693  1.00  0.00     0.009 C 
ENDBRANCH   1  10
TORSDOF 1
ENDMDL
MODEL 2
REMARK VINA RESULT: -4.537015264      1.202      2.950
REMARK  1 active torsions:
REMARK  status: ('A' for Active; 'I' for Inactive)
REMARK    1  A    between atoms: C2_2  and  C3_3 
ROOT
HETATM    1  C3  UNL     1       5.242  -4.894  29.915  1.00  0.00     0.215 C 
HETATM    2  N1  UNL     1       6.532  -5.476  30.318  1.00  0.00    -0.067 N 
ATOM      3  H11 UNL     1       6.763  -5.408  31.309  1.00  0.00     0.277 HD
ATOM      4  H12 UNL     1       7.365  -4.976  30.009  1.00  0.00     0.277 HD
HETATM    5  C4  UNL     1       6.364  -6.821  29.793  1.00  0.00     0.234 C 
HETATM    6  C5  UNL     1       5.681  -6.662  28.450  1.00  0.00     0.038 C 
HETATM    7  C6  UNL     1       5.188  -5.223  28.472  1.00  0.00    -0.014 C 
HETATM    8  C7  UNL     1       6.122  -4.410  27.617  1.00  0.00     0.017 C 
HETATM    9  C8  UNL     1       3.803  -5.114  27.867  1.00  0.00     0.017 C 
ENDROOT
BRANCH   1  10
HETATM   10  C2  UNL     1       5.167  -3.459  30.233  1.00  0.00    -0.004 C 
HETATM   11  C1  UNL     1       6.069  -2.790  30.916  1.00  0.00     0.009 C 
ENDBRANCH   1  10
TORSDOF 1
ENDMDL
MODEL 3
REMARK VINA RESULT: -4.512981725      1.341      2.746
REMARK  1 active torsions:
REMARK  status: ('A' for Active; 'I' for Inactive)
REMARK    1  A    between atoms: C2_2  and  C3_3 
ROOT
HETATM    1  C3  UNL     1       5.522  -4.257  29.205  1.00  0.00     0.215 C 
HETATM    2  N1  UNL     1       4.507  -3.779  30.157  1.00  0.00    -0.067 N 
ATOM      3  H11 UNL     1       4.641  -2.834  30.517  1.00  0.00     0.277 HD
ATOM      4  H12 UNL     1       4.517  -4.216  31.079  1.00  0.00     0.277 HD
HETATM    5  C4  UNL     1       3.309  -3.995  29.362  1.00  0.00     0.234 C 
HETATM    6  C5  UNL     1       3.513  -5.318  28.652  1.00  0.00     0.038 C 
HETATM    7  C6  UNL     1       4.998  -5.592  28.834  1.00  0.00    -0.014 C 
HETATM    8  C7  UNL     1       5.140  -6.632  29.912  1.00  0.00     0.017 C 
HETATM    9  C8  UNL     1       5.605  -6.161  27.567  1.00  0.00     0.017 C 
ENDROOT
BRANCH   1  10
HETATM   10  C2  UNL     1       6.869  -4.254  29.795  1.00  0.00    -0.004 C 
HETATM   11  C1  UNL     1       7.220  -3.583  30.870  1.00  0.00     0.009 C 
ENDBRANCH   1  10
TORSDOF 1
ENDMDL
MODEL 4
REMARK VINA RESULT: -4.479398870      2.011      3.618
REMARK  1 active torsions:
REMARK  status: ('A' for Active; 'I' for Inactive)
REMARK    1  A    between atoms: C2_2  and  C3_3 
ROOT
HETATM    1  C3  UNL     1       5.616  -4.226  27.689  1.00  0.00     0.215 C 
HETATM    2  N1  UNL     1       4.569  -3.197  27.780  1.00  0.00    -0.067 N 
ATOM      3  H11 UNL     1       4.657  -2.411  27.134  1.00  0.00     0.277 HD
ATOM      4  H12 UNL     1       4.587  -2.613  28.616  1.00  0.00     0.277 HD
HETATM    5  C4  UNL     1       3.393  -4.033  27.611  1.00  0.00     0.234 C 
HETATM    6  C5  UNL     1       3.665  -5.299  28.399  1.00  0.00     0.038 C 
HETATM    7  C6  UNL     1       5.158  -5.227  28.679  1.00  0.00    -0.014 C 
HETATM    8  C7  UNL     1       5.332  -4.802  30.112  1.00  0.00     0.017 C 
HETATM    9  C8  UNL     1       5.806  -6.588  28.524  1.00  0.00     0.017 C 
ENDROOT
BRANCH   1  10
HETATM   10  C2  UNL     1       6.955  -3.668  27.936  1.00  0.00    -0.004 C 
HETATM   11  C1  UNL     1       7.318  -2.433  27.666  1.00  0.00     0.009 C 
ENDBRANCH   1  10
TORSDOF 1
ENDMDL
MODEL 5
REMARK VINA RESULT: -4.460058050      1.653      2.221
REMARK  1 active torsions:
REMARK  status: ('A' for Active; 'I' for Inactive)
REMARK    1  A    between atoms: C2_2  and  C3_3 
ROOT
HETATM    1  C3  UNL     1       5.370  -5.256  27.947  1.00  0.00     0.215 C 
HETATM    2  N1  UNL     1       6.489  -4.390  28.350  1.00  0.00    -0.067 N 
ATOM      3  H11 UNL     1       7.422  -4.792  28.259  1.00  0.00     0.277 HD
ATOM      4  H12 UNL     1       6.578  -4.210  29.350  1.00  0.00     0.277 HD
HETATM    5  C4  UNL     1       6.209  -3.232  27.517  1.00  0.00     0.234 C 
HETATM    6  C5  UNL     1       4.705  -3.052  27.545  1.00  0.00     0.038 C 
HETATM    7  C6  UNL     1       4.202  -4.364  28.127  1.00  0.00    -0.014 C 
HETATM    8  C7  UNL     1       3.834  -4.111  29.564  1.00  0.00     0.017 C 
HETATM    9  C8  UNL     1       2.952  -4.833  27.411  1.00  0.00     0.017 C 
ENDROOT
BRANCH   1  10
HETATM   10  C2  UNL     1       5.334  -6.502  28.730  1.00  0.00    -0.004 C 
HETATM   11  C1  UNL     1       6.367  -7.036  29.344  1.00  0.00     0.009 C 
ENDBRANCH   1  10
TORSDOF 1
ENDMDL
