MODEL 1
REMARK VINA RESULT: -4.484018934      0.000      0.000
REMARK  0 active torsions:
REMARK  status: ('A' for Active; 'I' for Inactive)
ROOT
HETATM    1  C1  UNL     1      11.441  -2.364  33.855  1.00  0.00     0.002 C 
HETATM    2  C2  UNL     1      10.737  -2.447  32.538  1.00  0.00     0.007 C 
HETATM    3  C3  UNL     1       9.452  -3.167  32.829  1.00  0.00     0.018 C 
HETATM    4  C4  UNL     1       8.272  -2.585  32.087  1.00  0.00     0.034 C 
HETATM    5  C5  UNL     1       8.007  -1.284  32.832  1.00  0.00     0.233 C 
HETATM    6  N1  UNL     1       8.785  -1.341  34.047  1.00  0.00    -0.070 N 
ATOM      7  H11 UNL     1       8.302  -0.932  34.848  1.00  0.00     0.277 HD
ATOM      8  H12 UNL     1       9.585  -0.709  34.037  1.00  0.00     0.277 HD
HETATM    9  C6  UNL     1       9.154  -2.708  34.255  1.00  0.00     0.190 C 
HETATM   10  C7  UNL     1      10.491  -2.890  34.910  1.00  0.00     0.033 C 
ENDROOT
TORSDOF 0
ENDMDL
MODEL 2
REMARK VINA RESULT: -4.452157273      6.537      7.083
REMARK  0 active torsions:
REMARK  status: ('A' for Active; 'I' for Inactive)
ROOT
HETATM    1  C1  UNL     1       6.156  -7.000  28.814  1.00  0.00     0.002 C 
HETATM    2  C2  UNL     1       5.530  -6.219  27.702  1.00  0.00     0.007 C 
HETATM    3  C3  UNL     1       4.382  -5.489  28.337  1.00  0.00     0.018 C 
HETATM    4  C4  UNL     1       4.236  -4.073  27.833  1.00  0.00     0.034 C 
HETATM    5  C5  UNL     1       5.396  -3.349  28.500  1.00  0.00     0.233 C 
HETATM    6  N1  UNL     1       5.913  -4.243  29.509  1.00  0.00    -0.070 N 
ATOM      7  H11 UNL     1       6.204  -3.759  30.359  1.00  0.00     0.277 HD
ATOM      8  H12 UNL     1       6.820  -4.639  29.263  1.00  0.00     0.277 HD
HETATM    9  C6  UNL     1       4.914  -5.241  29.748  1.00  0.00     0.190 C 
HETATM   10  C7  UNL     1       5.466  -6.590  30.098  1.00  0.00     0.033 C 
ENDROOT
TORSDOF 0
ENDMDL
MODEL 3
REMARK VINA RESULT: -4.312208683      5.876      6.744
REMARK  0 active torsions:
REMARK  status: ('A' for Active; 'I' for Inactive)
ROOT
HETATM    1  C1  UNL     1       6.734  -8.151  30.259  1.00  0.00     0.002 C 
HETATM    2  C2  UNL     1       6.764  -7.560  28.885  1.00  0.00     0.007 C 
HETATM    3  C3  UNL     1       5.527  -6.714  28.798  1.00  0.00     0.018 C 
HETATM    4  C4  UNL     1       5.762  -5.402  28.087  1.00  0.00     0.034 C 
HETATM    5  C5  UNL     1       6.550  -4.594  29.108  1.00  0.00     0.233 C 
HETATM    6  N1  UNL     1       6.460  -5.313  30.357  1.00  0.00    -0.070 N 
ATOM      7  H11 UNL     1       6.374  -4.696  31.166  1.00  0.00     0.277 HD
ATOM      8  H12 UNL     1       7.338  -5.759  30.624  1.00  0.00     0.277 HD
HETATM    9  C6  UNL     1       5.374  -6.238  30.242  1.00  0.00     0.190 C 
HETATM   10  C7  UNL     1       5.574  -7.517  30.998  1.00  0.00     0.033 C 
ENDROOT
TORSDOF 0
ENDMDL
MODEL 4
REMARK VINA RESULT: -4.265884521      5.944      7.107
REMARK  0 active torsions:
REMARK  status: ('A' for Active; 'I' for Inactive)
ROOT
HETATM    1  C1  UNL     1       4.033  -4.118  29.040  1.00  0.00     0.002 C 
HETATM    2  C2  UNL     1       4.162  -5.515  28.521  1.00  0.00     0.007 C 
HETATM    3  C3  UNL     1       5.633  -5.709  28.290  1.00  0.00     0.018 C 
HETATM    4  C4  UNL     1       6.116  -7.078  28.706  1.00  0.00     0.034 C 
HETATM    5  C5  UNL     1       6.107  -6.998  30.226  1.00  0.00     0.233 C 
HETATM    6  N1  UNL     1       5.933  -5.605  30.563  1.00  0.00    -0.070 N 
ATOM      7  H11 UNL     1       6.477  -5.321  31.378  1.00  0.00     0.277 HD
ATOM      8  H12 UNL     1       5.008  -5.400  30.943  1.00  0.00     0.277 HD
HETATM    9  C6  UNL     1       6.238  -4.840  29.391  1.00  0.00     0.190 C 
HETATM   10  C7  UNL     1       5.433  -3.583  29.253  1.00  0.00     0.033 C 
ENDROOT
TORSDOF 0
ENDMDL
MODEL 5
REMARK VINA RESULT: -4.150085361      0.972      2.788
REMARK  0 active torsions:
REMARK  status: ('A' for Active; 'I' for Inactive)
ROOT
HETATM    1  C1  UNL     1       8.873  -2.701  32.075  1.00  0.00     0.002 C 
HETATM    2  C2  UNL     1      10.344  -2.828  32.313  1.00  0.00     0.007 C 
HETATM    3  C3  UNL     1      10.666  -1.770  33.329  1.00  0.00     0.018 C 
HETATM    4  C4  UNL     1      11.653  -2.240  34.372  1.00  0.00     0.034 C 
HETATM    5  C5  UNL     1      10.819  -3.175  35.236  1.00  0.00     0.233 C 
HETATM    6  N1  UNL     1       9.441  -2.965  34.858  1.00  0.00    -0.070 N 
ATOM      7  H11 UNL     1       8.800  -3.004  35.651  1.00  0.00     0.277 HD
ATOM      8  H12 UNL     1       9.049  -3.746  34.332  1.00  0.00     0.277 HD
HETATM    9  C6  UNL     1       9.377  -1.723  34.148  1.00  0.00     0.190 C 
HETATM   10  C7  UNL     1       8.340  -1.688  33.066  1.00  0.00     0.033 C 
ENDROOT
TORSDOF 0
ENDMDL
