MODEL 1
REMARK VINA RESULT: -8.030556534      0.000      0.000
REMARK  3 active torsions:
REMARK  status: ('A' for Active; 'I' for Inactive)
REMARK    1  A    between atoms: N5_15  and  C6_16 
REMARK    2  A    between atoms: C8_18  and  N6_19 
REMARK    3  A    between atoms: C9_23  and  N7_24 
ROOT
HETATM    1  C6  UNL     1      -8.726 -25.884  16.153  1.00  0.00     0.096 C 
HETATM    2  C7  UNL     1      -7.605 -26.708  16.751  1.00  0.00     0.060 C 
HETATM    3  C8  UNL     1      -7.958 -28.103  16.250  1.00  0.00     0.208 C 
HETATM    4  C9  UNL     1      -9.444 -28.111  16.451  1.00  0.00     0.123 C 
HETATM    5  C17 UNL     1      -9.959 -26.745  16.188  1.00  0.00     0.053 C 
ENDROOT
BRANCH   1   6
HETATM    6  N5  UNL     1      -8.888 -24.608  16.770  1.00  0.00    -0.322 N 
HETATM    7  C3  UNL     1      -8.143 -23.487  16.534  1.00  0.00     0.140 A 
HETATM    8  N3  UNL     1      -7.109 -23.258  15.710  1.00  0.00    -0.336 N 
HETATM    9  C4  UNL     1      -8.606 -22.458  17.322  1.00  0.00     0.122 A 
HETATM   10  C2  UNL     1      -6.531 -22.048  15.651  1.00  0.00     0.183 A 
ATOM     11  H3  UNL     1      -6.758 -24.013  15.121  1.00  0.00     0.168 HD
HETATM   12  N2  UNL     1      -6.980 -21.040  16.421  1.00  0.00    -0.337 N 
HETATM   13  C1  UNL     1      -8.008 -21.212  17.261  1.00  0.00     0.131 A 
ATOM     14  H2  UNL     1      -6.529 -20.128  16.364  1.00  0.00     0.168 HD
HETATM   15  N1  UNL     1      -8.487 -20.295  18.022  1.00  0.00    -0.383 N 
ATOM     16  H12 UNL     1      -8.047 -19.376  17.977  1.00  0.00     0.157 HD
ATOM     17  H11 UNL     1      -9.270 -20.425  18.662  1.00  0.00     0.157 HD
HETATM   18  N4  UNL     1      -9.618 -22.960  18.026  1.00  0.00    -0.346 N 
HETATM   19  C5  UNL     1      -9.784 -24.235  17.696  1.00  0.00     0.185 A 
ATOM     20  H4  UNL     1     -10.176 -22.447  18.709  1.00  0.00     0.167 HD
ENDBRANCH   1   6
BRANCH   3  21
HETATM   21  N6  UNL     1      -7.361 -29.075  17.176  1.00  0.00    -0.073 N 
ATOM     22  H63 UNL     1      -6.342 -29.028  17.197  1.00  0.00     0.274 HD
ATOM     23  H62 UNL     1      -7.527 -28.844  18.155  1.00  0.00     0.274 HD
ATOM     24  H61 UNL     1      -7.710 -30.000  16.923  1.00  0.00     0.274 HD
ENDBRANCH   3  21
BRANCH   4  25
HETATM   25  N7  UNL     1     -10.127 -29.169  15.755  1.00  0.00    -0.334 N 
HETATM   26  C10 UNL     1      -9.803 -29.698  14.565  1.00  0.00     0.184 A 
HETATM   27  N8  UNL     1     -10.687 -30.663  14.260  1.00  0.00    -0.350 N 
HETATM   28  C11 UNL     1     -11.597 -30.765  15.259  1.00  0.00     0.060 A 
ATOM     29  H8  UNL     1     -10.675 -31.229  13.412  1.00  0.00     0.166 HD
HETATM   30  C12 UNL     1     -12.706 -31.599  15.431  1.00  0.00     0.032 A 
HETATM   31  C16 UNL     1     -11.235 -29.822  16.191  1.00  0.00     0.062 A 
HETATM   32  C13 UNL     1     -13.445 -31.443  16.596  1.00  0.00     0.002 A 
HETATM   33  C14 UNL     1     -13.098 -30.500  17.544  1.00  0.00     0.002 A 
HETATM   34  C15 UNL     1     -12.000 -29.702  17.334  1.00  0.00     0.032 A 
ENDBRANCH   4  25
TORSDOF 3
ENDMDL
MODEL 2
REMARK VINA RESULT: -7.906245360      3.191      6.239
REMARK  3 active torsions:
REMARK  status: ('A' for Active; 'I' for Inactive)
REMARK    1  A    between atoms: N5_15  and  C6_16 
REMARK    2  A    between atoms: C8_18  and  N6_19 
REMARK    3  A    between atoms: C9_23  and  N7_24 
ROOT
HETATM    1  C6  UNL     1      -6.414 -21.441  15.506  1.00  0.00     0.096 C 
HETATM    2  C7  UNL     1      -7.458 -20.525  16.108  1.00  0.00     0.060 C 
HETATM    3  C8  UNL     1      -8.032 -21.407  17.210  1.00  0.00     0.208 C 
HETATM    4  C9  UNL     1      -8.123 -22.726  16.502  1.00  0.00     0.123 C 
HETATM    5  C17 UNL     1      -6.977 -22.835  15.566  1.00  0.00     0.053 C 
ENDROOT
BRANCH   1   6
HETATM    6  N5  UNL     1      -5.985 -21.041  14.205  1.00  0.00    -0.322 N 
HETATM    7  C3  UNL     1      -4.862 -21.462  13.550  1.00  0.00     0.140 A 
HETATM    8  N3  UNL     1      -3.891 -22.318  13.903  1.00  0.00    -0.336 N 
HETATM    9  C4  UNL     1      -4.796 -20.851  12.319  1.00  0.00     0.122 A 
HETATM   10  C2  UNL     1      -2.868 -22.577  13.072  1.00  0.00     0.183 A 
ATOM     11  H3  UNL     1      -3.929 -22.777  14.812  1.00  0.00     0.168 HD
HETATM   12  N2  UNL     1      -2.800 -21.981  11.868  1.00  0.00    -0.337 N 
HETATM   13  C1  UNL     1      -3.741 -21.119  11.465  1.00  0.00     0.131 A 
ATOM     14  H2  UNL     1      -2.017 -22.189  11.250  1.00  0.00     0.168 HD
HETATM   15  N1  UNL     1      -3.739 -20.516  10.331  1.00  0.00    -0.383 N 
ATOM     16  H12 UNL     1      -2.961 -20.713   9.701  1.00  0.00     0.157 HD
ATOM     17  H11 UNL     1      -4.456 -19.859  10.024  1.00  0.00     0.157 HD
HETATM   18  N4  UNL     1      -5.870 -20.069  12.239  1.00  0.00    -0.346 N 
HETATM   19  C5  UNL     1      -6.575 -20.184  13.359  1.00  0.00     0.185 A 
ATOM     20  H4  UNL     1      -6.113 -19.477  11.444  1.00  0.00     0.167 HD
ENDBRANCH   1   6
BRANCH   3  21
HETATM   21  N6  UNL     1      -9.396 -20.939  17.493  1.00  0.00    -0.073 N 
ATOM     22  H63 UNL     1      -9.865 -20.563  16.670  1.00  0.00     0.274 HD
ATOM     23  H62 UNL     1     -10.045 -21.702  17.681  1.00  0.00     0.274 HD
ATOM     24  H61 UNL     1      -9.341 -20.268  18.260  1.00  0.00     0.274 HD
ENDBRANCH   3  21
BRANCH   4  25
HETATM   25  N7  UNL     1      -8.311 -23.853  17.377  1.00  0.00    -0.334 N 
HETATM   26  C10 UNL     1      -7.982 -23.935  18.676  1.00  0.00     0.184 A 
HETATM   27  N8  UNL     1      -8.319 -25.151  19.135  1.00  0.00    -0.350 N 
HETATM   28  C11 UNL     1      -8.872 -25.870  18.130  1.00  0.00     0.060 A 
ATOM     29  H8  UNL     1      -8.181 -25.480  20.091  1.00  0.00     0.166 HD
HETATM   30  C12 UNL     1      -9.382 -27.172  18.082  1.00  0.00     0.032 A 
HETATM   31  C16 UNL     1      -8.862 -25.045  17.031  1.00  0.00     0.062 A 
HETATM   32  C13 UNL     1      -9.888 -27.612  16.867  1.00  0.00     0.002 A 
HETATM   33  C14 UNL     1      -9.885 -26.798  15.751  1.00  0.00     0.002 A 
HETATM   34  C15 UNL     1      -9.375 -25.526  15.843  1.00  0.00     0.032 A 
ENDBRANCH   4  25
TORSDOF 3
ENDMDL
MODEL 3
REMARK VINA RESULT: -7.844850342      1.662      1.837
REMARK  3 active torsions:
REMARK  status: ('A' for Active; 'I' for Inactive)
REMARK    1  A    between atoms: N5_15  and  C6_16 
REMARK    2  A    between atoms: C8_18  and  N6_19 
REMARK    3  A    between atoms: C9_23  and  N7_24 
ROOT
HETATM    1  C6  UNL     1      -9.267 -26.021  16.452  1.00  0.00     0.096 C 
HETATM    2  C7  UNL     1      -7.894 -26.653  16.349  1.00  0.00     0.060 C 
HETATM    3  C8  UNL     1      -8.253 -28.129  16.229  1.00  0.00     0.208 C 
HETATM    4  C9  UNL     1      -9.349 -28.240  17.245  1.00  0.00     0.123 C 
HETATM    5  C17 UNL     1     -10.122 -26.975  17.241  1.00  0.00     0.053 C 
ENDROOT
BRANCH   1   6
HETATM    6  N5  UNL     1      -9.246 -24.692  16.970  1.00  0.00    -0.322 N 
HETATM    7  C3  UNL     1      -8.372 -23.697  16.631  1.00  0.00     0.140 A 
HETATM    8  N3  UNL     1      -7.342 -23.668  15.771  1.00  0.00    -0.336 N 
HETATM    9  C4  UNL     1      -8.675 -22.560  17.344  1.00  0.00     0.122 A 
HETATM   10  C2  UNL     1      -6.616 -22.551  15.606  1.00  0.00     0.183 A 
ATOM     11  H3  UNL     1      -7.108 -24.504  15.236  1.00  0.00     0.168 HD
HETATM   12  N2  UNL     1      -6.910 -21.438  16.302  1.00  0.00    -0.337 N 
HETATM   13  C1  UNL     1      -7.925 -21.411  17.173  1.00  0.00     0.131 A 
ATOM     14  H2  UNL     1      -6.347 -20.599  16.164  1.00  0.00     0.168 HD
HETATM   15  N1  UNL     1      -8.260 -20.384  17.869  1.00  0.00    -0.383 N 
ATOM     16  H12 UNL     1      -7.708 -19.536  17.743  1.00  0.00     0.157 HD
ATOM     17  H11 UNL     1      -9.034 -20.363  18.533  1.00  0.00     0.157 HD
HETATM   18  N4  UNL     1      -9.722 -22.872  18.105  1.00  0.00    -0.346 N 
HETATM   19  C5  UNL     1     -10.059 -24.137  17.881  1.00  0.00     0.185 A 
ATOM     20  H4  UNL     1     -10.189 -22.241  18.756  1.00  0.00     0.167 HD
ENDBRANCH   1   6
BRANCH   3  21
HETATM   21  N6  UNL     1      -7.101 -28.908  16.704  1.00  0.00    -0.073 N 
ATOM     22  H63 UNL     1      -6.207 -28.487  16.454  1.00  0.00     0.274 HD
ATOM     23  H62 UNL     1      -6.988 -28.872  17.717  1.00  0.00     0.274 HD
ATOM     24  H61 UNL     1      -7.203 -29.860  16.351  1.00  0.00     0.274 HD
ENDBRANCH   3  21
BRANCH   4  25
HETATM   25  N7  UNL     1     -10.136 -29.441  17.134  1.00  0.00    -0.334 N 
HETATM   26  C10 UNL     1     -10.940 -29.792  16.118  1.00  0.00     0.184 A 
HETATM   27  N8  UNL     1     -11.496 -30.983  16.393  1.00  0.00    -0.350 N 
HETATM   28  C11 UNL     1     -11.053 -31.414  17.599  1.00  0.00     0.060 A 
ATOM     29  H8  UNL     1     -12.148 -31.484  15.789  1.00  0.00     0.166 HD
HETATM   30  C12 UNL     1     -11.324 -32.572  18.334  1.00  0.00     0.032 A 
HETATM   31  C16 UNL     1     -10.201 -30.437  18.055  1.00  0.00     0.062 A 
HETATM   32  C13 UNL     1     -10.690 -32.709  19.562  1.00  0.00     0.002 A 
HETATM   33  C14 UNL     1      -9.830 -31.737  20.037  1.00  0.00     0.002 A 
HETATM   34  C15 UNL     1      -9.594 -30.615  19.281  1.00  0.00     0.032 A 
ENDBRANCH   4  25
TORSDOF 3
ENDMDL
MODEL 4
REMARK VINA RESULT: -7.767918008      1.155      1.229
REMARK  3 active torsions:
REMARK  status: ('A' for Active; 'I' for Inactive)
REMARK    1  A    between atoms: N5_15  and  C6_16 
REMARK    2  A    between atoms: C8_18  and  N6_19 
REMARK    3  A    between atoms: C9_23  and  N7_24 
ROOT
HETATM    1  C6  UNL     1      -8.175 -25.197  16.848  1.00  0.00     0.096 C 
HETATM    2  C7  UNL     1      -7.906 -25.890  18.167  1.00  0.00     0.060 C 
HETATM    3  C8  UNL     1      -8.216 -27.339  17.813  1.00  0.00     0.208 C 
HETATM    4  C9  UNL     1      -9.457 -27.172  16.987  1.00  0.00     0.123 C 
HETATM    5  C17 UNL     1      -9.339 -25.910  16.216  1.00  0.00     0.053 C 
ENDROOT
BRANCH   1   6
HETATM    6  N5  UNL     1      -8.352 -23.786  16.970  1.00  0.00    -0.322 N 
HETATM    7  C3  UNL     1      -7.618 -22.815  16.350  1.00  0.00     0.140 A 
HETATM    8  N3  UNL     1      -6.583 -22.883  15.499  1.00  0.00    -0.336 N 
HETATM    9  C4  UNL     1      -8.094 -21.578  16.721  1.00  0.00     0.122 A 
HETATM   10  C2  UNL     1      -6.017 -21.767  15.014  1.00  0.00     0.183 A 
ATOM     11  H3  UNL     1      -6.222 -23.795  15.217  1.00  0.00     0.168 HD
HETATM   12  N2  UNL     1      -6.479 -20.556  15.374  1.00  0.00    -0.337 N 
HETATM   13  C1  UNL     1      -7.508 -20.429  16.220  1.00  0.00     0.131 A 
ATOM     14  H2  UNL     1      -6.037 -19.719  14.996  1.00  0.00     0.168 HD
HETATM   15  N1  UNL     1      -7.999 -19.306  16.605  1.00  0.00    -0.383 N 
ATOM     16  H12 UNL     1      -7.568 -18.458  16.236  1.00  0.00     0.157 HD
ATOM     17  H11 UNL     1      -8.784 -19.209  17.250  1.00  0.00     0.157 HD
HETATM   18  N4  UNL     1      -9.104 -21.807  17.557  1.00  0.00    -0.346 N 
HETATM   19  C5  UNL     1      -9.255 -23.118  17.703  1.00  0.00     0.185 A 
ATOM     20  H4  UNL     1      -9.669 -21.091  18.013  1.00  0.00     0.167 HD
ENDBRANCH   1   6
BRANCH   3  21
HETATM   21  N6  UNL     1      -8.579 -28.036  19.055  1.00  0.00    -0.073 N 
ATOM     22  H63 UNL     1      -8.469 -27.451  19.884  1.00  0.00     0.274 HD
ATOM     23  H62 UNL     1      -9.582 -28.200  19.139  1.00  0.00     0.274 HD
ATOM     24  H61 UNL     1      -8.031 -28.895  19.101  1.00  0.00     0.274 HD
ENDBRANCH   3  21
BRANCH   4  25
HETATM   25  N7  UNL     1      -9.811 -28.333  16.214  1.00  0.00    -0.334 N 
HETATM   26  C10 UNL     1      -9.141 -28.849  15.171  1.00  0.00     0.184 A 
HETATM   27  N8  UNL     1      -9.796 -29.932  14.724  1.00  0.00    -0.350 N 
HETATM   28  C11 UNL     1     -10.903 -30.127  15.479  1.00  0.00     0.060 A 
ATOM     29  H8  UNL     1      -9.505 -30.517  13.940  1.00  0.00     0.166 HD
HETATM   30  C12 UNL     1     -11.909 -31.097  15.430  1.00  0.00     0.032 A 
HETATM   31  C16 UNL     1     -10.903 -29.117  16.411  1.00  0.00     0.062 A 
HETATM   32  C13 UNL     1     -12.925 -31.008  16.372  1.00  0.00     0.002 A 
HETATM   33  C14 UNL     1     -12.942 -30.000  17.316  1.00  0.00     0.002 A 
HETATM   34  C15 UNL     1     -11.934 -29.067  17.327  1.00  0.00     0.032 A 
ENDBRANCH   4  25
TORSDOF 3
ENDMDL
MODEL 5
REMARK VINA RESULT: -7.763542590      3.833      9.234
REMARK  3 active torsions:
REMARK  status: ('A' for Active; 'I' for Inactive)
REMARK    1  A    between atoms: N5_15  and  C6_16 
REMARK    2  A    between atoms: C8_18  and  N6_19 
REMARK    3  A    between atoms: C9_23  and  N7_24 
ROOT
HETATM    1  C6  UNL     1      -9.682 -31.640  18.164  1.00  0.00     0.096 C 
HETATM    2  C7  UNL     1      -9.652 -31.311  16.686  1.00  0.00     0.060 C 
HETATM    3  C8  UNL     1      -8.892 -29.990  16.689  1.00  0.00     0.208 C 
HETATM    4  C9  UNL     1      -9.513 -29.306  17.870  1.00  0.00     0.123 C 
HETATM    5  C17 UNL     1      -9.827 -30.333  18.894  1.00  0.00     0.053 C 
ENDROOT
BRANCH   1   6
HETATM    6  N5  UNL     1     -10.664 -32.615  18.511  1.00  0.00    -0.322 N 
HETATM    7  C3  UNL     1     -10.595 -33.960  18.286  1.00  0.00     0.140 A 
HETATM    8  N3  UNL     1      -9.651 -34.723  17.712  1.00  0.00    -0.336 N 
HETATM    9  C4  UNL     1     -11.735 -34.563  18.765  1.00  0.00     0.122 A 
HETATM   10  C2  UNL     1      -9.813 -36.051  17.604  1.00  0.00     0.183 A 
ATOM     11  H3  UNL     1      -8.802 -34.287  17.353  1.00  0.00     0.168 HD
HETATM   12  N2  UNL     1     -10.927 -36.643  18.070  1.00  0.00    -0.337 N 
HETATM   13  C1  UNL     1     -11.900 -35.932  18.652  1.00  0.00     0.131 A 
ATOM     14  H2  UNL     1     -11.032 -37.653  17.979  1.00  0.00     0.168 HD
HETATM   15  N1  UNL     1     -12.987 -36.431  19.119  1.00  0.00    -0.383 N 
ATOM     16  H12 UNL     1     -13.108 -37.441  19.036  1.00  0.00     0.157 HD
ATOM     17  H11 UNL     1     -13.728 -35.890  19.563  1.00  0.00     0.157 HD
HETATM   18  N4  UNL     1     -12.482 -33.585  19.272  1.00  0.00    -0.346 N 
HETATM   19  C5  UNL     1     -11.844 -32.430  19.121  1.00  0.00     0.185 A 
ATOM     20  H4  UNL     1     -13.398 -33.704  19.707  1.00  0.00     0.167 HD
ENDBRANCH   1   6
BRANCH   3  21
HETATM   21  N6  UNL     1      -9.273 -29.253  15.475  1.00  0.00    -0.073 N 
ATOM     22  H63 UNL     1     -10.229 -28.900  15.510  1.00  0.00     0.274 HD
ATOM     23  H62 UNL     1      -8.800 -28.353  15.394  1.00  0.00     0.274 HD
ATOM     24  H61 UNL     1      -9.104 -29.863  14.676  1.00  0.00     0.274 HD
ENDBRANCH   3  21
BRANCH   4  25
HETATM   25  N7  UNL     1      -8.773 -28.168  18.348  1.00  0.00    -0.334 N 
HETATM   26  C10 UNL     1      -7.680 -28.181  19.127  1.00  0.00     0.184 A 
HETATM   27  N8  UNL     1      -7.289 -26.916  19.351  1.00  0.00    -0.350 N 
HETATM   28  C11 UNL     1      -8.133 -26.069  18.716  1.00  0.00     0.060 A 
ATOM     29  H8  UNL     1      -6.483 -26.637  19.912  1.00  0.00     0.166 HD
HETATM   30  C12 UNL     1      -8.170 -24.673  18.633  1.00  0.00     0.032 A 
HETATM   31  C16 UNL     1      -9.061 -26.866  18.090  1.00  0.00     0.062 A 
HETATM   32  C13 UNL     1      -9.192 -24.108  17.882  1.00  0.00     0.002 A 
HETATM   33  C14 UNL     1     -10.134 -24.893  17.246  1.00  0.00     0.002 A 
HETATM   34  C15 UNL     1     -10.059 -26.260  17.355  1.00  0.00     0.032 A 
ENDBRANCH   4  25
TORSDOF 3
ENDMDL
