MODEL 1
REMARK VINA RESULT: -8.453412090      0.000      0.000
REMARK  3 active torsions:
REMARK  status: ('A' for Active; 'I' for Inactive)
REMARK    1  A    between atoms: C2_3  and  N2_4 
REMARK    2  A    between atoms: C4_6  and  C5_7 
REMARK    3  A    between atoms: C6_10  and  N4_11 
ROOT
HETATM    1  N1  UNL     1      -5.220 -28.307  20.474  1.00  0.00    -0.196 NA
HETATM    2  C1  UNL     1      -6.214 -27.792  20.297  1.00  0.00     0.079 C 
HETATM    3  C2  UNL     1      -7.446 -27.106  20.068  1.00  0.00     0.252 C 
ENDROOT
BRANCH   3   4
HETATM    4  N2  UNL     1      -8.302 -27.747  19.057  1.00  0.00    -0.343 N 
HETATM    5  C3  UNL     1      -8.798 -29.023  19.108  1.00  0.00     0.102 A 
HETATM    6  C4  UNL     1      -9.536 -29.284  17.984  1.00  0.00    -0.005 A 
HETATM    7  C11 UNL     1      -9.482 -28.125  17.242  1.00  0.00     0.001 A 
HETATM    8  C12 UNL     1     -10.101 -27.819  16.044  1.00  0.00     0.014 A 
HETATM    9  C16 UNL     1      -8.711 -27.168  17.912  1.00  0.00     0.046 A 
HETATM   10  C13 UNL     1      -9.995 -26.574  15.470  1.00  0.00     0.001 A 
HETATM   11  C14 UNL     1      -9.219 -25.618  16.152  1.00  0.00     0.002 A 
HETATM   12  C15 UNL     1      -8.604 -25.922  17.330  1.00  0.00     0.030 A 
BRANCH   6  13
HETATM   13  C5  UNL     1     -10.074 -30.641  17.551  1.00  0.00     0.160 C 
HETATM   14  N3  UNL     1      -9.951 -31.422  18.819  1.00  0.00    -0.215 N 
HETATM   15  C6  UNL     1     -10.800 -32.010  19.470  1.00  0.00     0.689 C 
ATOM     16  H3  UNL     1      -9.006 -31.471  19.201  1.00  0.00     0.178 HD
HETATM   17  N6  UNL     1     -12.181 -32.057  19.038  1.00  0.00    -0.179 N 
HETATM   18  C8  UNL     1     -12.479 -31.393  17.835  1.00  0.00     0.111 C 
ATOM     19  H6  UNL     1     -12.898 -32.543  19.576  1.00  0.00     0.185 HD
HETATM   20  N7  UNL     1     -13.625 -31.567  17.278  1.00  0.00    -0.387 N 
HETATM   21  C9  UNL     1     -11.530 -30.507  17.212  1.00  0.00     0.188 C 
ATOM     22  H72 UNL     1     -14.298 -32.195  17.718  1.00  0.00     0.157 HD
ATOM     23  H71 UNL     1     -13.841 -31.086  16.405  1.00  0.00     0.157 HD
HETATM   24  C10 UNL     1     -11.623 -30.809  15.716  1.00  0.00     0.074 C 
HETATM   25  N8  UNL     1     -11.680 -31.033  14.558  1.00  0.00    -0.196 NA
BRANCH  15  26
HETATM   26  N4  UNL     1     -10.459 -32.713  20.694  1.00  0.00    -0.126 N 
HETATM   27  C7  UNL     1     -10.012 -31.998  21.797  1.00  0.00     0.196 C 
HETATM   28  N5  UNL     1      -9.660 -31.382  22.737  1.00  0.00    -0.171 NA
ATOM     29  H4  UNL     1     -10.548 -33.728  20.743  1.00  0.00     0.197 HD
ENDBRANCH  15  26
ENDBRANCH   6  13
ENDBRANCH   3   4
TORSDOF 3
ENDMDL
MODEL 2
REMARK VINA RESULT: -8.375351608      1.806      3.206
REMARK  3 active torsions:
REMARK  status: ('A' for Active; 'I' for Inactive)
REMARK    1  A    between atoms: C2_3  and  N2_4 
REMARK    2  A    between atoms: C4_6  and  C5_7 
REMARK    3  A    between atoms: C6_10  and  N4_11 
ROOT
HETATM    1  N1  UNL     1      -5.139 -28.399  20.327  1.00  0.00    -0.196 NA
HETATM    2  C1  UNL     1      -6.196 -27.990  20.335  1.00  0.00     0.079 C 
HETATM    3  C2  UNL     1      -7.512 -27.435  20.348  1.00  0.00     0.252 C 
ENDROOT
BRANCH   3   4
HETATM    4  N2  UNL     1      -8.368 -27.913  19.251  1.00  0.00    -0.343 N 
HETATM    5  C3  UNL     1      -8.944 -29.152  19.155  1.00  0.00     0.102 A 
HETATM    6  C4  UNL     1      -9.655 -29.249  17.988  1.00  0.00    -0.005 A 
HETATM    7  C11 UNL     1      -9.500 -28.027  17.371  1.00  0.00     0.001 A 
HETATM    8  C12 UNL     1     -10.054 -27.562  16.192  1.00  0.00     0.014 A 
HETATM    9  C16 UNL     1      -8.697 -27.196  18.159  1.00  0.00     0.046 A 
HETATM   10  C13 UNL     1      -9.848 -26.275  15.752  1.00  0.00     0.001 A 
HETATM   11  C14 UNL     1      -9.040 -25.447  16.553  1.00  0.00     0.002 A 
HETATM   12  C15 UNL     1      -8.490 -25.908  17.712  1.00  0.00     0.030 A 
BRANCH   6  13
HETATM   13  C5  UNL     1     -10.261 -30.516  17.401  1.00  0.00     0.160 C 
HETATM   14  N3  UNL     1      -9.053 -31.173  16.816  1.00  0.00    -0.215 N 
HETATM   15  C6  UNL     1      -8.569 -32.273  17.032  1.00  0.00     0.689 C 
ATOM     16  H3  UNL     1      -8.553 -30.614  16.125  1.00  0.00     0.178 HD
HETATM   17  N6  UNL     1      -9.183 -33.195  17.965  1.00  0.00    -0.179 N 
HETATM   18  C8  UNL     1     -10.359 -32.751  18.594  1.00  0.00     0.111 C 
ATOM     19  H6  UNL     1      -8.785 -34.115  18.155  1.00  0.00     0.185 HD
HETATM   20  N7  UNL     1     -11.076 -33.583  19.265  1.00  0.00    -0.387 N 
HETATM   21  C9  UNL     1     -10.779 -31.376  18.517  1.00  0.00     0.188 C 
ATOM     22  H72 UNL     1     -10.779 -34.558  19.320  1.00  0.00     0.157 HD
ATOM     23  H71 UNL     1     -11.929 -33.261  19.721  1.00  0.00     0.157 HD
HETATM   24  C10 UNL     1     -12.292 -31.431  18.310  1.00  0.00     0.074 C 
HETATM   25  N8  UNL     1     -13.462 -31.456  18.147  1.00  0.00    -0.196 NA
BRANCH  15  26
HETATM   26  N4  UNL     1      -7.369 -32.718  16.345  1.00  0.00    -0.126 N 
HETATM   27  C7  UNL     1      -7.267 -32.566  14.969  1.00  0.00     0.196 C 
HETATM   28  N5  UNL     1      -7.176 -32.408  13.805  1.00  0.00    -0.171 NA
ATOM     29  H4  UNL     1      -6.605 -33.140  16.872  1.00  0.00     0.197 HD
ENDBRANCH  15  26
ENDBRANCH   6  13
ENDBRANCH   3   4
TORSDOF 3
ENDMDL
MODEL 3
REMARK VINA RESULT: -8.267268830      1.602      2.062
REMARK  3 active torsions:
REMARK  status: ('A' for Active; 'I' for Inactive)
REMARK    1  A    between atoms: C2_3  and  N2_4 
REMARK    2  A    between atoms: C4_6  and  C5_7 
REMARK    3  A    between atoms: C6_10  and  N4_11 
ROOT
HETATM    1  N1  UNL     1      -5.146 -28.312  20.409  1.00  0.00    -0.196 NA
HETATM    2  C1  UNL     1      -6.203 -27.902  20.386  1.00  0.00     0.079 C 
HETATM    3  C2  UNL     1      -7.519 -27.347  20.361  1.00  0.00     0.252 C 
ENDROOT
BRANCH   3   4
HETATM    4  N2  UNL     1      -8.343 -27.827  19.241  1.00  0.00    -0.343 N 
HETATM    5  C3  UNL     1      -8.893 -29.076  19.118  1.00  0.00     0.102 A 
HETATM    6  C4  UNL     1      -9.578 -29.171  17.935  1.00  0.00    -0.005 A 
HETATM    7  C11 UNL     1      -9.435 -27.938  17.337  1.00  0.00     0.001 A 
HETATM    8  C12 UNL     1      -9.974 -27.468  16.154  1.00  0.00     0.014 A 
HETATM    9  C16 UNL     1      -8.664 -27.102  18.152  1.00  0.00     0.046 A 
HETATM   10  C13 UNL     1      -9.784 -26.172  15.734  1.00  0.00     0.001 A 
HETATM   11  C14 UNL     1      -9.009 -25.339  16.562  1.00  0.00     0.002 A 
HETATM   12  C15 UNL     1      -8.473 -25.804  17.726  1.00  0.00     0.030 A 
BRANCH   6  13
HETATM   13  C5  UNL     1     -10.147 -30.442  17.320  1.00  0.00     0.160 C 
HETATM   14  N3  UNL     1      -9.123 -31.449  17.731  1.00  0.00    -0.215 N 
HETATM   15  C6  UNL     1      -9.241 -32.476  18.380  1.00  0.00     0.689 C 
ATOM     16  H3  UNL     1      -8.173 -31.246  17.419  1.00  0.00     0.178 HD
HETATM   17  N6  UNL     1     -10.533 -32.915  18.866  1.00  0.00    -0.179 N 
HETATM   18  C8  UNL     1     -11.629 -32.095  18.544  1.00  0.00     0.111 C 
ATOM     19  H6  UNL     1     -10.641 -33.770  19.412  1.00  0.00     0.185 HD
HETATM   20  N7  UNL     1     -12.825 -32.522  18.751  1.00  0.00    -0.387 N 
HETATM   21  C9  UNL     1     -11.444 -30.777  17.996  1.00  0.00     0.188 C 
ATOM     22  H72 UNL     1     -12.956 -33.455  19.139  1.00  0.00     0.157 HD
ATOM     23  H71 UNL     1     -13.620 -31.927  18.517  1.00  0.00     0.157 HD
HETATM   24  C10 UNL     1     -12.509 -30.645  16.907  1.00  0.00     0.074 C 
HETATM   25  N8  UNL     1     -13.324 -30.528  16.060  1.00  0.00    -0.196 NA
BRANCH  15  26
HETATM   26  N4  UNL     1      -8.095 -33.320  18.673  1.00  0.00    -0.126 N 
HETATM   27  C7  UNL     1      -8.105 -34.653  18.285  1.00  0.00     0.196 C 
HETATM   28  N5  UNL     1      -8.108 -35.775  17.927  1.00  0.00    -0.171 NA
ATOM     29  H4  UNL     1      -7.287 -32.934  19.162  1.00  0.00     0.197 HD
ENDBRANCH  15  26
ENDBRANCH   6  13
ENDBRANCH   3   4
TORSDOF 3
ENDMDL
MODEL 4
REMARK VINA RESULT: -7.950006786      1.749      2.398
REMARK  3 active torsions:
REMARK  status: ('A' for Active; 'I' for Inactive)
REMARK    1  A    between atoms: C2_3  and  N2_4 
REMARK    2  A    between atoms: C4_6  and  C5_7 
REMARK    3  A    between atoms: C6_10  and  N4_11 
ROOT
HETATM    1  N1  UNL     1      -9.118 -24.635  19.155  1.00  0.00    -0.196 NA
HETATM    2  C1  UNL     1      -8.442 -25.544  19.100  1.00  0.00     0.079 C 
HETATM    3  C2  UNL     1      -7.578 -26.681  19.070  1.00  0.00     0.252 C 
ENDROOT
BRANCH   3   4
HETATM    4  N2  UNL     1      -8.237 -27.914  18.612  1.00  0.00    -0.343 N 
HETATM    5  C3  UNL     1      -8.428 -29.052  19.351  1.00  0.00     0.102 A 
HETATM    6  C4  UNL     1      -9.057 -30.003  18.591  1.00  0.00    -0.005 A 
HETATM    7  C11 UNL     1      -9.250 -29.411  17.361  1.00  0.00     0.001 A 
HETATM    8  C12 UNL     1      -9.890 -29.905  16.240  1.00  0.00     0.014 A 
HETATM    9  C16 UNL     1      -8.737 -28.109  17.377  1.00  0.00     0.046 A 
HETATM   10  C13 UNL     1     -10.056 -29.144  15.106  1.00  0.00     0.001 A 
HETATM   11  C14 UNL     1      -9.539 -27.836  15.132  1.00  0.00     0.002 A 
HETATM   12  C15 UNL     1      -8.902 -27.352  16.236  1.00  0.00     0.030 A 
BRANCH   6  13
HETATM   13  C5  UNL     1      -9.258 -31.466  18.960  1.00  0.00     0.160 C 
HETATM   14  N3  UNL     1      -9.279 -31.391  20.452  1.00  0.00    -0.215 N 
HETATM   15  C6  UNL     1     -10.137 -31.737  21.248  1.00  0.00     0.689 C 
ATOM     16  H3  UNL     1      -8.443 -30.985  20.872  1.00  0.00     0.178 HD
HETATM   17  N6  UNL     1     -11.368 -32.358  20.805  1.00  0.00    -0.179 N 
HETATM   18  C8  UNL     1     -11.509 -32.539  19.418  1.00  0.00     0.111 C 
ATOM     19  H6  UNL     1     -12.092 -32.648  21.463  1.00  0.00     0.185 HD
HETATM   20  N7  UNL     1     -12.466 -33.270  18.965  1.00  0.00    -0.387 N 
HETATM   21  C9  UNL     1     -10.610 -31.912  18.485  1.00  0.00     0.188 C 
ATOM     22  H72 UNL     1     -13.103 -33.715  19.626  1.00  0.00     0.157 HD
ATOM     23  H71 UNL     1     -12.567 -33.401  17.959  1.00  0.00     0.157 HD
HETATM   24  C10 UNL     1     -10.331 -32.975  17.422  1.00  0.00     0.074 C 
HETATM   25  N8  UNL     1     -10.103 -33.787  16.595  1.00  0.00    -0.196 NA
BRANCH  15  26
HETATM   26  N4  UNL     1      -9.953 -31.566  22.679  1.00  0.00    -0.126 N 
HETATM   27  C7  UNL     1      -9.874 -30.287  23.214  1.00  0.00     0.196 C 
HETATM   28  N5  UNL     1      -9.837 -29.199  23.665  1.00  0.00    -0.171 NA
ATOM     29  H4  UNL     1      -9.881 -32.381  23.287  1.00  0.00     0.197 HD
ENDBRANCH  15  26
ENDBRANCH   6  13
ENDBRANCH   3   4
TORSDOF 3
ENDMDL
MODEL 5
REMARK VINA RESULT: -7.849350640      7.812     11.473
REMARK  3 active torsions:
REMARK  status: ('A' for Active; 'I' for Inactive)
REMARK    1  A    between atoms: C2_3  and  N2_4 
REMARK    2  A    between atoms: C4_6  and  C5_7 
REMARK    3  A    between atoms: C6_10  and  N4_11 
ROOT
HETATM    1  N1  UNL     1      -6.898 -22.975  19.522  1.00  0.00    -0.196 NA
HETATM    2  C1  UNL     1      -7.600 -22.773  18.655  1.00  0.00     0.079 C 
HETATM    3  C2  UNL     1      -8.516 -22.508  17.592  1.00  0.00     0.252 C 
ENDROOT
BRANCH   3   4
HETATM    4  N2  UNL     1      -7.984 -21.600  16.563  1.00  0.00    -0.343 N 
HETATM    5  C3  UNL     1      -6.810 -21.758  15.874  1.00  0.00     0.102 A 
HETATM    6  C4  UNL     1      -6.628 -20.707  15.013  1.00  0.00    -0.005 A 
HETATM    7  C11 UNL     1      -7.731 -19.900  15.193  1.00  0.00     0.001 A 
HETATM    8  C12 UNL     1      -8.084 -18.737  14.535  1.00  0.00     0.014 A 
HETATM    9  C16 UNL     1      -8.574 -20.459  16.161  1.00  0.00     0.046 A 
HETATM   10  C13 UNL     1      -9.270 -18.089  14.794  1.00  0.00     0.001 A 
HETATM   11  C14 UNL     1     -10.112 -18.659  15.767  1.00  0.00     0.002 A 
HETATM   12  C15 UNL     1      -9.760 -19.803  16.420  1.00  0.00     0.030 A 
BRANCH   6  13
HETATM   13  C5  UNL     1      -5.363 -20.390  14.229  1.00  0.00     0.160 C 
HETATM   14  N3  UNL     1      -4.640 -19.500  15.188  1.00  0.00    -0.215 N 
HETATM   15  C6  UNL     1      -3.533 -19.612  15.689  1.00  0.00     0.689 C 
ATOM     16  H3  UNL     1      -5.155 -18.665  15.469  1.00  0.00     0.178 HD
HETATM   17  N6  UNL     1      -2.669 -20.729  15.364  1.00  0.00    -0.179 N 
HETATM   18  C8  UNL     1      -3.180 -21.661  14.443  1.00  0.00     0.111 C 
ATOM     19  H6  UNL     1      -1.744 -20.833  15.779  1.00  0.00     0.185 HD
HETATM   20  N7  UNL     1      -2.400 -22.554  13.943  1.00  0.00    -0.387 N 
HETATM   21  C9  UNL     1      -4.565 -21.648  14.052  1.00  0.00     0.188 C 
ATOM     22  H72 UNL     1      -1.419 -22.564  14.220  1.00  0.00     0.157 HD
ATOM     23  H71 UNL     1      -2.771 -23.230  13.275  1.00  0.00     0.157 HD
HETATM   24  C10 UNL     1      -4.558 -21.910  12.546  1.00  0.00     0.074 C 
HETATM   25  N8  UNL     1      -4.569 -22.107  11.382  1.00  0.00    -0.196 NA
BRANCH  15  26
HETATM   26  N4  UNL     1      -3.019 -18.618  16.615  1.00  0.00    -0.126 N 
HETATM   27  C7  UNL     1      -1.930 -17.837  16.251  1.00  0.00     0.196 C 
HETATM   28  N5  UNL     1      -1.024 -17.159  15.925  1.00  0.00    -0.171 NA
ATOM     29  H4  UNL     1      -3.456 -18.494  17.528  1.00  0.00     0.197 HD
ENDBRANCH  15  26
ENDBRANCH   6  13
ENDBRANCH   3   4
TORSDOF 3
ENDMDL
