MODEL 1
REMARK VINA RESULT: -7.082306546      0.000      0.000
REMARK  5 active torsions:
REMARK  status: ('A' for Active; 'I' for Inactive)
REMARK    1  A    between atoms: O1_1  and  C1_3 
REMARK    2  A    between atoms: C3_6  and  N1_7 
REMARK    3  A    between atoms: N1_7  and  N2_9 
REMARK    4  A    between atoms: N2_9  and  C4_11 
REMARK    5  A    between atoms: N6_21  and  C7_22 
ROOT
HETATM    1  N1  UNL     1     -10.691 -30.291  17.908  1.00  0.00    -0.278 N 
ATOM      2  H1  UNL     1     -11.319 -29.592  18.302  1.00  0.00     0.189 HD
ENDROOT
BRANCH   1   3
HETATM    3  C3  UNL     1     -10.749 -30.617  16.626  1.00  0.00     0.172 A 
HETATM    4  S1  UNL     1     -11.528 -31.951  15.898  1.00  0.00    -0.060 SA
HETATM    5  C2  UNL     1     -11.113 -31.614  14.280  1.00  0.00     0.109 A 
HETATM    6  C1  UNL     1     -10.381 -30.465  14.395  1.00  0.00     0.155 A 
HETATM    7  N6  UNL     1     -10.203 -29.967  15.599  1.00  0.00    -0.271 N 
BRANCH   6   8
HETATM    8  O1  UNL     1      -9.854 -29.878  13.192  1.00  0.00    -0.345 OA
ATOM      9  H1  UNL     1      -8.916 -29.737  13.140  1.00  0.00     0.219 HD
ENDBRANCH   6   8
BRANCH   7  10
HETATM   10  C7  UNL     1      -9.439 -28.744  15.852  1.00  0.00     0.043 A 
HETATM   11  C8  UNL     1     -10.084 -27.522  15.776  1.00  0.00     0.030 A 
HETATM   12  C9  UNL     1      -9.411 -26.332  16.007  1.00  0.00     0.002 A 
HETATM   13  C10 UNL     1      -8.070 -26.428  16.316  1.00  0.00     0.000 A 
HETATM   14  C11 UNL     1      -7.413 -27.654  16.393  1.00  0.00     0.002 A 
HETATM   15  C12 UNL     1      -8.106 -28.825  16.159  1.00  0.00     0.030 A 
ENDBRANCH   7  10
ENDBRANCH   1   3
BRANCH   1  16
HETATM   16  N2  UNL     1      -9.745 -30.935  18.699  1.00  0.00    -0.282 N 
ATOM     17  H2  UNL     1      -8.866 -31.199  18.255  1.00  0.00     0.188 HD
BRANCH  16  18
HETATM   18  C4  UNL     1      -9.886 -31.219  19.927  1.00  0.00     0.139 A 
HETATM   19  C5  UNL     1     -10.379 -32.416  20.403  1.00  0.00     0.157 A 
HETATM   20  N3  UNL     1     -10.477 -32.590  21.730  1.00  0.00    -0.306 N 
HETATM   21  N4  UNL     1     -10.126 -31.677  22.613  1.00  0.00    -0.276 N 
ATOM     22  H3  UNL     1     -10.844 -33.477  22.075  1.00  0.00     0.186 HD
HETATM   23  C6  UNL     1      -9.643 -30.503  22.169  1.00  0.00     0.192 A 
ATOM     24  H4  UNL     1     -10.219 -31.856  23.613  1.00  0.00     0.189 HD
HETATM   25  S2  UNL     1      -9.201 -29.355  23.239  1.00  0.00    -0.039 SA
HETATM   26  N5  UNL     1      -9.533 -30.298  20.840  1.00  0.00    -0.316 N 
ATOM     27  H5  UNL     1      -9.165 -29.404  20.514  1.00  0.00     0.170 HD
ENDBRANCH  16  18
ENDBRANCH   1  16
TORSDOF 5
ENDMDL
MODEL 2
REMARK VINA RESULT: -6.852573661      5.093      7.363
REMARK  5 active torsions:
REMARK  status: ('A' for Active; 'I' for Inactive)
REMARK    1  A    between atoms: O1_1  and  C1_3 
REMARK    2  A    between atoms: C3_6  and  N1_7 
REMARK    3  A    between atoms: N1_7  and  N2_9 
REMARK    4  A    between atoms: N2_9  and  C4_11 
REMARK    5  A    between atoms: N6_21  and  C7_22 
ROOT
HETATM    1  N1  UNL     1      -9.323 -25.781  18.015  1.00  0.00    -0.278 N 
ATOM      2  H1  UNL     1     -10.057 -26.123  17.396  1.00  0.00     0.189 HD
ENDROOT
BRANCH   1   3
HETATM    3  C3  UNL     1      -8.482 -26.616  18.604  1.00  0.00     0.172 A 
HETATM    4  S1  UNL     1      -7.352 -26.295  19.843  1.00  0.00    -0.060 SA
HETATM    5  C2  UNL     1      -6.714 -27.868  19.997  1.00  0.00     0.109 A 
HETATM    6  C1  UNL     1      -7.425 -28.568  19.063  1.00  0.00     0.155 A 
HETATM    7  N6  UNL     1      -8.325 -27.917  18.359  1.00  0.00    -0.271 N 
BRANCH   6   8
HETATM    8  O1  UNL     1      -7.142 -29.970  18.911  1.00  0.00    -0.345 OA
ATOM      9  H1  UNL     1      -6.413 -30.220  18.356  1.00  0.00     0.219 HD
ENDBRANCH   6   8
BRANCH   7  10
HETATM   10  C7  UNL     1      -9.149 -28.554  17.330  1.00  0.00     0.043 A 
HETATM   11  C8  UNL     1     -10.380 -29.077  17.686  1.00  0.00     0.030 A 
HETATM   12  C9  UNL     1     -11.202 -29.691  16.754  1.00  0.00     0.002 A 
HETATM   13  C10 UNL     1     -10.733 -29.753  15.457  1.00  0.00     0.000 A 
HETATM   14  C11 UNL     1      -9.495 -29.229  15.091  1.00  0.00     0.002 A 
HETATM   15  C12 UNL     1      -8.695 -28.622  16.039  1.00  0.00     0.030 A 
ENDBRANCH   7  10
ENDBRANCH   1   3
BRANCH   1  16
HETATM   16  N2  UNL     1      -9.173 -24.421  18.269  1.00  0.00    -0.282 N 
ATOM     17  H2  UNL     1      -9.483 -24.079  19.178  1.00  0.00     0.188 HD
BRANCH  16  18
HETATM   18  C4  UNL     1      -8.682 -23.574  17.465  1.00  0.00     0.139 A 
HETATM   19  C5  UNL     1      -7.772 -23.870  16.471  1.00  0.00     0.157 A 
HETATM   20  N3  UNL     1      -7.331 -22.876  15.685  1.00  0.00    -0.306 N 
HETATM   21  N4  UNL     1      -7.720 -21.623  15.806  1.00  0.00    -0.276 N 
ATOM     22  H3  UNL     1      -6.657 -23.102  14.953  1.00  0.00     0.186 HD
HETATM   23  C6  UNL     1      -8.606 -21.313  16.768  1.00  0.00     0.192 A 
ATOM     24  H4  UNL     1      -7.355 -20.902  15.183  1.00  0.00     0.189 HD
HETATM   25  S2  UNL     1      -9.104 -19.770  16.942  1.00  0.00    -0.039 SA
HETATM   26  N5  UNL     1      -9.069 -22.290  17.576  1.00  0.00    -0.316 N 
ATOM     27  H5  UNL     1      -9.740 -22.045  18.303  1.00  0.00     0.170 HD
ENDBRANCH  16  18
ENDBRANCH   1  16
TORSDOF 5
ENDMDL
MODEL 3
REMARK VINA RESULT: -6.842028227      5.047      7.315
REMARK  5 active torsions:
REMARK  status: ('A' for Active; 'I' for Inactive)
REMARK    1  A    between atoms: O1_1  and  C1_3 
REMARK    2  A    between atoms: C3_6  and  N1_7 
REMARK    3  A    between atoms: N1_7  and  N2_9 
REMARK    4  A    between atoms: N2_9  and  C4_11 
REMARK    5  A    between atoms: N6_21  and  C7_22 
ROOT
HETATM    1  N1  UNL     1      -9.525 -25.859  17.704  1.00  0.00    -0.278 N 
ATOM      2  H1  UNL     1     -10.512 -25.835  17.956  1.00  0.00     0.189 HD
ENDROOT
BRANCH   1   3
HETATM    3  C3  UNL     1      -8.673 -26.636  18.355  1.00  0.00     0.172 A 
HETATM    4  S1  UNL     1      -7.552 -26.208  19.569  1.00  0.00    -0.060 SA
HETATM    5  C2  UNL     1      -6.892 -27.756  19.839  1.00  0.00     0.109 A 
HETATM    6  C1  UNL     1      -7.590 -28.533  18.958  1.00  0.00     0.155 A 
HETATM    7  N6  UNL     1      -8.497 -27.949  18.206  1.00  0.00    -0.271 N 
BRANCH   6   8
HETATM    8  O1  UNL     1      -7.286 -29.939  18.911  1.00  0.00    -0.345 OA
ATOM      9  H1  UNL     1      -7.520 -30.470  19.663  1.00  0.00     0.219 HD
ENDBRANCH   6   8
BRANCH   7  10
HETATM   10  C7  UNL     1      -9.309 -28.672  17.225  1.00  0.00     0.043 A 
HETATM   11  C8  UNL     1      -8.844 -28.792  15.928  1.00  0.00     0.030 A 
HETATM   12  C9  UNL     1      -9.570 -29.466  14.958  1.00  0.00     0.002 A 
HETATM   13  C10 UNL     1     -10.776 -30.010  15.352  1.00  0.00     0.000 A 
HETATM   14  C11 UNL     1     -11.250 -29.894  16.657  1.00  0.00     0.002 A 
HETATM   15  C12 UNL     1     -10.507 -29.217  17.604  1.00  0.00     0.030 A 
ENDBRANCH   7  10
ENDBRANCH   1   3
BRANCH   1  16
HETATM   16  N2  UNL     1      -9.028 -25.078  16.666  1.00  0.00    -0.282 N 
ATOM     17  H2  UNL     1      -9.041 -25.481  15.729  1.00  0.00     0.188 HD
BRANCH  16  18
HETATM   18  C4  UNL     1      -8.559 -23.906  16.788  1.00  0.00     0.139 A 
HETATM   19  C5  UNL     1      -9.036 -22.958  17.669  1.00  0.00     0.157 A 
HETATM   20  N3  UNL     1      -8.448 -21.752  17.698  1.00  0.00    -0.306 N 
HETATM   21  N4  UNL     1      -7.433 -21.418  16.928  1.00  0.00    -0.276 N 
ATOM     22  H3  UNL     1      -8.807 -21.056  18.352  1.00  0.00     0.186 HD
HETATM   23  C6  UNL     1      -6.953 -22.327  16.063  1.00  0.00     0.192 A 
ATOM     24  H4  UNL     1      -7.019 -20.487  16.988  1.00  0.00     0.189 HD
HETATM   25  S2  UNL     1      -5.697 -21.940  15.097  1.00  0.00    -0.039 SA
HETATM   26  N5  UNL     1      -7.523 -23.549  16.009  1.00  0.00    -0.316 N 
ATOM     27  H5  UNL     1      -7.152 -24.232  15.348  1.00  0.00     0.170 HD
ENDBRANCH  16  18
ENDBRANCH   1  16
TORSDOF 5
ENDMDL
MODEL 4
REMARK VINA RESULT: -6.825755910      5.042      7.284
REMARK  5 active torsions:
REMARK  status: ('A' for Active; 'I' for Inactive)
REMARK    1  A    between atoms: O1_1  and  C1_3 
REMARK    2  A    between atoms: C3_6  and  N1_7 
REMARK    3  A    between atoms: N1_7  and  N2_9 
REMARK    4  A    between atoms: N2_9  and  C4_11 
REMARK    5  A    between atoms: N6_21  and  C7_22 
ROOT
HETATM    1  N1  UNL     1      -9.514 -25.872  17.705  1.00  0.00    -0.278 N 
ATOM      2  H1  UNL     1     -10.501 -25.853  17.958  1.00  0.00     0.189 HD
ENDROOT
BRANCH   1   3
HETATM    3  C3  UNL     1      -8.657 -26.646  18.352  1.00  0.00     0.172 A 
HETATM    4  S1  UNL     1      -7.553 -26.217  19.582  1.00  0.00    -0.060 SA
HETATM    5  C2  UNL     1      -6.872 -27.760  19.837  1.00  0.00     0.109 A 
HETATM    6  C1  UNL     1      -7.552 -28.534  18.939  1.00  0.00     0.155 A 
HETATM    7  N6  UNL     1      -8.460 -27.953  18.187  1.00  0.00    -0.271 N 
BRANCH   6   8
HETATM    8  O1  UNL     1      -7.226 -29.935  18.876  1.00  0.00    -0.345 OA
ATOM      9  H1  UNL     1      -7.943 -30.556  18.827  1.00  0.00     0.219 HD
ENDBRANCH   6   8
BRANCH   7  10
HETATM   10  C7  UNL     1      -9.253 -28.675  17.189  1.00  0.00     0.043 A 
HETATM   11  C8  UNL     1     -10.454 -29.246  17.572  1.00  0.00     0.030 A 
HETATM   12  C9  UNL     1     -11.245 -29.940  16.671  1.00  0.00     0.002 A 
HETATM   13  C10 UNL     1     -10.777 -30.031  15.376  1.00  0.00     0.000 A 
HETATM   14  C11 UNL     1      -9.568 -29.460  14.983  1.00  0.00     0.002 A 
HETATM   15  C12 UNL     1      -8.798 -28.773  15.901  1.00  0.00     0.030 A 
ENDBRANCH   7  10
ENDBRANCH   1   3
BRANCH   1  16
HETATM   16  N2  UNL     1      -9.024 -25.086  16.667  1.00  0.00    -0.282 N 
ATOM     17  H2  UNL     1      -9.041 -25.486  15.729  1.00  0.00     0.188 HD
BRANCH  16  18
HETATM   18  C4  UNL     1      -8.557 -23.914  16.791  1.00  0.00     0.139 A 
HETATM   19  C5  UNL     1      -9.033 -22.969  17.676  1.00  0.00     0.157 A 
HETATM   20  N3  UNL     1      -8.447 -21.762  17.707  1.00  0.00    -0.306 N 
HETATM   21  N4  UNL     1      -7.434 -21.424  16.935  1.00  0.00    -0.276 N 
ATOM     22  H3  UNL     1      -8.805 -21.068  18.363  1.00  0.00     0.186 HD
HETATM   23  C6  UNL     1      -6.956 -22.330  16.064  1.00  0.00     0.192 A 
ATOM     24  H4  UNL     1      -7.022 -20.493  16.996  1.00  0.00     0.189 HD
HETATM   25  S2  UNL     1      -5.704 -21.938  15.096  1.00  0.00    -0.039 SA
HETATM   26  N5  UNL     1      -7.524 -23.553  16.009  1.00  0.00    -0.316 N 
ATOM     27  H5  UNL     1      -7.154 -24.233  15.345  1.00  0.00     0.170 HD
ENDBRANCH  16  18
ENDBRANCH   1  16
TORSDOF 5
ENDMDL
MODEL 5
REMARK VINA RESULT: -6.789222641      2.292      4.249
REMARK  5 active torsions:
REMARK  status: ('A' for Active; 'I' for Inactive)
REMARK    1  A    between atoms: O1_1  and  C1_3 
REMARK    2  A    between atoms: C3_6  and  N1_7 
REMARK    3  A    between atoms: N1_7  and  N2_9 
REMARK    4  A    between atoms: N2_9  and  C4_11 
REMARK    5  A    between atoms: N6_21  and  C7_22 
ROOT
HETATM    1  N1  UNL     1      -8.253 -29.031  19.195  1.00  0.00    -0.278 N 
ATOM      2  H1  UNL     1      -7.556 -29.612  18.729  1.00  0.00     0.189 HD
ENDROOT
BRANCH   1   3
HETATM    3  C3  UNL     1      -8.489 -27.792  18.794  1.00  0.00     0.172 A 
HETATM    4  S1  UNL     1      -7.900 -26.329  19.449  1.00  0.00    -0.060 SA
HETATM    5  C2  UNL     1      -8.669 -25.259  18.367  1.00  0.00     0.109 A 
HETATM    6  C1  UNL     1      -9.351 -26.111  17.544  1.00  0.00     0.155 A 
HETATM    7  N6  UNL     1      -9.250 -27.401  17.772  1.00  0.00    -0.271 N 
BRANCH   6   8
HETATM    8  O1  UNL     1     -10.134 -25.537  16.481  1.00  0.00    -0.345 OA
ATOM      9  H1  UNL     1      -9.813 -25.629  15.592  1.00  0.00     0.219 HD
ENDBRANCH   6   8
BRANCH   7  10
HETATM   10  C7  UNL     1      -9.932 -28.412  16.961  1.00  0.00     0.043 A 
HETATM   11  C8  UNL     1      -9.292 -28.919  15.844  1.00  0.00     0.030 A 
HETATM   12  C9  UNL     1      -9.888 -29.878  15.040  1.00  0.00     0.002 A 
HETATM   13  C10 UNL     1     -11.149 -30.300  15.410  1.00  0.00     0.000 A 
HETATM   14  C11 UNL     1     -11.800 -29.795  16.533  1.00  0.00     0.002 A 
HETATM   15  C12 UNL     1     -11.183 -28.840  17.318  1.00  0.00     0.030 A 
ENDBRANCH   7  10
ENDBRANCH   1   3
BRANCH   1  16
HETATM   16  N2  UNL     1      -8.988 -29.516  20.272  1.00  0.00    -0.282 N 
ATOM     17  H2  UNL     1      -9.087 -28.906  21.083  1.00  0.00     0.188 HD
BRANCH  16  18
HETATM   18  C4  UNL     1      -9.544 -30.654  20.329  1.00  0.00     0.139 A 
HETATM   19  C5  UNL     1      -9.976 -31.259  21.491  1.00  0.00     0.157 A 
HETATM   20  N3  UNL     1     -10.551 -32.469  21.412  1.00  0.00    -0.306 N 
HETATM   21  N4  UNL     1     -10.730 -33.119  20.279  1.00  0.00    -0.276 N 
ATOM     22  H3  UNL     1     -10.866 -32.911  22.275  1.00  0.00     0.186 HD
HETATM   23  C6  UNL     1     -10.316 -32.546  19.135  1.00  0.00     0.192 A 
ATOM     24  H4  UNL     1     -11.173 -34.038  20.270  1.00  0.00     0.189 HD
HETATM   25  S2  UNL     1     -10.524 -33.327  17.719  1.00  0.00    -0.039 SA
HETATM   26  N5  UNL     1      -9.734 -31.330  19.182  1.00  0.00    -0.316 N 
ATOM     27  H5  UNL     1      -9.423 -30.904  18.309  1.00  0.00     0.170 HD
ENDBRANCH  16  18
ENDBRANCH   1  16
TORSDOF 5
ENDMDL
