MODEL 1
REMARK VINA RESULT: -8.322972178      0.000      0.000
REMARK  3 active torsions:
REMARK  status: ('A' for Active; 'I' for Inactive)
REMARK    1  A    between atoms: C3_3  and  C4_4 
REMARK    2  A    between atoms: C6_10  and  N3_11 
REMARK    3  A    between atoms: C7_16  and  C8_17 
ROOT
HETATM    1  C1  UNL     1      -9.665 -29.477  14.510  1.00  0.00     0.012 C 
HETATM    2  C2  UNL     1     -10.179 -29.022  15.500  1.00  0.00    -0.113 C 
HETATM    3  C3  UNL     1     -10.825 -28.484  16.721  1.00  0.00     0.138 C 
ENDROOT
BRANCH   3   4
HETATM    4  C4  UNL     1      -9.929 -28.632  17.875  1.00  0.00     0.039 A 
HETATM    5  C5  UNL     1      -9.696 -29.798  18.572  1.00  0.00     0.127 A 
HETATM    6  S1  UNL     1     -10.352 -31.257  18.279  1.00  0.00    -0.058 SA
HETATM    7  N1  UNL     1      -8.808 -29.532  19.572  1.00  0.00    -0.267 N 
HETATM    8  N2  UNL     1      -8.479 -28.250  19.526  1.00  0.00    -0.068 N 
ATOM      9  H1  UNL     1      -8.454 -30.211  20.246  1.00  0.00     0.189 HD
HETATM   10  C6  UNL     1      -7.663 -27.485  20.267  1.00  0.00     0.700 A 
HETATM   11  C14 UNL     1      -9.157 -27.680  18.490  1.00  0.00     0.157 A 
HETATM   12  N4  UNL     1      -7.533 -26.183  19.976  1.00  0.00    -0.171 N 
HETATM   13  C7  UNL     1      -8.197 -25.576  18.948  1.00  0.00     0.169 A 
ATOM     14  H4  UNL     1      -6.909 -25.617  20.551  1.00  0.00     0.186 HD
HETATM   15  N8  UNL     1      -8.999 -26.375  18.236  1.00  0.00    -0.323 N 
ATOM     16  H8  UNL     1      -9.516 -25.969  17.457  1.00  0.00     0.169 HD
BRANCH  10  17
HETATM   17  N3  UNL     1      -7.016 -28.020  21.249  1.00  0.00    -0.233 N 
ATOM     18  H32 UNL     1      -6.996 -29.031  21.381  1.00  0.00     0.174 HD
ATOM     19  H31 UNL     1      -6.516 -27.418  21.904  1.00  0.00     0.174 HD
ENDBRANCH  10  17
BRANCH  13  20
HETATM   20  C8  UNL     1      -8.021 -24.158  18.688  1.00  0.00     0.173 A 
HETATM   21  N5  UNL     1      -8.074 -23.203  19.662  1.00  0.00    -0.280 N 
HETATM   22  N6  UNL     1      -7.895 -22.015  19.138  1.00  0.00    -0.283 N 
ATOM     23  H5  UNL     1      -8.230 -23.387  20.653  1.00  0.00     0.188 HD
HETATM   24  C9  UNL     1      -7.722 -22.166  17.816  1.00  0.00     0.127 A 
ATOM     25  H6  UNL     1      -7.889 -21.131  19.645  1.00  0.00     0.188 HD
HETATM   26  C10 UNL     1      -7.505 -21.220  16.854  1.00  0.00     0.050 A 
HETATM   27  N7  UNL     1      -7.802 -23.500  17.553  1.00  0.00    -0.289 N 
HETATM   28  C11 UNL     1      -7.364 -21.677  15.545  1.00  0.00     0.005 A 
HETATM   29  C12 UNL     1      -7.448 -23.031  15.294  1.00  0.00     0.018 A 
HETATM   30  C13 UNL     1      -7.666 -23.960  16.283  1.00  0.00     0.100 A 
ENDBRANCH  13  20
ENDBRANCH   3   4
TORSDOF 3
ENDMDL
MODEL 2
REMARK VINA RESULT: -7.689893615      3.810      7.658
REMARK  3 active torsions:
REMARK  status: ('A' for Active; 'I' for Inactive)
REMARK    1  A    between atoms: C3_3  and  C4_4 
REMARK    2  A    between atoms: C6_10  and  N3_11 
REMARK    3  A    between atoms: C7_16  and  C8_17 
ROOT
HETATM    1  C1  UNL     1      -3.657 -21.647  14.276  1.00  0.00     0.012 C 
HETATM    2  C2  UNL     1      -3.923 -21.207  15.365  1.00  0.00    -0.113 C 
HETATM    3  C3  UNL     1      -4.240 -20.642  16.698  1.00  0.00     0.138 C 
ENDROOT
BRANCH   3   4
HETATM    4  C4  UNL     1      -5.644 -20.212  16.747  1.00  0.00     0.039 A 
HETATM    5  C5  UNL     1      -6.109 -18.944  16.474  1.00  0.00     0.127 A 
HETATM    6  S1  UNL     1      -5.223 -17.651  16.041  1.00  0.00    -0.058 SA
HETATM    7  N1  UNL     1      -7.465 -18.941  16.626  1.00  0.00    -0.267 N 
HETATM    8  N2  UNL     1      -7.860 -20.154  16.982  1.00  0.00    -0.068 N 
ATOM      9  H1  UNL     1      -8.075 -18.136  16.488  1.00  0.00     0.189 HD
HETATM   10  C6  UNL     1      -9.062 -20.682  17.257  1.00  0.00     0.700 A 
HETATM   11  C14 UNL     1      -6.756 -20.949  17.061  1.00  0.00     0.157 A 
HETATM   12  N4  UNL     1      -9.152 -21.974  17.604  1.00  0.00    -0.171 N 
HETATM   13  C7  UNL     1      -8.069 -22.802  17.696  1.00  0.00     0.169 A 
ATOM     14  H4  UNL     1     -10.074 -22.358  17.810  1.00  0.00     0.186 HD
HETATM   15  N8  UNL     1      -6.892 -22.234  17.412  1.00  0.00    -0.323 N 
ATOM     16  H8  UNL     1      -6.053 -22.811  17.466  1.00  0.00     0.169 HD
BRANCH  10  17
HETATM   17  N3  UNL     1     -10.113 -19.934  17.182  1.00  0.00    -0.233 N 
ATOM     18  H32 UNL     1     -10.307 -19.222  17.886  1.00  0.00     0.174 HD
ATOM     19  H31 UNL     1     -10.759 -20.058  16.402  1.00  0.00     0.174 HD
ENDBRANCH  10  17
BRANCH  13  20
HETATM   20  C8  UNL     1      -8.230 -24.191  18.085  1.00  0.00     0.173 A 
HETATM   21  N5  UNL     1      -7.788 -24.695  19.274  1.00  0.00    -0.280 N 
HETATM   22  N6  UNL     1      -8.056 -25.976  19.348  1.00  0.00    -0.283 N 
ATOM     23  H5  UNL     1      -7.317 -24.154  19.999  1.00  0.00     0.188 HD
HETATM   24  C9  UNL     1      -8.676 -26.337  18.214  1.00  0.00     0.127 A 
ATOM     25  H6  UNL     1      -7.832 -26.590  20.130  1.00  0.00     0.188 HD
HETATM   26  C10 UNL     1      -9.144 -27.563  17.832  1.00  0.00     0.050 A 
HETATM   27  N7  UNL     1      -8.778 -25.220  17.442  1.00  0.00    -0.289 N 
HETATM   28  C11 UNL     1      -9.750 -27.639  16.578  1.00  0.00     0.005 A 
HETATM   29  C12 UNL     1      -9.845 -26.499  15.808  1.00  0.00     0.018 A 
HETATM   30  C13 UNL     1      -9.365 -25.279  16.220  1.00  0.00     0.100 A 
ENDBRANCH  13  20
ENDBRANCH   3   4
TORSDOF 3
ENDMDL
MODEL 3
REMARK VINA RESULT: -7.682747637      2.961      4.781
REMARK  3 active torsions:
REMARK  status: ('A' for Active; 'I' for Inactive)
REMARK    1  A    between atoms: C3_3  and  C4_4 
REMARK    2  A    between atoms: C6_10  and  N3_11 
REMARK    3  A    between atoms: C7_16  and  C8_17 
ROOT
HETATM    1  C1  UNL     1     -13.224 -31.099  15.381  1.00  0.00     0.012 C 
HETATM    2  C2  UNL     1     -12.359 -31.890  15.658  1.00  0.00    -0.113 C 
HETATM    3  C3  UNL     1     -11.276 -32.845  15.996  1.00  0.00     0.138 C 
ENDROOT
BRANCH   3   4
HETATM    4  C4  UNL     1     -11.163 -32.989  17.453  1.00  0.00     0.039 A 
HETATM    5  C5  UNL     1     -11.620 -34.055  18.196  1.00  0.00     0.127 A 
HETATM    6  S1  UNL     1     -12.381 -35.380  17.637  1.00  0.00    -0.058 SA
HETATM    7  N1  UNL     1     -11.330 -33.821  19.508  1.00  0.00    -0.267 N 
HETATM    8  N2  UNL     1     -10.711 -32.655  19.610  1.00  0.00    -0.068 N 
ATOM      9  H1  UNL     1     -11.553 -34.444  20.284  1.00  0.00     0.189 HD
HETATM   10  C6  UNL     1     -10.222 -31.964  20.652  1.00  0.00     0.700 A 
HETATM   11  C14 UNL     1     -10.599 -32.128  18.359  1.00  0.00     0.157 A 
HETATM   12  N4  UNL     1      -9.638 -30.776  20.441  1.00  0.00    -0.171 N 
HETATM   13  C7  UNL     1      -9.508 -30.215  19.202  1.00  0.00     0.169 A 
ATOM     14  H4  UNL     1      -9.272 -30.266  21.245  1.00  0.00     0.186 HD
HETATM   15  N8  UNL     1     -10.008 -30.938  18.194  1.00  0.00    -0.323 N 
ATOM     16  H8  UNL     1      -9.935 -30.562  17.248  1.00  0.00     0.169 HD
BRANCH  10  17
HETATM   17  N3  UNL     1     -10.324 -32.459  21.841  1.00  0.00    -0.233 N 
ATOM     18  H32 UNL     1     -11.152 -32.980  22.128  1.00  0.00     0.174 HD
ATOM     19  H31 UNL     1      -9.559 -32.326  22.504  1.00  0.00     0.174 HD
ENDBRANCH  10  17
BRANCH  13  20
HETATM   20  C8  UNL     1      -8.871 -28.920  19.039  1.00  0.00     0.173 A 
HETATM   21  N5  UNL     1      -7.711 -28.569  19.666  1.00  0.00    -0.280 N 
HETATM   22  N6  UNL     1      -7.380 -27.343  19.345  1.00  0.00    -0.283 N 
ATOM     23  H5  UNL     1      -7.180 -29.173  20.294  1.00  0.00     0.188 HD
HETATM   24  C9  UNL     1      -8.310 -26.866  18.504  1.00  0.00     0.127 A 
ATOM     25  H6  UNL     1      -6.558 -26.838  19.676  1.00  0.00     0.188 HD
HETATM   26  C10 UNL     1      -8.396 -25.641  17.905  1.00  0.00     0.050 A 
HETATM   27  N7  UNL     1      -9.228 -27.857  18.323  1.00  0.00    -0.289 N 
HETATM   28  C11 UNL     1      -9.493 -25.426  17.072  1.00  0.00     0.005 A 
HETATM   29  C12 UNL     1     -10.413 -26.438  16.899  1.00  0.00     0.018 A 
HETATM   30  C13 UNL     1     -10.301 -27.661  17.516  1.00  0.00     0.100 A 
ENDBRANCH  13  20
ENDBRANCH   3   4
TORSDOF 3
ENDMDL
MODEL 4
REMARK VINA RESULT: -7.645610553      4.138      7.789
REMARK  3 active torsions:
REMARK  status: ('A' for Active; 'I' for Inactive)
REMARK    1  A    between atoms: C3_3  and  C4_4 
REMARK    2  A    between atoms: C6_10  and  N3_11 
REMARK    3  A    between atoms: C7_16  and  C8_17 
ROOT
HETATM    1  C1  UNL     1     -11.857 -18.674  14.218  1.00  0.00     0.012 C 
HETATM    2  C2  UNL     1     -11.011 -18.805  15.065  1.00  0.00    -0.113 C 
HETATM    3  C3  UNL     1      -9.980 -18.991  16.115  1.00  0.00     0.138 C 
ENDROOT
BRANCH   3   4
HETATM    4  C4  UNL     1      -8.735 -19.494  15.520  1.00  0.00     0.039 A 
HETATM    5  C5  UNL     1      -7.928 -18.809  14.638  1.00  0.00     0.127 A 
HETATM    6  S1  UNL     1      -8.165 -17.306  14.063  1.00  0.00    -0.058 SA
HETATM    7  N1  UNL     1      -6.870 -19.606  14.314  1.00  0.00    -0.267 N 
HETATM    8  N2  UNL     1      -6.987 -20.758  14.957  1.00  0.00    -0.068 N 
ATOM      9  H1  UNL     1      -6.112 -19.356  13.680  1.00  0.00     0.189 HD
HETATM   10  C6  UNL     1      -6.237 -21.870  14.990  1.00  0.00     0.700 A 
HETATM   11  C14 UNL     1      -8.126 -20.708  15.703  1.00  0.00     0.157 A 
HETATM   12  N4  UNL     1      -6.622 -22.904  15.751  1.00  0.00    -0.171 N 
HETATM   13  C7  UNL     1      -7.758 -22.893  16.511  1.00  0.00     0.169 A 
ATOM     14  H4  UNL     1      -6.040 -23.741  15.764  1.00  0.00     0.186 HD
HETATM   15  N8  UNL     1      -8.474 -21.765  16.449  1.00  0.00    -0.323 N 
ATOM     16  H8  UNL     1      -9.331 -21.707  16.999  1.00  0.00     0.169 HD
BRANCH  10  17
HETATM   17  N3  UNL     1      -5.155 -21.923  14.287  1.00  0.00    -0.233 N 
ATOM     18  H32 UNL     1      -4.631 -21.078  14.056  1.00  0.00     0.174 HD
ATOM     19  H31 UNL     1      -4.818 -22.828  13.956  1.00  0.00     0.174 HD
ENDBRANCH  10  17
BRANCH  13  20
HETATM   20  C8  UNL     1      -8.127 -24.048  17.309  1.00  0.00     0.173 A 
HETATM   21  N5  UNL     1      -7.818 -24.176  18.633  1.00  0.00    -0.280 N 
HETATM   22  N6  UNL     1      -8.262 -25.322  19.089  1.00  0.00    -0.283 N 
ATOM     23  H5  UNL     1      -7.316 -23.482  19.186  1.00  0.00     0.188 HD
HETATM   24  C9  UNL     1      -8.867 -25.966  18.080  1.00  0.00     0.127 A 
ATOM     25  H6  UNL     1      -8.164 -25.664  20.045  1.00  0.00     0.188 HD
HETATM   26  C10 UNL     1      -9.478 -27.188  18.070  1.00  0.00     0.050 A 
HETATM   27  N7  UNL     1      -8.776 -25.163  16.984  1.00  0.00    -0.289 N 
HETATM   28  C11 UNL     1     -10.023 -27.607  16.858  1.00  0.00     0.005 A 
HETATM   29  C12 UNL     1      -9.922 -26.783  15.756  1.00  0.00     0.018 A 
HETATM   30  C13 UNL     1      -9.303 -25.557  15.796  1.00  0.00     0.100 A 
ENDBRANCH  13  20
ENDBRANCH   3   4
TORSDOF 3
ENDMDL
MODEL 5
REMARK VINA RESULT: -7.632081492      2.822      7.046
REMARK  3 active torsions:
REMARK  status: ('A' for Active; 'I' for Inactive)
REMARK    1  A    between atoms: C3_3  and  C4_4 
REMARK    2  A    between atoms: C6_10  and  N3_11 
REMARK    3  A    between atoms: C7_16  and  C8_17 
ROOT
HETATM    1  C1  UNL     1      -9.571 -29.218  14.847  1.00  0.00     0.012 C 
HETATM    2  C2  UNL     1      -9.762 -28.160  15.389  1.00  0.00    -0.113 C 
HETATM    3  C3  UNL     1     -10.019 -26.867  16.066  1.00  0.00     0.138 C 
ENDROOT
BRANCH   3   4
HETATM    4  C4  UNL     1      -9.223 -26.771  17.297  1.00  0.00     0.039 A 
HETATM    5  C5  UNL     1      -8.477 -25.684  17.693  1.00  0.00     0.127 A 
HETATM    6  S1  UNL     1      -8.309 -24.274  16.899  1.00  0.00    -0.058 SA
HETATM    7  N1  UNL     1      -7.885 -25.978  18.886  1.00  0.00    -0.267 N 
HETATM    8  N2  UNL     1      -8.232 -27.204  19.247  1.00  0.00    -0.068 N 
ATOM      9  H1  UNL     1      -7.274 -25.356  19.414  1.00  0.00     0.189 HD
HETATM   10  C6  UNL     1      -7.933 -27.967  20.309  1.00  0.00     0.700 A 
HETATM   11  C14 UNL     1      -9.054 -27.708  18.284  1.00  0.00     0.157 A 
HETATM   12  N4  UNL     1      -8.444 -29.203  20.400  1.00  0.00    -0.171 N 
HETATM   13  C7  UNL     1      -9.269 -29.743  19.455  1.00  0.00     0.169 A 
ATOM     14  H4  UNL     1      -8.205 -29.768  21.215  1.00  0.00     0.186 HD
HETATM   15  N8  UNL     1      -9.542 -28.948  18.415  1.00  0.00    -0.323 N 
ATOM     16  H8  UNL     1     -10.155 -29.306  17.682  1.00  0.00     0.169 HD
BRANCH  10  17
HETATM   17  N3  UNL     1      -7.155 -27.494  21.226  1.00  0.00    -0.233 N 
ATOM     18  H32 UNL     1      -7.459 -27.432  22.198  1.00  0.00     0.174 HD
ATOM     19  H31 UNL     1      -6.219 -27.178  20.972  1.00  0.00     0.174 HD
ENDBRANCH  10  17
BRANCH  13  20
HETATM   20  C8  UNL     1      -9.785 -31.092  19.606  1.00  0.00     0.173 A 
HETATM   21  N5  UNL     1     -10.031 -31.671  20.818  1.00  0.00    -0.280 N 
HETATM   22  N6  UNL     1     -10.477 -32.892  20.651  1.00  0.00    -0.283 N 
ATOM     23  H5  UNL     1      -9.888 -31.219  21.721  1.00  0.00     0.188 HD
HETATM   24  C9  UNL     1     -10.533 -33.138  19.334  1.00  0.00     0.127 A 
ATOM     25  H6  UNL     1     -10.735 -33.542  21.393  1.00  0.00     0.188 HD
HETATM   26  C10 UNL     1     -10.929 -34.268  18.676  1.00  0.00     0.050 A 
HETATM   27  N7  UNL     1     -10.102 -32.013  18.700  1.00  0.00    -0.289 N 
HETATM   28  C11 UNL     1     -10.877 -34.235  17.284  1.00  0.00     0.005 A 
HETATM   29  C12 UNL     1     -10.438 -33.088  16.656  1.00  0.00     0.018 A 
HETATM   30  C13 UNL     1     -10.045 -31.965  17.344  1.00  0.00     0.100 A 
ENDBRANCH  13  20
ENDBRANCH   3   4
TORSDOF 3
ENDMDL
