MODEL 1
REMARK VINA RESULT: -7.766313224      0.000      0.000
REMARK  14 active torsions:
REMARK  status: ('A' for Active; 'I' for Inactive)
REMARK    1  A    between atoms: C2_2  and  C3_3 
REMARK    2  A    between atoms: C2_2  and  N6_32 
REMARK    3  A    between atoms: C3_3  and  C4_4 
REMARK    4  A    between atoms: C4_4  and  N1_5 
REMARK    5  A    between atoms: N2_8  and  C7_9 
REMARK    6  A    between atoms: C7_9  and  O1_10 
REMARK    7  A    between atoms: C7_9  and  C8_12 
REMARK    8  A    between atoms: C8_12  and  C9_13 
REMARK    9  A    between atoms: C9_13  and  N3_14 
REMARK   10  A    between atoms: N3_14  and  C10_16 
REMARK   11  A    between atoms: C10_16  and  O2_17 
REMARK   12  A    between atoms: C10_16  and  N4_19 
REMARK   13  A    between atoms: N4_19  and  C11_21 
REMARK       I    between atoms: N5_24  and  C14_25 
REMARK       I    between atoms: N6_32  and  C20_33 
REMARK   14  A    between atoms: C20_33  and  C21_35 
ROOT
HETATM    1  C7  UNL     1       5.339   5.007  21.844  1.00  0.00     0.115 C 
ENDROOT
BRANCH   1   2
HETATM    2  N2  UNL     1       5.540   4.170  20.767  1.00  0.00    -0.356 N 
HETATM    3  C6  UNL     1       4.629   3.930  19.705  1.00  0.00     0.169 C 
HETATM    4  C5  UNL     1       4.741   2.502  19.125  1.00  0.00     0.083 C 
HETATM    5  N1  UNL     1       5.785   1.728  19.588  1.00  0.00    -0.370 N 
HETATM    6  C19 UNL     1       6.463   2.027  20.786  1.00  0.00     0.083 C 
HETATM    7  C18 UNL     1       6.862   3.495  20.700  1.00  0.00     0.169 C 
BRANCH   5   8
HETATM    8  C4  UNL     1       6.573   0.896  18.755  1.00  0.00     0.134 C 
BRANCH   8   9
HETATM    9  C3  UNL     1       8.012   0.735  19.086  1.00  0.00     0.092 C 
BRANCH   9  10
HETATM   10  C2  UNL     1       8.724  -0.164  18.123  1.00  0.00     0.080 C 
HETATM   11  C1  UNL     1      10.070  -0.164  18.304  1.00  0.00     0.054 C 
BRANCH  10  12
HETATM   12  N6  UNL     1       8.244  -0.981  17.152  1.00  0.00    -0.376 NA
HETATM   13  C20 UNL     1       7.759  -1.800  16.181  1.00  0.00     0.291 C 
HETATM   14  O4  UNL     1       6.523  -1.987  15.939  1.00  0.00    -0.257 OA
BRANCH  13  15
HETATM   15  C21 UNL     1       8.682  -2.587  15.270  1.00  0.00     0.115 C 
HETATM   16  C22 UNL     1       9.750  -3.200  16.189  1.00  0.00     0.016 C 
ENDBRANCH  13  15
ENDBRANCH  10  12
ENDBRANCH   9  10
ENDBRANCH   8   9
ENDBRANCH   5   8
ENDBRANCH   1   2
BRANCH   1  17
HETATM   17  O1  UNL     1       4.845   4.514  22.959  1.00  0.00    -0.349 OA
ATOM     18  H1  UNL     1       4.892   5.029  23.756  1.00  0.00     0.219 HD
ENDBRANCH   1  17
BRANCH   1  19
HETATM   19  C8  UNL     1       5.608   6.467  22.013  1.00  0.00     0.103 C 
BRANCH  19  20
HETATM   20  C9  UNL     1       6.093   7.035  20.720  1.00  0.00     0.131 C 
BRANCH  20  21
HETATM   21  N3  UNL     1       7.544   6.950  20.659  1.00  0.00    -0.356 N 
ATOM     22  H3  UNL     1       8.005   6.104  20.326  1.00  0.00     0.163 HD
BRANCH  21  23
HETATM   23  C10 UNL     1       8.294   8.070  21.072  1.00  0.00     0.212 C 
BRANCH  23  24
HETATM   24  O2  UNL     1       9.179   8.510  20.215  1.00  0.00    -0.333 OA
ATOM     25  H2  UNL     1       9.818   9.124  20.559  1.00  0.00     0.220 HD
ENDBRANCH  23  24
BRANCH  23  26
HETATM   26  N4  UNL     1       8.209   8.757  22.269  1.00  0.00    -0.352 N 
ATOM     27  H4  UNL     1       7.611   9.581  22.327  1.00  0.00     0.163 HD
BRANCH  26  28
HETATM   28  C11 UNL     1       8.958   8.333  23.458  1.00  0.00     0.088 C 
HETATM   29  C12 UNL     1       7.969   8.409  24.595  1.00  0.00     0.045 C 
HETATM   30  C13 UNL     1       8.566   8.254  25.944  1.00  0.00     0.127 C 
HETATM   31  N5  UNL     1      10.028   8.399  25.884  1.00  0.00    -0.352 N 
HETATM   32  C14 UNL     1      10.892   7.533  26.568  1.00  0.00     0.215 C 
HETATM   33  C16 UNL     1      10.476   9.516  25.045  1.00  0.00     0.127 C 
HETATM   34  C15 UNL     1      10.411   6.432  27.371  1.00  0.00     0.117 C 
HETATM   35  O3  UNL     1      12.129   7.711  26.484  1.00  0.00    -0.274 OA
HETATM   36  C17 UNL     1      10.157   9.191  23.623  1.00  0.00     0.045 C 
ENDBRANCH  26  28
ENDBRANCH  23  26
ENDBRANCH  21  23
ENDBRANCH  20  21
ENDBRANCH  19  20
ENDBRANCH   1  19
TORSDOF 14
ENDMDL
MODEL 2
REMARK VINA RESULT: -7.737972230      1.733      2.456
REMARK  14 active torsions:
REMARK  status: ('A' for Active; 'I' for Inactive)
REMARK    1  A    between atoms: C2_2  and  C3_3 
REMARK    2  A    between atoms: C2_2  and  N6_32 
REMARK    3  A    between atoms: C3_3  and  C4_4 
REMARK    4  A    between atoms: C4_4  and  N1_5 
REMARK    5  A    between atoms: N2_8  and  C7_9 
REMARK    6  A    between atoms: C7_9  and  O1_10 
REMARK    7  A    between atoms: C7_9  and  C8_12 
REMARK    8  A    between atoms: C8_12  and  C9_13 
REMARK    9  A    between atoms: C9_13  and  N3_14 
REMARK   10  A    between atoms: N3_14  and  C10_16 
REMARK   11  A    between atoms: C10_16  and  O2_17 
REMARK   12  A    between atoms: C10_16  and  N4_19 
REMARK   13  A    between atoms: N4_19  and  C11_21 
REMARK       I    between atoms: N5_24  and  C14_25 
REMARK       I    between atoms: N6_32  and  C20_33 
REMARK   14  A    between atoms: C20_33  and  C21_35 
ROOT
HETATM    1  C7  UNL     1       6.273   6.008  21.606  1.00  0.00     0.115 C 
ENDROOT
BRANCH   1   2
HETATM    2  N2  UNL     1       5.537   4.974  21.067  1.00  0.00    -0.356 N 
HETATM    3  C6  UNL     1       4.180   5.032  20.654  1.00  0.00     0.169 C 
HETATM    4  C5  UNL     1       3.440   3.687  20.828  1.00  0.00     0.083 C 
HETATM    5  N1  UNL     1       4.209   2.601  21.194  1.00  0.00    -0.370 N 
HETATM    6  C19 UNL     1       5.485   2.750  21.772  1.00  0.00     0.083 C 
HETATM    7  C18 UNL     1       6.261   3.693  20.861  1.00  0.00     0.169 C 
BRANCH   5   8
HETATM    8  C4  UNL     1       4.053   1.307  20.639  1.00  0.00     0.134 C 
BRANCH   8   9
HETATM    9  C3  UNL     1       3.691   1.200  19.202  1.00  0.00     0.092 C 
BRANCH   9  10
HETATM   10  C2  UNL     1       4.853   1.477  18.298  1.00  0.00     0.080 C 
HETATM   11  C1  UNL     1       4.623   2.517  17.455  1.00  0.00     0.054 C 
BRANCH  10  12
HETATM   12  N6  UNL     1       6.074   0.891  18.218  1.00  0.00    -0.376 NA
HETATM   13  C20 UNL     1       7.296   0.301  18.135  1.00  0.00     0.291 C 
HETATM   14  O4  UNL     1       7.598  -0.634  17.325  1.00  0.00    -0.257 OA
BRANCH  13  15
HETATM   15  C21 UNL     1       8.444   0.723  19.032  1.00  0.00     0.115 C 
HETATM   16  C22 UNL     1       9.696   0.050  18.449  1.00  0.00     0.016 C 
ENDBRANCH  13  15
ENDBRANCH  10  12
ENDBRANCH   9  10
ENDBRANCH   8   9
ENDBRANCH   5   8
ENDBRANCH   1   2
BRANCH   1  17
HETATM   17  O1  UNL     1       7.493   5.775  22.037  1.00  0.00    -0.349 OA
ATOM     18  H1  UNL     1       8.029   6.501  22.333  1.00  0.00     0.219 HD
ENDBRANCH   1  17
BRANCH   1  19
HETATM   19  C8  UNL     1       5.939   7.453  21.795  1.00  0.00     0.103 C 
BRANCH  19  20
HETATM   20  C9  UNL     1       6.359   8.221  20.585  1.00  0.00     0.131 C 
BRANCH  20  21
HETATM   21  N3  UNL     1       7.293   9.269  20.967  1.00  0.00    -0.356 N 
ATOM     22  H3  UNL     1       6.992  10.241  21.034  1.00  0.00     0.163 HD
BRANCH  21  23
HETATM   23  C10 UNL     1       8.626   8.904  21.243  1.00  0.00     0.212 C 
BRANCH  23  24
HETATM   24  O2  UNL     1       9.116   7.937  20.510  1.00  0.00    -0.333 OA
ATOM     25  H2  UNL     1       9.600   8.207  19.738  1.00  0.00     0.220 HD
ENDBRANCH  23  24
BRANCH  23  26
HETATM   26  N4  UNL     1       9.478   9.440  22.193  1.00  0.00    -0.352 N 
ATOM     27  H4  UNL     1       9.925  10.337  22.008  1.00  0.00     0.163 HD
BRANCH  26  28
HETATM   28  C11 UNL     1       9.755   8.750  23.459  1.00  0.00     0.088 C 
HETATM   29  C12 UNL     1       8.465   8.824  24.238  1.00  0.00     0.045 C 
HETATM   30  C13 UNL     1       8.575   8.400  25.655  1.00  0.00     0.127 C 
HETATM   31  N5  UNL     1       9.985   8.326  26.067  1.00  0.00    -0.352 N 
HETATM   32  C14 UNL     1      10.487   7.254  26.817  1.00  0.00     0.215 C 
HETATM   33  C16 UNL     1      10.792   9.464  25.612  1.00  0.00     0.127 C 
HETATM   34  C15 UNL     1       9.662   6.142  27.231  1.00  0.00     0.117 C 
HETATM   35  O3  UNL     1      11.696   7.250  27.143  1.00  0.00    -0.274 OA
HETATM   36  C17 UNL     1      10.917   9.385  24.126  1.00  0.00     0.045 C 
ENDBRANCH  26  28
ENDBRANCH  23  26
ENDBRANCH  21  23
ENDBRANCH  20  21
ENDBRANCH  19  20
ENDBRANCH   1  19
TORSDOF 14
ENDMDL
MODEL 3
REMARK VINA RESULT: -7.573005097      1.518      2.053
REMARK  14 active torsions:
REMARK  status: ('A' for Active; 'I' for Inactive)
REMARK    1  A    between atoms: C2_2  and  C3_3 
REMARK    2  A    between atoms: C2_2  and  N6_32 
REMARK    3  A    between atoms: C3_3  and  C4_4 
REMARK    4  A    between atoms: C4_4  and  N1_5 
REMARK    5  A    between atoms: N2_8  and  C7_9 
REMARK    6  A    between atoms: C7_9  and  O1_10 
REMARK    7  A    between atoms: C7_9  and  C8_12 
REMARK    8  A    between atoms: C8_12  and  C9_13 
REMARK    9  A    between atoms: C9_13  and  N3_14 
REMARK   10  A    between atoms: N3_14  and  C10_16 
REMARK   11  A    between atoms: C10_16  and  O2_17 
REMARK   12  A    between atoms: C10_16  and  N4_19 
REMARK   13  A    between atoms: N4_19  and  C11_21 
REMARK       I    between atoms: N5_24  and  C14_25 
REMARK       I    between atoms: N6_32  and  C20_33 
REMARK   14  A    between atoms: C20_33  and  C21_35 
ROOT
HETATM    1  C7  UNL     1       4.442   7.014  21.879  1.00  0.00     0.115 C 
ENDROOT
BRANCH   1   2
HETATM    2  N2  UNL     1       4.441   5.661  21.610  1.00  0.00    -0.356 N 
HETATM    3  C6  UNL     1       3.933   4.636  22.451  1.00  0.00     0.169 C 
HETATM    4  C5  UNL     1       4.700   3.302  22.305  1.00  0.00     0.083 C 
HETATM    5  N1  UNL     1       5.638   3.237  21.296  1.00  0.00    -0.370 N 
HETATM    6  C19 UNL     1       6.174   4.393  20.697  1.00  0.00     0.083 C 
HETATM    7  C18 UNL     1       4.986   5.255  20.289  1.00  0.00     0.169 C 
BRANCH   5   8
HETATM    8  C4  UNL     1       5.810   2.107  20.457  1.00  0.00     0.134 C 
BRANCH   8   9
HETATM    9  C3  UNL     1       7.177   1.806  19.960  1.00  0.00     0.092 C 
BRANCH   9  10
HETATM   10  C2  UNL     1       7.168   0.849  18.808  1.00  0.00     0.080 C 
HETATM   11  C1  UNL     1       5.954   0.771  18.204  1.00  0.00     0.054 C 
BRANCH  10  12
HETATM   12  N6  UNL     1       8.162   0.101  18.269  1.00  0.00    -0.376 NA
HETATM   13  C20 UNL     1       9.162  -0.647  17.730  1.00  0.00     0.291 C 
HETATM   14  O4  UNL     1      10.379  -0.608  18.102  1.00  0.00    -0.257 OA
BRANCH  13  15
HETATM   15  C21 UNL     1       8.902  -1.627  16.602  1.00  0.00     0.115 C 
HETATM   16  C22 UNL     1      10.116  -2.567  16.579  1.00  0.00     0.016 C 
ENDBRANCH  13  15
ENDBRANCH  10  12
ENDBRANCH   9  10
ENDBRANCH   8   9
ENDBRANCH   5   8
ENDBRANCH   1   2
BRANCH   1  17
HETATM   17  O1  UNL     1       3.448   7.757  21.445  1.00  0.00    -0.349 OA
ATOM     18  H1  UNL     1       2.824   8.109  22.068  1.00  0.00     0.219 HD
ENDBRANCH   1  17
BRANCH   1  19
HETATM   19  C8  UNL     1       5.411   7.861  22.638  1.00  0.00     0.103 C 
BRANCH  19  20
HETATM   20  C9  UNL     1       6.202   8.689  21.680  1.00  0.00     0.131 C 
BRANCH  20  21
HETATM   21  N3  UNL     1       7.344   7.926  21.198  1.00  0.00    -0.356 N 
ATOM     22  H3  UNL     1       7.221   6.998  20.794  1.00  0.00     0.163 HD
BRANCH  21  23
HETATM   23  C10 UNL     1       8.624   8.506  21.304  1.00  0.00     0.212 C 
BRANCH  23  24
HETATM   24  O2  UNL     1       9.419   8.324  20.281  1.00  0.00    -0.333 OA
ATOM     25  H2  UNL     1       9.687   9.110  19.819  1.00  0.00     0.220 HD
ENDBRANCH  23  24
BRANCH  23  26
HETATM   26  N4  UNL     1       9.142   9.241  22.355  1.00  0.00    -0.352 N 
ATOM     27  H4  UNL     1       9.209  10.254  22.266  1.00  0.00     0.163 HD
BRANCH  26  28
HETATM   28  C11 UNL     1       9.599   8.600  23.595  1.00  0.00     0.088 C 
HETATM   29  C12 UNL     1       8.411   8.649  24.524  1.00  0.00     0.045 C 
HETATM   30  C13 UNL     1       8.710   8.272  25.927  1.00  0.00     0.127 C 
HETATM   31  N5  UNL     1      10.161   8.263  26.164  1.00  0.00    -0.352 N 
HETATM   32  C14 UNL     1      10.794   7.232  26.873  1.00  0.00     0.215 C 
HETATM   33  C16 UNL     1      10.861   9.415  25.586  1.00  0.00     0.127 C 
HETATM   34  C15 UNL     1      10.070   6.104  27.413  1.00  0.00     0.117 C 
HETATM   35  O3  UNL     1      12.032   7.283  27.049  1.00  0.00    -0.274 OA
HETATM   36  C17 UNL     1      10.807   9.296  24.098  1.00  0.00     0.045 C 
ENDBRANCH  26  28
ENDBRANCH  23  26
ENDBRANCH  21  23
ENDBRANCH  20  21
ENDBRANCH  19  20
ENDBRANCH   1  19
TORSDOF 14
ENDMDL
MODEL 4
REMARK VINA RESULT: -7.563648117      3.219      4.978
REMARK  14 active torsions:
REMARK  status: ('A' for Active; 'I' for Inactive)
REMARK    1  A    between atoms: C2_2  and  C3_3 
REMARK    2  A    between atoms: C2_2  and  N6_32 
REMARK    3  A    between atoms: C3_3  and  C4_4 
REMARK    4  A    between atoms: C4_4  and  N1_5 
REMARK    5  A    between atoms: N2_8  and  C7_9 
REMARK    6  A    between atoms: C7_9  and  O1_10 
REMARK    7  A    between atoms: C7_9  and  C8_12 
REMARK    8  A    between atoms: C8_12  and  C9_13 
REMARK    9  A    between atoms: C9_13  and  N3_14 
REMARK   10  A    between atoms: N3_14  and  C10_16 
REMARK   11  A    between atoms: C10_16  and  O2_17 
REMARK   12  A    between atoms: C10_16  and  N4_19 
REMARK   13  A    between atoms: N4_19  and  C11_21 
REMARK       I    between atoms: N5_24  and  C14_25 
REMARK       I    between atoms: N6_32  and  C20_33 
REMARK   14  A    between atoms: C20_33  and  C21_35 
ROOT
HETATM    1  C7  UNL     1       1.728   5.696  24.326  1.00  0.00     0.115 C 
ENDROOT
BRANCH   1   2
HETATM    2  N2  UNL     1       2.195   4.628  23.589  1.00  0.00    -0.356 N 
HETATM    3  C6  UNL     1       1.983   3.253  23.871  1.00  0.00     0.169 C 
HETATM    4  C5  UNL     1       3.155   2.357  23.412  1.00  0.00     0.083 C 
HETATM    5  N1  UNL     1       4.144   2.966  22.668  1.00  0.00    -0.370 N 
HETATM    6  C19 UNL     1       4.318   4.364  22.658  1.00  0.00     0.083 C 
HETATM    7  C18 UNL     1       2.951   4.965  22.355  1.00  0.00     0.169 C 
BRANCH   5   8
HETATM    8  C4  UNL     1       4.747   2.374  21.531  1.00  0.00     0.134 C 
BRANCH   8   9
HETATM    9  C3  UNL     1       6.121   1.828  21.672  1.00  0.00     0.092 C 
BRANCH   9  10
HETATM   10  C2  UNL     1       6.992   2.160  20.499  1.00  0.00     0.080 C 
HETATM   11  C1  UNL     1       7.178   3.497  20.350  1.00  0.00     0.054 C 
BRANCH  10  12
HETATM   12  N6  UNL     1       7.632   1.357  19.613  1.00  0.00    -0.376 NA
HETATM   13  C20 UNL     1       8.279   0.554  18.728  1.00  0.00     0.291 C 
HETATM   14  O4  UNL     1       9.488   0.169  18.844  1.00  0.00    -0.257 OA
BRANCH  13  15
HETATM   15  C21 UNL     1       7.590   0.026  17.484  1.00  0.00     0.115 C 
HETATM   16  C22 UNL     1       6.084   0.111  17.774  1.00  0.00     0.016 C 
ENDBRANCH  13  15
ENDBRANCH  10  12
ENDBRANCH   9  10
ENDBRANCH   8   9
ENDBRANCH   5   8
ENDBRANCH   1   2
BRANCH   1  17
HETATM   17  O1  UNL     1       1.218   5.481  25.519  1.00  0.00    -0.349 OA
ATOM     18  H1  UNL     1       1.669   5.816  26.285  1.00  0.00     0.219 HD
ENDBRANCH   1  17
BRANCH   1  19
HETATM   19  C8  UNL     1       1.702   7.159  24.023  1.00  0.00     0.103 C 
BRANCH  19  20
HETATM   20  C9  UNL     1       1.530   7.925  25.293  1.00  0.00     0.131 C 
BRANCH  20  21
HETATM   21  N3  UNL     1       2.781   7.934  26.037  1.00  0.00    -0.356 N 
ATOM     22  H3  UNL     1       2.854   7.474  26.944  1.00  0.00     0.163 HD
BRANCH  21  23
HETATM   23  C10 UNL     1       3.889   8.594  25.467  1.00  0.00     0.212 C 
BRANCH  23  24
HETATM   24  O2  UNL     1       3.733   9.872  25.236  1.00  0.00    -0.333 OA
ATOM     25  H2  UNL     1       3.655  10.122  24.323  1.00  0.00     0.220 HD
ENDBRANCH  23  24
BRANCH  23  26
HETATM   26  N4  UNL     1       5.116   8.057  25.123  1.00  0.00    -0.352 N 
ATOM     27  H4  UNL     1       5.503   7.302  25.688  1.00  0.00     0.163 HD
BRANCH  26  28
HETATM   28  C11 UNL     1       5.876   8.545  23.965  1.00  0.00     0.088 C 
HETATM   29  C12 UNL     1       5.181   7.958  22.762  1.00  0.00     0.045 C 
HETATM   30  C13 UNL     1       5.917   8.120  21.484  1.00  0.00     0.127 C 
HETATM   31  N5  UNL     1       7.310   8.518  21.735  1.00  0.00    -0.352 N 
HETATM   32  C14 UNL     1       7.941   9.528  20.996  1.00  0.00     0.215 C 
HETATM   33  C16 UNL     1       7.951   7.768  22.820  1.00  0.00     0.127 C 
HETATM   34  C15 UNL     1       7.269  10.256  19.944  1.00  0.00     0.117 C 
HETATM   35  O3  UNL     1       9.132   9.818  21.251  1.00  0.00    -0.274 OA
HETATM   36  C17 UNL     1       7.300   8.158  24.107  1.00  0.00     0.045 C 
ENDBRANCH  26  28
ENDBRANCH  23  26
ENDBRANCH  21  23
ENDBRANCH  20  21
ENDBRANCH  19  20
ENDBRANCH   1  19
TORSDOF 14
ENDMDL
MODEL 5
REMARK VINA RESULT: -7.563592880      2.220      3.354
REMARK  14 active torsions:
REMARK  status: ('A' for Active; 'I' for Inactive)
REMARK    1  A    between atoms: C2_2  and  C3_3 
REMARK    2  A    between atoms: C2_2  and  N6_32 
REMARK    3  A    between atoms: C3_3  and  C4_4 
REMARK    4  A    between atoms: C4_4  and  N1_5 
REMARK    5  A    between atoms: N2_8  and  C7_9 
REMARK    6  A    between atoms: C7_9  and  O1_10 
REMARK    7  A    between atoms: C7_9  and  C8_12 
REMARK    8  A    between atoms: C8_12  and  C9_13 
REMARK    9  A    between atoms: C9_13  and  N3_14 
REMARK   10  A    between atoms: N3_14  and  C10_16 
REMARK   11  A    between atoms: C10_16  and  O2_17 
REMARK   12  A    between atoms: C10_16  and  N4_19 
REMARK   13  A    between atoms: N4_19  and  C11_21 
REMARK       I    between atoms: N5_24  and  C14_25 
REMARK       I    between atoms: N6_32  and  C20_33 
REMARK   14  A    between atoms: C20_33  and  C21_35 
ROOT
HETATM    1  C7  UNL     1       5.136   6.985  23.297  1.00  0.00     0.115 C 
ENDROOT
BRANCH   1   2
HETATM    2  N2  UNL     1       4.313   6.155  22.565  1.00  0.00    -0.356 N 
HETATM    3  C6  UNL     1       2.941   6.372  22.274  1.00  0.00     0.169 C 
HETATM    4  C5  UNL     1       2.136   5.059  22.151  1.00  0.00     0.083 C 
HETATM    5  N1  UNL     1       2.861   3.886  22.175  1.00  0.00    -0.370 N 
HETATM    6  C19 UNL     1       4.174   3.829  22.683  1.00  0.00     0.083 C 
HETATM    7  C18 UNL     1       4.951   4.942  21.991  1.00  0.00     0.169 C 
BRANCH   5   8
HETATM    8  C4  UNL     1       2.601   2.785  21.322  1.00  0.00     0.134 C 
BRANCH   8   9
HETATM    9  C3  UNL     1       3.493   1.601  21.415  1.00  0.00     0.092 C 
BRANCH   9  10
HETATM   10  C2  UNL     1       4.191   1.309  20.122  1.00  0.00     0.080 C 
HETATM   11  C1  UNL     1       3.334   0.922  19.142  1.00  0.00     0.054 C 
BRANCH  10  12
HETATM   12  N6  UNL     1       5.500   1.403  19.780  1.00  0.00    -0.376 NA
HETATM   13  C20 UNL     1       6.812   1.502  19.438  1.00  0.00     0.291 C 
HETATM   14  O4  UNL     1       7.610   2.397  19.869  1.00  0.00    -0.257 OA
BRANCH  13  15
HETATM   15  C21 UNL     1       7.461   0.518  18.483  1.00  0.00     0.115 C 
HETATM   16  C22 UNL     1       8.937   0.443  18.901  1.00  0.00     0.016 C 
ENDBRANCH  13  15
ENDBRANCH  10  12
ENDBRANCH   9  10
ENDBRANCH   8   9
ENDBRANCH   5   8
ENDBRANCH   1   2
BRANCH   1  17
HETATM   17  O1  UNL     1       5.607   6.569  24.451  1.00  0.00    -0.349 OA
ATOM     18  H1  UNL     1       5.834   5.653  24.559  1.00  0.00     0.219 HD
ENDBRANCH   1  17
BRANCH   1  19
HETATM   19  C8  UNL     1       5.650   8.358  23.008  1.00  0.00     0.103 C 
BRANCH  19  20
HETATM   20  C9  UNL     1       6.134   8.419  21.596  1.00  0.00     0.131 C 
BRANCH  20  21
HETATM   21  N3  UNL     1       7.380   7.679  21.471  1.00  0.00    -0.356 N 
ATOM     22  H3  UNL     1       7.382   6.660  21.432  1.00  0.00     0.163 HD
BRANCH  21  23
HETATM   23  C10 UNL     1       8.584   8.409  21.406  1.00  0.00     0.212 C 
BRANCH  23  24
HETATM   24  O2  UNL     1       9.211   8.373  20.259  1.00  0.00    -0.333 OA
ATOM     25  H2  UNL     1       9.985   7.823  20.226  1.00  0.00     0.220 HD
ENDBRANCH  23  24
BRANCH  23  26
HETATM   26  N4  UNL     1       9.182   9.155  22.405  1.00  0.00    -0.352 N 
ATOM     27  H4  UNL     1       9.294  10.160  22.274  1.00  0.00     0.163 HD
BRANCH  26  28
HETATM   28  C11 UNL     1       9.662   8.539  23.649  1.00  0.00     0.088 C 
HETATM   29  C12 UNL     1       8.480   8.573  24.586  1.00  0.00     0.045 C 
HETATM   30  C13 UNL     1       8.797   8.219  25.991  1.00  0.00     0.127 C 
HETATM   31  N5  UNL     1      10.249   8.244  26.218  1.00  0.00    -0.352 N 
HETATM   32  C14 UNL     1      10.909   7.235  26.934  1.00  0.00     0.215 C 
HETATM   33  C16 UNL     1      10.920   9.404  25.621  1.00  0.00     0.127 C 
HETATM   34  C15 UNL     1      10.214   6.098  27.492  1.00  0.00     0.117 C 
HETATM   35  O3  UNL     1      12.148   7.315  27.101  1.00  0.00    -0.274 OA
HETATM   36  C17 UNL     1      10.858   9.267  24.135  1.00  0.00     0.045 C 
ENDBRANCH  26  28
ENDBRANCH  23  26
ENDBRANCH  21  23
ENDBRANCH  20  21
ENDBRANCH  19  20
ENDBRANCH   1  19
TORSDOF 14
ENDMDL
