MODEL 1
REMARK VINA RESULT: -6.608650757      0.000      0.000
REMARK  7 active torsions:
REMARK  status: ('A' for Active; 'I' for Inactive)
REMARK    1  A    between atoms: C2_2  and  C4_4 
REMARK    2  A    between atoms: C4_4  and  C5_5 
REMARK    3  A    between atoms: C10_16  and  C11_17 
REMARK    4  A    between atoms: C11_17  and  C12_18 
REMARK    5  A    between atoms: C12_18  and  C13_19 
REMARK    6  A    between atoms: C13_19  and  C14_20 
REMARK    7  A    between atoms: C14_20  and  N3_21 
ROOT
HETATM    1  C5  UNL     1       4.685   2.605  19.159  1.00  0.00     0.173 C 
HETATM    2  C6  UNL     1       4.284   3.953  18.785  1.00  0.00     0.231 C 
HETATM    3  O1  UNL     1       3.207   3.987  18.058  1.00  0.00    -0.273 OA
HETATM    4  N1  UNL     1       4.864   5.196  19.078  1.00  0.00    -0.347 N 
ATOM      5  H1  UNL     1       5.184   5.729  18.270  1.00  0.00     0.163 HD
HETATM    6  C7  UNL     1       5.073   5.832  20.364  1.00  0.00     0.172 C 
HETATM    7  C8  UNL     1       5.502   4.903  21.455  1.00  0.00     0.042 C 
HETATM    8  C9  UNL     1       3.945   6.736  20.699  1.00  0.00     0.240 C 
HETATM    9  O2  UNL     1       4.110   7.894  20.133  1.00  0.00    -0.271 OA
HETATM   10  N2  UNL     1       2.805   6.601  21.453  1.00  0.00    -0.354 N 
ATOM     11  H2  UNL     1       1.982   6.552  20.852  1.00  0.00     0.162 HD
HETATM   12  C10 UNL     1       2.432   6.508  22.809  1.00  0.00     0.093 C 
HETATM   13  C18 UNL     1       1.375   5.434  22.973  1.00  0.00     0.128 C 
HETATM   14  C19 UNL     1       1.890   4.081  23.222  1.00  0.00     0.219 C 
HETATM   15  O3  UNL     1       2.258   3.799  24.385  1.00  0.00    -0.274 OA
HETATM   16  N4  UNL     1       2.011   3.050  22.254  1.00  0.00    -0.359 N 
ATOM     17  H4  UNL     1       2.634   2.267  22.452  1.00  0.00     0.162 HD
HETATM   18  C20 UNL     1       1.288   3.060  20.997  1.00  0.00     0.149 C 
HETATM   19  C21 UNL     1       1.462   1.816  20.229  1.00  0.00     0.123 A 
HETATM   20  C22 UNL     1       0.853   1.917  18.822  1.00  0.00     0.153 A 
HETATM   21  N5  UNL     1       2.259   1.737  19.101  1.00  0.00    -0.342 N 
HETATM   22  C23 UNL     1       3.641   1.563  18.864  1.00  0.00     0.233 C 
HETATM   23  O4  UNL     1       4.146   0.508  18.379  1.00  0.00    -0.272 OA
ENDROOT
BRANCH  12  24
HETATM   24  C11 UNL     1       3.406   6.441  23.900  1.00  0.00     0.026 C 
BRANCH  24  25
HETATM   25  C12 UNL     1       4.132   7.723  24.199  1.00  0.00     0.004 C 
BRANCH  25  26
HETATM   26  C13 UNL     1       5.587   7.602  24.456  1.00  0.00     0.028 C 
BRANCH  26  27
HETATM   27  C14 UNL     1       6.449   8.757  24.109  1.00  0.00     0.236 C 
BRANCH  27  28
HETATM   28  N3  UNL     1       7.826   8.511  23.860  1.00  0.00    -0.079 N 
HETATM   29  C15 UNL     1       7.868   7.420  22.848  1.00  0.00     0.271 C 
HETATM   30  C16 UNL     1       8.538   7.953  24.994  1.00  0.00     0.271 C 
HETATM   31  C17 UNL     1       8.599   9.570  23.307  1.00  0.00     0.271 C 
ENDBRANCH  27  28
ENDBRANCH  26  27
ENDBRANCH  25  26
ENDBRANCH  24  25
ENDBRANCH  12  24
BRANCH   1  32
HETATM   32  C4  UNL     1       6.056   2.207  18.701  1.00  0.00     0.056 C 
BRANCH  32  33
HETATM   33  C2  UNL     1       6.939   1.554  19.655  1.00  0.00    -0.092 C 
HETATM   34  C1  UNL     1       6.657   1.568  20.951  1.00  0.00     0.014 C 
HETATM   35  C3  UNL     1       8.190   0.881  19.237  1.00  0.00     0.042 C 
ENDBRANCH  32  33
ENDBRANCH   1  32
TORSDOF 7
ENDMDL
MODEL 2
REMARK VINA RESULT: -6.539758785      2.622      7.169
REMARK  7 active torsions:
REMARK  status: ('A' for Active; 'I' for Inactive)
REMARK    1  A    between atoms: C2_2  and  C4_4 
REMARK    2  A    between atoms: C4_4  and  C5_5 
REMARK    3  A    between atoms: C10_16  and  C11_17 
REMARK    4  A    between atoms: C11_17  and  C12_18 
REMARK    5  A    between atoms: C12_18  and  C13_19 
REMARK    6  A    between atoms: C13_19  and  C14_20 
REMARK    7  A    between atoms: C14_20  and  N3_21 
ROOT
HETATM    1  C5  UNL     1       7.246   8.385  21.201  1.00  0.00     0.173 C 
HETATM    2  C6  UNL     1       7.239   6.942  21.390  1.00  0.00     0.231 C 
HETATM    3  O1  UNL     1       7.908   6.556  22.435  1.00  0.00    -0.273 OA
HETATM    4  N1  UNL     1       6.636   5.922  20.639  1.00  0.00    -0.347 N 
ATOM      5  H1  UNL     1       7.279   5.246  20.227  1.00  0.00     0.163 HD
HETATM    6  C7  UNL     1       5.232   5.690  20.364  1.00  0.00     0.172 C 
HETATM    7  C8  UNL     1       4.438   6.930  20.099  1.00  0.00     0.042 C 
HETATM    8  C9  UNL     1       4.645   4.752  21.352  1.00  0.00     0.240 C 
HETATM    9  O2  UNL     1       4.884   3.523  21.006  1.00  0.00    -0.271 OA
HETATM   10  N2  UNL     1       3.932   4.914  22.514  1.00  0.00    -0.354 N 
ATOM     11  H2  UNL     1       4.507   4.678  23.323  1.00  0.00     0.162 HD
HETATM   12  C10 UNL     1       2.642   5.309  22.925  1.00  0.00     0.093 C 
HETATM   13  C18 UNL     1       2.750   6.219  24.132  1.00  0.00     0.128 C 
HETATM   14  C19 UNL     1       2.881   7.650  23.828  1.00  0.00     0.219 C 
HETATM   15  O3  UNL     1       1.844   8.283  23.530  1.00  0.00    -0.274 OA
HETATM   16  N4  UNL     1       4.092   8.392  23.841  1.00  0.00    -0.359 N 
ATOM     17  H4  UNL     1       4.123   9.283  23.345  1.00  0.00     0.162 HD
HETATM   18  C20 UNL     1       5.286   7.939  24.530  1.00  0.00     0.149 C 
HETATM   19  C21 UNL     1       6.361   8.944  24.526  1.00  0.00     0.123 A 
HETATM   20  C22 UNL     1       7.678   8.382  25.085  1.00  0.00     0.153 A 
HETATM   21  N5  UNL     1       7.486   8.837  23.726  1.00  0.00    -0.342 N 
HETATM   22  C23 UNL     1       7.788   9.144  22.381  1.00  0.00     0.233 C 
HETATM   23  O4  UNL     1       8.548  10.093  22.028  1.00  0.00    -0.272 OA
ENDROOT
BRANCH  12  24
HETATM   24  C11 UNL     1       1.629   5.809  21.994  1.00  0.00     0.026 C 
BRANCH  24  25
HETATM   25  C12 UNL     1       0.869   4.754  21.238  1.00  0.00     0.004 C 
BRANCH  25  26
HETATM   26  C13 UNL     1       0.689   3.458  21.934  1.00  0.00     0.028 C 
BRANCH  26  27
HETATM   27  C14 UNL     1       1.481   2.300  21.455  1.00  0.00     0.236 C 
BRANCH  27  28
HETATM   28  N3  UNL     1       1.872   1.319  22.405  1.00  0.00    -0.079 N 
HETATM   29  C15 UNL     1       2.893   0.477  21.725  1.00  0.00     0.271 C 
HETATM   30  C16 UNL     1       0.822   0.377  22.744  1.00  0.00     0.271 C 
HETATM   31  C17 UNL     1       2.490   1.768  23.606  1.00  0.00     0.271 C 
ENDBRANCH  27  28
ENDBRANCH  26  27
ENDBRANCH  25  26
ENDBRANCH  24  25
ENDBRANCH  12  24
BRANCH   1  32
HETATM   32  C4  UNL     1       7.822   8.845  19.894  1.00  0.00     0.056 C 
BRANCH  32  33
HETATM   33  C2  UNL     1       6.960   9.578  18.982  1.00  0.00    -0.092 C 
HETATM   34  C1  UNL     1       7.086   9.427  17.669  1.00  0.00     0.014 C 
HETATM   35  C3  UNL     1       5.939  10.536  19.462  1.00  0.00     0.042 C 
ENDBRANCH  32  33
ENDBRANCH   1  32
TORSDOF 7
ENDMDL
MODEL 3
REMARK VINA RESULT: -6.527122523      3.208      7.127
REMARK  7 active torsions:
REMARK  status: ('A' for Active; 'I' for Inactive)
REMARK    1  A    between atoms: C2_2  and  C4_4 
REMARK    2  A    between atoms: C4_4  and  C5_5 
REMARK    3  A    between atoms: C10_16  and  C11_17 
REMARK    4  A    between atoms: C11_17  and  C12_18 
REMARK    5  A    between atoms: C12_18  and  C13_19 
REMARK    6  A    between atoms: C13_19  and  C14_20 
REMARK    7  A    between atoms: C14_20  and  N3_21 
ROOT
HETATM    1  C5  UNL     1       7.363   8.499  21.242  1.00  0.00     0.173 C 
HETATM    2  C6  UNL     1       7.081   7.072  21.202  1.00  0.00     0.231 C 
HETATM    3  O1  UNL     1       7.758   6.388  22.075  1.00  0.00    -0.273 OA
HETATM    4  N1  UNL     1       6.210   6.332  20.388  1.00  0.00    -0.347 N 
ATOM      5  H1  UNL     1       6.656   5.634  19.794  1.00  0.00     0.163 HD
HETATM    6  C7  UNL     1       4.767   6.416  20.271  1.00  0.00     0.172 C 
HETATM    7  C8  UNL     1       4.220   7.808  20.312  1.00  0.00     0.042 C 
HETATM    8  C9  UNL     1       4.104   5.440  21.170  1.00  0.00     0.240 C 
HETATM    9  O2  UNL     1       4.051   4.271  20.607  1.00  0.00    -0.271 OA
HETATM   10  N2  UNL     1       3.559   5.519  22.428  1.00  0.00    -0.354 N 
ATOM     11  H2  UNL     1       4.152   5.040  23.106  1.00  0.00     0.162 HD
HETATM   12  C10 UNL     1       2.425   6.064  23.064  1.00  0.00     0.093 C 
HETATM   13  C18 UNL     1       2.837   6.707  24.373  1.00  0.00     0.128 C 
HETATM   14  C19 UNL     1       3.226   8.121  24.281  1.00  0.00     0.219 C 
HETATM   15  O3  UNL     1       2.315   8.977  24.227  1.00  0.00    -0.274 OA
HETATM   16  N4  UNL     1       4.557   8.612  24.249  1.00  0.00    -0.359 N 
ATOM     17  H4  UNL     1       4.720   9.557  23.898  1.00  0.00     0.162 HD
HETATM   18  C20 UNL     1       5.697   7.832  24.692  1.00  0.00     0.149 C 
HETATM   19  C21 UNL     1       6.949   8.606  24.702  1.00  0.00     0.123 A 
HETATM   20  C22 UNL     1       8.173   7.720  24.984  1.00  0.00     0.153 A 
HETATM   21  N5  UNL     1       7.942   8.439  23.752  1.00  0.00    -0.342 N 
HETATM   22  C23 UNL     1       8.164   8.921  22.443  1.00  0.00     0.233 C 
HETATM   23  O4  UNL     1       9.062   9.762  22.144  1.00  0.00    -0.272 OA
ENDROOT
BRANCH  12  24
HETATM   24  C11 UNL     1       1.446   6.901  22.366  1.00  0.00     0.026 C 
BRANCH  24  25
HETATM   25  C12 UNL     1       0.058   6.331  22.273  1.00  0.00     0.004 C 
BRANCH  25  26
HETATM   26  C13 UNL     1      -0.809   6.534  23.457  1.00  0.00     0.028 C 
BRANCH  26  27
HETATM   27  C14 UNL     1      -0.970   7.916  23.968  1.00  0.00     0.236 C 
BRANCH  27  28
HETATM   28  N3  UNL     1      -1.074   8.100  25.373  1.00  0.00    -0.079 N 
HETATM   29  C15 UNL     1      -2.468   7.722  25.732  1.00  0.00     0.271 C 
HETATM   30  C16 UNL     1      -0.978   9.486  25.792  1.00  0.00     0.271 C 
HETATM   31  C17 UNL     1      -0.239   7.308  26.210  1.00  0.00     0.271 C 
ENDBRANCH  27  28
ENDBRANCH  26  27
ENDBRANCH  25  26
ENDBRANCH  24  25
ENDBRANCH  12  24
BRANCH   1  32
HETATM   32  C4  UNL     1       7.886   9.072  19.958  1.00  0.00     0.056 C 
BRANCH  32  33
HETATM   33  C2  UNL     1       6.973   9.833  19.120  1.00  0.00    -0.092 C 
HETATM   34  C1  UNL     1       6.361  10.910  19.598  1.00  0.00     0.014 C 
HETATM   35  C3  UNL     1       6.664   9.435  17.728  1.00  0.00     0.042 C 
ENDBRANCH  32  33
ENDBRANCH   1  32
TORSDOF 7
ENDMDL
MODEL 4
REMARK VINA RESULT: -6.459110885      3.450      7.236
REMARK  7 active torsions:
REMARK  status: ('A' for Active; 'I' for Inactive)
REMARK    1  A    between atoms: C2_2  and  C4_4 
REMARK    2  A    between atoms: C4_4  and  C5_5 
REMARK    3  A    between atoms: C10_16  and  C11_17 
REMARK    4  A    between atoms: C11_17  and  C12_18 
REMARK    5  A    between atoms: C12_18  and  C13_19 
REMARK    6  A    between atoms: C13_19  and  C14_20 
REMARK    7  A    between atoms: C14_20  and  N3_21 
ROOT
HETATM    1  C5  UNL     1       7.453   8.444  21.171  1.00  0.00     0.173 C 
HETATM    2  C6  UNL     1       7.099   7.038  21.291  1.00  0.00     0.231 C 
HETATM    3  O1  UNL     1       7.852   6.386  22.126  1.00  0.00    -0.273 OA
HETATM    4  N1  UNL     1       6.093   6.289  20.662  1.00  0.00    -0.347 N 
ATOM      5  H1  UNL     1       6.423   5.521  20.077  1.00  0.00     0.163 HD
HETATM    6  C7  UNL     1       4.654   6.449  20.722  1.00  0.00     0.172 C 
HETATM    7  C8  UNL     1       4.185   7.869  20.712  1.00  0.00     0.042 C 
HETATM    8  C9  UNL     1       4.068   5.588  21.778  1.00  0.00     0.240 C 
HETATM    9  O2  UNL     1       3.885   4.383  21.330  1.00  0.00    -0.271 OA
HETATM   10  N2  UNL     1       3.698   5.799  23.085  1.00  0.00    -0.354 N 
ATOM     11  H2  UNL     1       4.352   5.340  23.720  1.00  0.00     0.162 HD
HETATM   12  C10 UNL     1       2.686   6.459  23.810  1.00  0.00     0.093 C 
HETATM   13  C18 UNL     1       3.298   7.177  24.996  1.00  0.00     0.128 C 
HETATM   14  C19 UNL     1       3.740   8.553  24.735  1.00  0.00     0.219 C 
HETATM   15  O3  UNL     1       2.873   9.456  24.724  1.00  0.00    -0.274 OA
HETATM   16  N4  UNL     1       5.078   8.961  24.490  1.00  0.00    -0.359 N 
ATOM     17  H4  UNL     1       5.238   9.864  24.042  1.00  0.00     0.162 HD
HETATM   18  C20 UNL     1       6.227   8.152  24.850  1.00  0.00     0.149 C 
HETATM   19  C21 UNL     1       7.505   8.848  24.634  1.00  0.00     0.123 A 
HETATM   20  C22 UNL     1       8.711   7.917  24.833  1.00  0.00     0.153 A 
HETATM   21  N5  UNL     1       8.355   8.548  23.583  1.00  0.00    -0.342 N 
HETATM   22  C23 UNL     1       8.425   8.911  22.220  1.00  0.00     0.233 C 
HETATM   23  O4  UNL     1       9.316   9.672  21.738  1.00  0.00    -0.272 OA
ENDROOT
BRANCH  12  24
HETATM   24  C11 UNL     1       1.666   7.294  23.174  1.00  0.00     0.026 C 
BRANCH  24  25
HETATM   25  C12 UNL     1       0.282   6.707  23.133  1.00  0.00     0.004 C 
BRANCH  25  26
HETATM   26  C13 UNL     1      -0.509   6.820  24.382  1.00  0.00     0.028 C 
BRANCH  26  27
HETATM   27  C14 UNL     1      -0.330   8.038  25.206  1.00  0.00     0.236 C 
BRANCH  27  28
HETATM   28  N3  UNL     1      -1.176   9.150  24.947  1.00  0.00    -0.079 N 
HETATM   29  C15 UNL     1      -1.420   9.793  26.267  1.00  0.00     0.271 C 
HETATM   30  C16 UNL     1      -2.504   8.785  24.494  1.00  0.00     0.271 C 
HETATM   31  C17 UNL     1      -0.673  10.185  24.109  1.00  0.00     0.271 C 
ENDBRANCH  27  28
ENDBRANCH  26  27
ENDBRANCH  25  26
ENDBRANCH  24  25
ENDBRANCH  12  24
BRANCH   1  32
HETATM   32  C4  UNL     1       7.829   8.882  19.787  1.00  0.00     0.056 C 
BRANCH  32  33
HETATM   33  C2  UNL     1       6.923   9.768  19.074  1.00  0.00    -0.092 C 
HETATM   34  C1  UNL     1       6.545  10.920  19.614  1.00  0.00     0.014 C 
HETATM   35  C3  UNL     1       6.365   9.422  17.748  1.00  0.00     0.042 C 
ENDBRANCH  32  33
ENDBRANCH   1  32
TORSDOF 7
ENDMDL
MODEL 5
REMARK VINA RESULT: -6.367289798      2.684      7.131
REMARK  7 active torsions:
REMARK  status: ('A' for Active; 'I' for Inactive)
REMARK    1  A    between atoms: C2_2  and  C4_4 
REMARK    2  A    between atoms: C4_4  and  C5_5 
REMARK    3  A    between atoms: C10_16  and  C11_17 
REMARK    4  A    between atoms: C11_17  and  C12_18 
REMARK    5  A    between atoms: C12_18  and  C13_19 
REMARK    6  A    between atoms: C13_19  and  C14_20 
REMARK    7  A    between atoms: C14_20  and  N3_21 
ROOT
HETATM    1  C5  UNL     1       7.234   8.500  21.282  1.00  0.00     0.173 C 
HETATM    2  C6  UNL     1       7.320   7.058  21.449  1.00  0.00     0.231 C 
HETATM    3  O1  UNL     1       7.952   6.700  22.526  1.00  0.00    -0.273 OA
HETATM    4  N1  UNL     1       6.837   6.012  20.648  1.00  0.00    -0.347 N 
ATOM      5  H1  UNL     1       7.550   5.391  20.266  1.00  0.00     0.163 HD
HETATM    6  C7  UNL     1       5.471   5.686  20.285  1.00  0.00     0.172 C 
HETATM    7  C8  UNL     1       4.607   6.871  19.992  1.00  0.00     0.042 C 
HETATM    8  C9  UNL     1       4.896   4.690  21.223  1.00  0.00     0.240 C 
HETATM    9  O2  UNL     1       5.243   3.488  20.874  1.00  0.00    -0.271 OA
HETATM   10  N2  UNL     1       4.106   4.779  22.343  1.00  0.00    -0.354 N 
ATOM     11  H2  UNL     1       4.648   4.569  23.181  1.00  0.00     0.162 HD
HETATM   12  C10 UNL     1       2.770   5.073  22.680  1.00  0.00     0.093 C 
HETATM   13  C18 UNL     1       2.740   5.966  23.905  1.00  0.00     0.128 C 
HETATM   14  C19 UNL     1       2.786   7.408  23.630  1.00  0.00     0.219 C 
HETATM   15  O3  UNL     1       1.725   7.972  23.279  1.00  0.00    -0.274 OA
HETATM   16  N4  UNL     1       3.936   8.233  23.727  1.00  0.00    -0.359 N 
ATOM     17  H4  UNL     1       3.933   9.134  23.247  1.00  0.00     0.162 HD
HETATM   18  C20 UNL     1       5.118   7.854  24.480  1.00  0.00     0.149 C 
HETATM   19  C21 UNL     1       6.116   8.933  24.556  1.00  0.00     0.123 A 
HETATM   20  C22 UNL     1       7.435   8.455  25.184  1.00  0.00     0.153 A 
HETATM   21  N5  UNL     1       7.291   8.920  23.823  1.00  0.00    -0.342 N 
HETATM   22  C23 UNL     1       7.649   9.274  22.504  1.00  0.00     0.233 C 
HETATM   23  O4  UNL     1       8.358  10.281  22.211  1.00  0.00    -0.272 OA
ENDROOT
BRANCH  12  24
HETATM   24  C11 UNL     1       1.779   5.518  21.697  1.00  0.00     0.026 C 
BRANCH  24  25
HETATM   25  C12 UNL     1       1.307   4.464  20.734  1.00  0.00     0.004 C 
BRANCH  25  26
HETATM   26  C13 UNL     1       1.671   4.673  19.312  1.00  0.00     0.028 C 
BRANCH  26  27
HETATM   27  C14 UNL     1       2.495   3.635  18.649  1.00  0.00     0.236 C 
BRANCH  27  28
HETATM   28  N3  UNL     1       3.146   3.974  17.433  1.00  0.00    -0.079 N 
HETATM   29  C15 UNL     1       2.499   3.145  16.380  1.00  0.00     0.271 C 
HETATM   30  C16 UNL     1       4.538   3.571  17.378  1.00  0.00     0.271 C 
HETATM   31  C17 UNL     1       3.038   5.318  16.975  1.00  0.00     0.271 C 
ENDBRANCH  27  28
ENDBRANCH  26  27
ENDBRANCH  25  26
ENDBRANCH  24  25
ENDBRANCH  12  24
BRANCH   1  32
HETATM   32  C4  UNL     1       7.851   9.024  20.019  1.00  0.00     0.056 C 
BRANCH  32  33
HETATM   33  C2  UNL     1       6.988   9.686  19.054  1.00  0.00    -0.092 C 
HETATM   34  C1  UNL     1       7.141   9.467  17.754  1.00  0.00     0.014 C 
HETATM   35  C3  UNL     1       5.936  10.643  19.464  1.00  0.00     0.042 C 
ENDBRANCH  32  33
ENDBRANCH   1  32
TORSDOF 7
ENDMDL
