MODEL 1
REMARK VINA RESULT: -6.727079695      0.000      0.000
REMARK  3 active torsions:
REMARK  status: ('A' for Active; 'I' for Inactive)
REMARK    1  A    between atoms: O1_2  and  C2_3 
REMARK    2  A    between atoms: C3_4  and  O2_5 
REMARK    3  A    between atoms: C7_12  and  C8_13 
ROOT
HETATM    1  C2  UNL     1      29.015  31.400  11.937  1.00  0.00     0.111 A 
HETATM    2  C3  UNL     1      29.715  30.244  12.177  1.00  0.00     0.117 A 
HETATM    3  C4  UNL     1      31.035  30.326  12.522  1.00  0.00     0.048 A 
HETATM    4 BR1  UNL     1      32.038  28.719  12.877  1.00  0.00    -0.048 Br
HETATM    5  C5  UNL     1      31.622  31.560  12.620  1.00  0.00     0.049 A 
HETATM    6  C6  UNL     1      30.880  32.736  12.367  1.00  0.00     0.057 A 
HETATM    7  N1  UNL     1      31.528  33.980  12.460  1.00  0.00    -0.102 NA
HETATM    8  C7  UNL     1      29.563  32.669  12.022  1.00  0.00     0.006 A 
ENDROOT
BRANCH   8   9
HETATM    9  C8  UNL     1      28.731  33.810  11.717  1.00  0.00     0.023 C 
HETATM   10  C9  UNL     1      28.652  34.923  12.707  1.00  0.00     0.009 C 
HETATM   11  C10 UNL     1      27.367  35.698  12.321  1.00  0.00     0.001 C 
HETATM   12  C11 UNL     1      27.493  36.281  10.948  1.00  0.00     0.000 C 
HETATM   13  C12 UNL     1      27.982  35.282   9.929  1.00  0.00     0.001 C 
HETATM   14  C13 UNL     1      29.177  34.496  10.401  1.00  0.00     0.009 C 
ENDBRANCH   8   9
BRANCH   1  15
HETATM   15  O1  UNL     1      27.655  31.310  11.581  1.00  0.00    -0.352 OA
HETATM   16  C1  UNL     1      27.445  31.053  10.182  1.00  0.00     0.210 C 
ENDBRANCH   1  15
BRANCH   2  17
HETATM   17  O2  UNL     1      29.061  28.999  12.061  1.00  0.00    -0.357 OA
ATOM     18  H2  UNL     1      29.547  28.199  12.222  1.00  0.00     0.218 HD
ENDBRANCH   2  17
TORSDOF 3
ENDMDL
MODEL 2
REMARK VINA RESULT: -6.560353429      2.083      2.964
REMARK  3 active torsions:
REMARK  status: ('A' for Active; 'I' for Inactive)
REMARK    1  A    between atoms: O1_2  and  C2_3 
REMARK    2  A    between atoms: C3_4  and  O2_5 
REMARK    3  A    between atoms: C7_12  and  C8_13 
ROOT
HETATM    1  C2  UNL     1      30.527  31.730  12.395  1.00  0.00     0.111 A 
HETATM    2  C3  UNL     1      31.035  30.495  12.714  1.00  0.00     0.117 A 
HETATM    3  C4  UNL     1      30.354  29.376  12.323  1.00  0.00     0.048 A 
HETATM    4 BR1  UNL     1      31.050  27.630  12.745  1.00  0.00    -0.048 Br
HETATM    5  C5  UNL     1      29.184  29.518  11.624  1.00  0.00     0.049 A 
HETATM    6  C6  UNL     1      28.681  30.801  11.309  1.00  0.00     0.057 A 
HETATM    7  N1  UNL     1      27.467  30.900  10.607  1.00  0.00    -0.102 NA
HETATM    8  C7  UNL     1      29.350  31.926  11.692  1.00  0.00     0.006 A 
ENDROOT
BRANCH   8   9
HETATM    9  C8  UNL     1      28.902  33.276  11.442  1.00  0.00     0.023 C 
HETATM   10  C9  UNL     1      28.579  33.676  10.042  1.00  0.00     0.009 C 
HETATM   11  C10 UNL     1      28.617  35.225  10.060  1.00  0.00     0.001 C 
HETATM   12  C11 UNL     1      27.563  35.769  10.974  1.00  0.00     0.000 C 
HETATM   13  C12 UNL     1      27.558  35.102  12.327  1.00  0.00     0.001 C 
HETATM   14  C13 UNL     1      27.615  33.600  12.243  1.00  0.00     0.009 C 
ENDBRANCH   8   9
BRANCH   1  15
HETATM   15  O1  UNL     1      31.232  32.880  12.800  1.00  0.00    -0.352 OA
HETATM   16  C1  UNL     1      32.206  33.323  11.839  1.00  0.00     0.210 C 
ENDBRANCH   1  15
BRANCH   2  17
HETATM   17  O2  UNL     1      32.243  30.406  13.436  1.00  0.00    -0.357 OA
ATOM     18  H2  UNL     1      32.258  30.646  14.355  1.00  0.00     0.218 HD
ENDBRANCH   2  17
TORSDOF 3
ENDMDL
MODEL 3
REMARK VINA RESULT: -6.427650991      2.028      2.664
REMARK  3 active torsions:
REMARK  status: ('A' for Active; 'I' for Inactive)
REMARK    1  A    between atoms: O1_2  and  C2_3 
REMARK    2  A    between atoms: C3_4  and  O2_5 
REMARK    3  A    between atoms: C7_12  and  C8_13 
ROOT
HETATM    1  C2  UNL     1      30.166  32.039  12.259  1.00  0.00     0.111 A 
HETATM    2  C3  UNL     1      30.805  30.857  12.535  1.00  0.00     0.117 A 
HETATM    3  C4  UNL     1      30.214  29.680  12.169  1.00  0.00     0.048 A 
HETATM    4 BR1  UNL     1      31.096  28.006  12.533  1.00  0.00    -0.048 Br
HETATM    5  C5  UNL     1      28.999  29.714  11.536  1.00  0.00     0.049 A 
HETATM    6  C6  UNL     1      28.360  30.945  11.263  1.00  0.00     0.057 A 
HETATM    7  N1  UNL     1      27.105  30.931  10.630  1.00  0.00    -0.102 NA
HETATM    8  C7  UNL     1      28.938  32.126  11.622  1.00  0.00     0.006 A 
ENDROOT
BRANCH   8   9
HETATM    9  C8  UNL     1      28.351  33.429  11.414  1.00  0.00     0.023 C 
HETATM   10  C9  UNL     1      28.414  34.428  12.520  1.00  0.00     0.009 C 
HETATM   11  C10 UNL     1      27.320  35.467  12.170  1.00  0.00     0.001 C 
HETATM   12  C11 UNL     1      27.638  36.155  10.879  1.00  0.00     0.000 C 
HETATM   13  C12 UNL     1      27.999  35.193   9.774  1.00  0.00     0.001 C 
HETATM   14  C13 UNL     1      28.998  34.151  10.205  1.00  0.00     0.009 C 
ENDBRANCH   8   9
BRANCH   1  15
HETATM   15  O1  UNL     1      30.779  33.249  12.638  1.00  0.00    -0.352 OA
HETATM   16  C1  UNL     1      31.971  33.546  11.891  1.00  0.00     0.210 C 
ENDBRANCH   1  15
BRANCH   2  17
HETATM   17  O2  UNL     1      32.054  30.879  13.190  1.00  0.00    -0.357 OA
ATOM     18  H2  UNL     1      32.440  30.065  13.490  1.00  0.00     0.218 HD
ENDBRANCH   2  17
TORSDOF 3
ENDMDL
MODEL 4
REMARK VINA RESULT: -6.172022730      1.343      1.457
REMARK  3 active torsions:
REMARK  status: ('A' for Active; 'I' for Inactive)
REMARK    1  A    between atoms: O1_2  and  C2_3 
REMARK    2  A    between atoms: C3_4  and  O2_5 
REMARK    3  A    between atoms: C7_12  and  C8_13 
ROOT
HETATM    1  C2  UNL     1      29.604  31.188  11.895  1.00  0.00     0.111 A 
HETATM    2  C3  UNL     1      29.895  29.861  12.089  1.00  0.00     0.117 A 
HETATM    3  C4  UNL     1      31.000  29.523  12.820  1.00  0.00     0.048 A 
HETATM    4 BR1  UNL     1      31.424  27.667  13.119  1.00  0.00    -0.048 Br
HETATM    5  C5  UNL     1      31.786  30.518  13.338  1.00  0.00     0.049 A 
HETATM    6  C6  UNL     1      31.465  31.878  13.123  1.00  0.00     0.057 A 
HETATM    7  N1  UNL     1      32.311  32.867  13.656  1.00  0.00    -0.102 NA
HETATM    8  C7  UNL     1      30.367  32.230  12.397  1.00  0.00     0.006 A 
ENDROOT
BRANCH   8   9
HETATM    9  C8  UNL     1      29.974  33.588  12.099  1.00  0.00     0.023 C 
HETATM   10  C9  UNL     1      29.675  34.511  13.232  1.00  0.00     0.009 C 
HETATM   11  C10 UNL     1      28.852  35.657  12.594  1.00  0.00     0.001 C 
HETATM   12  C11 UNL     1      29.668  36.392  11.576  1.00  0.00     0.000 C 
HETATM   13  C12 UNL     1      30.363  35.469  10.605  1.00  0.00     0.001 C 
HETATM   14  C13 UNL     1      31.066  34.323  11.282  1.00  0.00     0.009 C 
ENDBRANCH   8   9
BRANCH   1  15
HETATM   15  O1  UNL     1      28.464  31.531  11.142  1.00  0.00    -0.352 OA
HETATM   16  C1  UNL     1      27.257  31.583  11.920  1.00  0.00     0.210 C 
ENDBRANCH   1  15
BRANCH   2  17
HETATM   17  O2  UNL     1      29.052  28.876  11.532  1.00  0.00    -0.357 OA
ATOM     18  H2  UNL     1      28.386  28.469  12.074  1.00  0.00     0.218 HD
ENDBRANCH   2  17
TORSDOF 3
ENDMDL
MODEL 5
REMARK VINA RESULT: -5.943056550      2.770      5.681
REMARK  3 active torsions:
REMARK  status: ('A' for Active; 'I' for Inactive)
REMARK    1  A    between atoms: O1_2  and  C2_3 
REMARK    2  A    between atoms: C3_4  and  O2_5 
REMARK    3  A    between atoms: C7_12  and  C8_13 
ROOT
HETATM    1  C2  UNL     1      28.937  29.783  11.704  1.00  0.00     0.111 A 
HETATM    2  C3  UNL     1      27.929  30.673  11.430  1.00  0.00     0.117 A 
HETATM    3  C4  UNL     1      28.166  32.012  11.576  1.00  0.00     0.048 A 
HETATM    4 BR1  UNL     1      26.773  33.284  11.184  1.00  0.00    -0.048 Br
HETATM    5  C5  UNL     1      29.404  32.427  11.992  1.00  0.00     0.049 A 
HETATM    6  C6  UNL     1      30.425  31.490  12.269  1.00  0.00     0.057 A 
HETATM    7  N1  UNL     1      31.674  31.960  12.713  1.00  0.00    -0.102 NA
HETATM    8  C7  UNL     1      30.203  30.153  12.128  1.00  0.00     0.006 A 
ENDROOT
BRANCH   8   9
HETATM    9  C8  UNL     1      31.172  29.121  12.415  1.00  0.00     0.023 C 
HETATM   10  C9  UNL     1      32.405  29.045  11.579  1.00  0.00     0.009 C 
HETATM   11  C10 UNL     1      32.947  27.613  11.811  1.00  0.00     0.001 C 
HETATM   12  C11 UNL     1      33.323  27.415  13.247  1.00  0.00     0.000 C 
HETATM   13  C12 UNL     1      32.248  27.868  14.203  1.00  0.00     0.001 C 
HETATM   14  C13 UNL     1      31.698  29.230  13.868  1.00  0.00     0.009 C 
ENDBRANCH   8   9
BRANCH   1  15
HETATM   15  O1  UNL     1      28.687  28.405  11.553  1.00  0.00    -0.352 OA
HETATM   16  C1  UNL     1      28.865  27.936  10.206  1.00  0.00     0.210 C 
ENDBRANCH   1  15
BRANCH   2  17
HETATM   17  O2  UNL     1      26.673  30.191  11.006  1.00  0.00    -0.357 OA
ATOM     18  H2  UNL     1      26.118  29.726  11.621  1.00  0.00     0.218 HD
ENDBRANCH   2  17
TORSDOF 3
ENDMDL
