MODEL 1
REMARK VINA RESULT: -8.818404913      0.000      0.000
REMARK  4 active torsions:
REMARK  status: ('A' for Active; 'I' for Inactive)
REMARK    1  A    between atoms: O1_1  and  N1_3 
REMARK    2  A    between atoms: C1_5  and  O2_6 
REMARK    3  A    between atoms: C1_5  and  C2_8 
REMARK    4  A    between atoms: N2_10  and  C4_11 
ROOT
HETATM    1  C2  UNL     1      31.180  30.011  12.990  1.00  0.00     0.055 A 
HETATM    2  C3  UNL     1      31.047  31.407  12.889  1.00  0.00     0.109 A 
HETATM    3  N2  UNL     1      29.973  31.737  12.156  1.00  0.00    -0.354 N 
HETATM    4  C15 UNL     1      29.418  30.595  11.787  1.00  0.00     0.116 A 
HETATM    5  C16 UNL     1      30.122  29.499  12.273  1.00  0.00     0.065 A 
HETATM    6 CL1  UNL     1      29.690  27.817  11.992  1.00  0.00    -0.082 Cl
ENDROOT
BRANCH   3   7
HETATM    7  C4  UNL     1      29.520  33.092  11.839  1.00  0.00     0.037 C 
HETATM    8  C5  UNL     1      28.588  33.507  12.934  1.00  0.00     0.032 C 
HETATM    9  C6  UNL     1      28.521  34.970  13.182  1.00  0.00     0.007 C 
HETATM   10  C7  UNL     1      28.328  35.809  11.961  1.00  0.00    -0.014 C 
HETATM   11  C8  UNL     1      29.693  36.305  11.537  1.00  0.00     0.009 C 
HETATM   12  C12 UNL     1      27.561  35.154  10.872  1.00  0.00     0.009 C 
HETATM   13  C9  UNL     1      30.422  35.215  10.830  1.00  0.00    -0.012 C 
HETATM   14  C10 UNL     1      29.676  34.908   9.549  1.00  0.00     0.009 C 
HETATM   15  C14 UNL     1      30.685  33.998  11.637  1.00  0.00     0.036 C 
HETATM   16  C11 UNL     1      28.357  34.289   9.959  1.00  0.00    -0.012 C 
HETATM   17  C13 UNL     1      28.673  32.943  10.571  1.00  0.00     0.036 C 
ENDBRANCH   3   7
BRANCH   1  18
HETATM   18  C1  UNL     1      32.231  29.330  13.708  1.00  0.00     0.173 C 
HETATM   19  N1  UNL     1      33.230  28.764  13.288  1.00  0.00    -0.247 N 
ATOM     20  H1  UNL     1      33.741  28.398  14.091  1.00  0.00     0.196 HD
BRANCH  19  21
HETATM   21  O1  UNL     1      33.894  28.448  12.215  1.00  0.00    -0.288 OA
ATOM     22  H1  UNL     1      34.168  27.727  11.662  1.00  0.00     0.244 HD
ENDBRANCH  19  21
BRANCH  18  23
HETATM   23  O2  UNL     1      32.088  29.308  15.131  1.00  0.00    -0.344 OA
ATOM     24  H2  UNL     1      31.274  29.678  15.453  1.00  0.00     0.219 HD
ENDBRANCH  18  23
ENDBRANCH   1  18
TORSDOF 4
ENDMDL
MODEL 2
REMARK VINA RESULT: -8.604998839      0.426      1.150
REMARK  4 active torsions:
REMARK  status: ('A' for Active; 'I' for Inactive)
REMARK    1  A    between atoms: O1_1  and  N1_3 
REMARK    2  A    between atoms: C1_5  and  O2_6 
REMARK    3  A    between atoms: C1_5  and  C2_8 
REMARK    4  A    between atoms: N2_10  and  C4_11 
ROOT
HETATM    1  C2  UNL     1      31.066  29.909  12.641  1.00  0.00     0.055 A 
HETATM    2  C3  UNL     1      30.994  31.310  12.552  1.00  0.00     0.109 A 
HETATM    3  N2  UNL     1      29.836  31.699  11.998  1.00  0.00    -0.354 N 
HETATM    4  C15 UNL     1      29.168  30.589  11.732  1.00  0.00     0.116 A 
HETATM    5  C16 UNL     1      29.880  29.456  12.108  1.00  0.00     0.065 A 
HETATM    6 CL1  UNL     1      29.319  27.800  11.913  1.00  0.00    -0.082 Cl
ENDROOT
BRANCH   3   7
HETATM    7  C4  UNL     1      29.412  33.077  11.747  1.00  0.00     0.037 C 
HETATM    8  C5  UNL     1      28.481  33.454  12.856  1.00  0.00     0.032 C 
HETATM    9  C6  UNL     1      28.441  34.904  13.177  1.00  0.00     0.007 C 
HETATM   10  C7  UNL     1      28.273  35.807  11.999  1.00  0.00    -0.014 C 
HETATM   11  C8  UNL     1      29.650  36.297  11.609  1.00  0.00     0.009 C 
HETATM   12  C12 UNL     1      27.501  35.223  10.872  1.00  0.00     0.009 C 
HETATM   13  C9  UNL     1      30.364  35.229  10.853  1.00  0.00    -0.012 C 
HETATM   14  C10 UNL     1      29.621  35.002   9.553  1.00  0.00     0.009 C 
HETATM   15  C14 UNL     1      30.596  33.968  11.598  1.00  0.00     0.036 C 
HETATM   16  C11 UNL     1      28.287  34.390   9.923  1.00  0.00    -0.012 C 
HETATM   17  C13 UNL     1      28.572  33.008  10.467  1.00  0.00     0.036 C 
ENDBRANCH   3   7
BRANCH   1  18
HETATM   18  C1  UNL     1      32.180  29.170  13.187  1.00  0.00     0.173 C 
HETATM   19  N1  UNL     1      32.419  28.849  14.343  1.00  0.00    -0.247 N 
ATOM     20  H1  UNL     1      33.299  28.334  14.347  1.00  0.00     0.196 HD
BRANCH  19  21
HETATM   21  O1  UNL     1      31.986  28.909  15.568  1.00  0.00    -0.288 OA
ATOM     22  H1  UNL     1      32.221  29.136  16.459  1.00  0.00     0.244 HD
ENDBRANCH  19  21
BRANCH  18  23
HETATM   23  O2  UNL     1      33.162  28.747  12.236  1.00  0.00    -0.344 OA
ATOM     24  H2  UNL     1      32.927  27.969  11.746  1.00  0.00     0.219 HD
ENDBRANCH  18  23
ENDBRANCH   1  18
TORSDOF 4
ENDMDL
MODEL 3
REMARK VINA RESULT: -8.558832029      2.570      3.083
REMARK  4 active torsions:
REMARK  status: ('A' for Active; 'I' for Inactive)
REMARK    1  A    between atoms: O1_1  and  N1_3 
REMARK    2  A    between atoms: C1_5  and  O2_6 
REMARK    3  A    between atoms: C1_5  and  C2_8 
REMARK    4  A    between atoms: N2_10  and  C4_11 
ROOT
HETATM    1  C2  UNL     1      28.296  29.539  11.930  1.00  0.00     0.055 A 
HETATM    2  C3  UNL     1      27.912  30.872  11.705  1.00  0.00     0.109 A 
HETATM    3  N2  UNL     1      28.968  31.696  11.770  1.00  0.00    -0.354 N 
HETATM    4  C15 UNL     1      30.014  30.929  12.029  1.00  0.00     0.116 A 
HETATM    5  C16 UNL     1      29.656  29.590  12.138  1.00  0.00     0.065 A 
HETATM    6 CL1  UNL     1      30.772  28.272  12.475  1.00  0.00    -0.082 Cl
ENDROOT
BRANCH   3   7
HETATM    7  C4  UNL     1      28.951  33.148  11.588  1.00  0.00     0.037 C 
HETATM    8  C5  UNL     1      28.081  33.712  12.667  1.00  0.00     0.032 C 
HETATM    9  C6  UNL     1      28.412  35.099  13.081  1.00  0.00     0.007 C 
HETATM   10  C7  UNL     1      28.578  36.070  11.958  1.00  0.00    -0.014 C 
HETATM   11  C8  UNL     1      30.060  36.182  11.676  1.00  0.00     0.009 C 
HETATM   12  C12 UNL     1      27.758  35.776  10.755  1.00  0.00     0.009 C 
HETATM   13  C9  UNL     1      30.509  34.998  10.891  1.00  0.00    -0.012 C 
HETATM   14  C10 UNL     1      29.826  35.047   9.540  1.00  0.00     0.009 C 
HETATM   15  C14 UNL     1      30.340  33.687  11.563  1.00  0.00     0.036 C 
HETATM   16  C11 UNL     1      28.354  34.806   9.796  1.00  0.00    -0.012 C 
HETATM   17  C13 UNL     1      28.216  33.375  10.263  1.00  0.00     0.036 C 
ENDBRANCH   3   7
BRANCH   1  18
HETATM   18  C1  UNL     1      27.399  28.408  11.929  1.00  0.00     0.173 C 
HETATM   19  N1  UNL     1      26.574  28.060  11.096  1.00  0.00    -0.247 N 
ATOM     20  H1  UNL     1      26.125  27.211  11.438  1.00  0.00     0.196 HD
BRANCH  19  21
HETATM   21  O1  UNL     1      26.047  28.353   9.943  1.00  0.00    -0.288 OA
ATOM     22  H1  UNL     1      25.416  28.076   9.290  1.00  0.00     0.244 HD
ENDBRANCH  19  21
BRANCH  18  23
HETATM   23  O2  UNL     1      27.480  27.558  13.077  1.00  0.00    -0.344 OA
ATOM     24  H2  UNL     1      28.171  26.907  13.039  1.00  0.00     0.219 HD
ENDBRANCH  18  23
ENDBRANCH   1  18
TORSDOF 4
ENDMDL
MODEL 4
REMARK VINA RESULT: -8.543772453      2.608      3.244
REMARK  4 active torsions:
REMARK  status: ('A' for Active; 'I' for Inactive)
REMARK    1  A    between atoms: O1_1  and  N1_3 
REMARK    2  A    between atoms: C1_5  and  O2_6 
REMARK    3  A    between atoms: C1_5  and  C2_8 
REMARK    4  A    between atoms: N2_10  and  C4_11 
ROOT
HETATM    1  C2  UNL     1      27.898  29.542  11.744  1.00  0.00     0.055 A 
HETATM    2  C3  UNL     1      27.604  30.907  11.583  1.00  0.00     0.109 A 
HETATM    3  N2  UNL     1      28.718  31.651  11.647  1.00  0.00    -0.354 N 
HETATM    4  C15 UNL     1      29.713  30.802  11.845  1.00  0.00     0.116 A 
HETATM    5  C16 UNL     1      29.263  29.488  11.913  1.00  0.00     0.065 A 
HETATM    6 CL1  UNL     1      30.290  28.082  12.166  1.00  0.00    -0.082 Cl
ENDROOT
BRANCH   3   7
HETATM    7  C4  UNL     1      28.801  33.107  11.522  1.00  0.00     0.037 C 
HETATM    8  C5  UNL     1      27.967  33.686  12.622  1.00  0.00     0.032 C 
HETATM    9  C6  UNL     1      28.390  35.030  13.090  1.00  0.00     0.007 C 
HETATM   10  C7  UNL     1      28.626  36.031  12.006  1.00  0.00    -0.014 C 
HETATM   11  C8  UNL     1      30.113  36.053  11.730  1.00  0.00     0.009 C 
HETATM   12  C12 UNL     1      27.791  35.840  10.792  1.00  0.00     0.009 C 
HETATM   13  C9  UNL     1      30.483  34.872  10.899  1.00  0.00    -0.012 C 
HETATM   14  C10 UNL     1      29.810  35.020   9.551  1.00  0.00     0.009 C 
HETATM   15  C14 UNL     1      30.222  33.551  11.519  1.00  0.00     0.036 C 
HETATM   16  C11 UNL     1      28.323  34.870   9.796  1.00  0.00    -0.012 C 
HETATM   17  C13 UNL     1      28.087  33.434  10.207  1.00  0.00     0.036 C 
ENDBRANCH   3   7
BRANCH   1  18
HETATM   18  C1  UNL     1      26.922  28.478  11.726  1.00  0.00     0.173 C 
HETATM   19  N1  UNL     1      26.647  27.650  12.583  1.00  0.00    -0.247 N 
ATOM     20  H1  UNL     1      25.904  27.056  12.215  1.00  0.00     0.196 HD
BRANCH  19  21
HETATM   21  O1  UNL     1      26.934  27.233  13.781  1.00  0.00    -0.288 OA
ATOM     22  H1  UNL     1      26.624  26.712  14.512  1.00  0.00     0.244 HD
ENDBRANCH  19  21
BRANCH  18  23
HETATM   23  O2  UNL     1      26.155  28.367  10.524  1.00  0.00    -0.344 OA
ATOM     24  H2  UNL     1      26.171  29.140   9.972  1.00  0.00     0.219 HD
ENDBRANCH  18  23
ENDBRANCH   1  18
TORSDOF 4
ENDMDL
MODEL 5
REMARK VINA RESULT: -8.536688749      2.938      3.664
REMARK  4 active torsions:
REMARK  status: ('A' for Active; 'I' for Inactive)
REMARK    1  A    between atoms: O1_1  and  N1_3 
REMARK    2  A    between atoms: C1_5  and  O2_6 
REMARK    3  A    between atoms: C1_5  and  C2_8 
REMARK    4  A    between atoms: N2_10  and  C4_11 
ROOT
HETATM    1  C2  UNL     1      27.723  29.871  11.176  1.00  0.00     0.055 A 
HETATM    2  C3  UNL     1      27.371  31.230  11.093  1.00  0.00     0.109 A 
HETATM    3  N2  UNL     1      28.360  32.012  11.549  1.00  0.00    -0.354 N 
HETATM    4  C15 UNL     1      29.331  31.195  11.922  1.00  0.00     0.116 A 
HETATM    5  C16 UNL     1      28.990  29.863  11.714  1.00  0.00     0.065 A 
HETATM    6 CL1  UNL     1      30.022  28.487  12.086  1.00  0.00    -0.082 Cl
ENDROOT
BRANCH   3   7
HETATM    7  C4  UNL     1      28.353  33.475  11.615  1.00  0.00     0.037 C 
HETATM    8  C5  UNL     1      26.923  33.906  11.523  1.00  0.00     0.032 C 
HETATM    9  C6  UNL     1      26.612  35.198  12.188  1.00  0.00     0.007 C 
HETATM   10  C7  UNL     1      27.539  36.320  11.852  1.00  0.00    -0.014 C 
HETATM   11  C8  UNL     1      28.563  36.405  12.962  1.00  0.00     0.009 C 
HETATM   12  C12 UNL     1      28.131  36.251  10.491  1.00  0.00     0.009 C 
HETATM   13  C9  UNL     1      29.585  35.335  12.780  1.00  0.00    -0.012 C 
HETATM   14  C10 UNL     1      30.338  35.622  11.499  1.00  0.00     0.009 C 
HETATM   15  C14 UNL     1      29.067  33.946  12.834  1.00  0.00     0.036 C 
HETATM   16  C11 UNL     1      29.354  35.413  10.368  1.00  0.00    -0.012 C 
HETATM   17  C13 UNL     1      29.038  33.935  10.325  1.00  0.00     0.036 C 
ENDBRANCH   3   7
BRANCH   1  18
HETATM   18  C1  UNL     1      26.880  28.773  10.768  1.00  0.00     0.173 C 
HETATM   19  N1  UNL     1      26.438  27.837  11.420  1.00  0.00    -0.247 N 
ATOM     20  H1  UNL     1      25.881  27.256  10.793  1.00  0.00     0.196 HD
BRANCH  19  21
HETATM   21  O1  UNL     1      26.403  27.295  12.601  1.00  0.00    -0.288 OA
ATOM     22  H1  UNL     1      25.925  26.695  13.162  1.00  0.00     0.244 HD
ENDBRANCH  19  21
BRANCH  18  23
HETATM   23  O2  UNL     1      26.501  28.769   9.389  1.00  0.00    -0.344 OA
ATOM     24  H2  UNL     1      25.985  29.519   9.119  1.00  0.00     0.219 HD
ENDBRANCH  18  23
ENDBRANCH   1  18
TORSDOF 4
ENDMDL
