MODEL 1
REMARK VINA RESULT: -4.330639092      0.000      0.000
REMARK  4 active torsions:
REMARK  status: ('A' for Active; 'I' for Inactive)
REMARK    1  A    between atoms: N1_1  and  N2_4 
REMARK    2  A    between atoms: C1_6  and  N3_7 
REMARK    3  A    between atoms: N3_7  and  C2_9 
REMARK    4  A    between atoms: C2_9  and  C3_10 
ROOT
HETATM    1  C2  UNL     1     -13.432  -5.610  50.231  1.00  0.00     0.130 C 
ENDROOT
BRANCH   1   2
HETATM    2  N3  UNL     1     -12.015  -5.443  49.975  1.00  0.00    -0.384 N 
ATOM      3  H3  UNL     1     -11.568  -4.548  50.173  1.00  0.00     0.160 HD
BRANCH   2   4
HETATM    4  C1  UNL     1     -11.255  -6.498  49.458  1.00  0.00     0.192 C 
HETATM    5  N2  UNL     1     -10.473  -6.350  48.455  1.00  0.00    -0.303 N 
ATOM      6  H2  UNL     1     -10.389  -5.439  48.006  1.00  0.00     0.187 HD
BRANCH   5   7
HETATM    7  N1  UNL     1      -9.739  -7.435  47.976  1.00  0.00    -0.344 N 
ATOM      8  H12 UNL     1     -10.123  -8.374  48.074  1.00  0.00     0.176 HD
ATOM      9  H11 UNL     1      -8.831  -7.282  47.536  1.00  0.00     0.176 HD
ENDBRANCH   5   7
ENDBRANCH   2   4
ENDBRANCH   1   2
BRANCH   1  10
HETATM   10  C3  UNL     1     -13.879  -5.081  51.568  1.00  0.00     0.045 C 
HETATM   11  C4  UNL     1     -13.211  -5.877  52.626  1.00  0.00     0.086 C 
HETATM   12  N4  UNL     1     -13.791  -6.892  53.119  1.00  0.00    -0.320 N 
HETATM   13  N5  UNL     1     -15.067  -7.323  52.720  1.00  0.00    -0.337 N 
ATOM     14  H4  UNL     1     -13.306  -7.422  53.844  1.00  0.00     0.185 HD
HETATM   15  C5  UNL     1     -15.962  -6.453  51.985  1.00  0.00     0.140 C 
ATOM     16  H5  UNL     1     -15.370  -8.270  52.952  1.00  0.00     0.180 HD
HETATM   17  C6  UNL     1     -15.341  -5.101  51.830  1.00  0.00     0.032 C 
ENDBRANCH   1  10
TORSDOF 4
ENDMDL
MODEL 2
REMARK VINA RESULT: -4.220430862      1.108      1.396
REMARK  4 active torsions:
REMARK  status: ('A' for Active; 'I' for Inactive)
REMARK    1  A    between atoms: N1_1  and  N2_4 
REMARK    2  A    between atoms: C1_6  and  N3_7 
REMARK    3  A    between atoms: N3_7  and  C2_9 
REMARK    4  A    between atoms: C2_9  and  C3_10 
ROOT
HETATM    1  C2  UNL     1     -12.393  -6.095  49.718  1.00  0.00     0.130 C 
ENDROOT
BRANCH   1   2
HETATM    2  N3  UNL     1     -10.987  -6.280  49.418  1.00  0.00    -0.384 N 
ATOM      3  H3  UNL     1     -10.282  -5.891  50.042  1.00  0.00     0.160 HD
BRANCH   2   4
HETATM    4  C1  UNL     1     -10.589  -6.988  48.277  1.00  0.00     0.192 C 
HETATM    5  N2  UNL     1      -9.520  -7.691  48.248  1.00  0.00    -0.303 N 
ATOM      6  H2  UNL     1      -8.928  -7.752  49.076  1.00  0.00     0.187 HD
BRANCH   5   7
HETATM    7  N1  UNL     1      -9.165  -8.375  47.086  1.00  0.00    -0.344 N 
ATOM      8  H12 UNL     1      -9.871  -8.523  46.364  1.00  0.00     0.176 HD
ATOM      9  H11 UNL     1      -8.212  -8.721  46.967  1.00  0.00     0.176 HD
ENDBRANCH   5   7
ENDBRANCH   2   4
ENDBRANCH   1   2
BRANCH   1  10
HETATM   10  C3  UNL     1     -12.652  -5.376  51.015  1.00  0.00     0.045 C 
HETATM   11  C4  UNL     1     -12.770  -6.392  52.089  1.00  0.00     0.086 C 
HETATM   12  N4  UNL     1     -13.908  -6.850  52.410  1.00  0.00    -0.320 N 
HETATM   13  N5  UNL     1     -15.105  -6.444  51.798  1.00  0.00    -0.337 N 
ATOM     14  H4  UNL     1     -13.957  -7.550  53.151  1.00  0.00     0.185 HD
HETATM   15  C5  UNL     1     -15.176  -5.226  51.015  1.00  0.00     0.140 C 
ATOM     16  H5  UNL     1     -15.942  -7.018  51.906  1.00  0.00     0.180 HD
HETATM   17  C6  UNL     1     -13.862  -4.515  51.062  1.00  0.00     0.032 C 
ENDBRANCH   1  10
TORSDOF 4
ENDMDL
MODEL 3
REMARK VINA RESULT: -4.123610987      2.812      6.400
REMARK  4 active torsions:
REMARK  status: ('A' for Active; 'I' for Inactive)
REMARK    1  A    between atoms: N1_1  and  N2_4 
REMARK    2  A    between atoms: C1_6  and  N3_7 
REMARK    3  A    between atoms: N3_7  and  C2_9 
REMARK    4  A    between atoms: C2_9  and  C3_10 
ROOT
HETATM    1  C2  UNL     1      -9.775  -6.587  48.501  1.00  0.00     0.130 C 
ENDROOT
BRANCH   1   2
HETATM    2  N3  UNL     1     -11.165  -6.257  48.740  1.00  0.00    -0.384 N 
ATOM      3  H3  UNL     1     -11.760  -5.976  47.961  1.00  0.00     0.160 HD
BRANCH   2   4
HETATM    4  C1  UNL     1     -11.701  -6.321  50.032  1.00  0.00     0.192 C 
HETATM    5  N2  UNL     1     -11.546  -7.343  50.787  1.00  0.00    -0.303 N 
ATOM      6  H2  UNL     1     -11.016  -8.147  50.452  1.00  0.00     0.187 HD
BRANCH   5   7
HETATM    7  N1  UNL     1     -12.102  -7.358  52.066  1.00  0.00    -0.344 N 
ATOM      8  H12 UNL     1     -11.570  -6.963  52.841  1.00  0.00     0.176 HD
ATOM      9  H11 UNL     1     -13.028  -7.760  52.216  1.00  0.00     0.176 HD
ENDBRANCH   5   7
ENDBRANCH   2   4
ENDBRANCH   1   2
BRANCH   1  10
HETATM   10  C3  UNL     1      -9.574  -7.726  47.535  1.00  0.00     0.045 C 
HETATM   11  C4  UNL     1      -9.640  -8.995  48.300  1.00  0.00     0.086 C 
HETATM   12  N4  UNL     1      -8.578  -9.524  48.749  1.00  0.00    -0.320 N 
HETATM   13  N5  UNL     1      -7.301  -8.971  48.561  1.00  0.00    -0.337 N 
ATOM     14  H4  UNL     1      -8.656 -10.396  49.273  1.00  0.00     0.185 HD
HETATM   15  C5  UNL     1      -7.056  -7.963  47.549  1.00  0.00     0.140 C 
ATOM     16  H5  UNL     1      -6.529  -9.285  49.150  1.00  0.00     0.180 HD
HETATM   17  C6  UNL     1      -8.305  -7.720  46.763  1.00  0.00     0.032 C 
ENDBRANCH   1  10
TORSDOF 4
ENDMDL
MODEL 4
REMARK VINA RESULT: -4.057118167      1.414      2.011
REMARK  4 active torsions:
REMARK  status: ('A' for Active; 'I' for Inactive)
REMARK    1  A    between atoms: N1_1  and  N2_4 
REMARK    2  A    between atoms: C1_6  and  N3_7 
REMARK    3  A    between atoms: N3_7  and  C2_9 
REMARK    4  A    between atoms: C2_9  and  C3_10 
ROOT
HETATM    1  C2  UNL     1     -13.195  -5.748  52.140  1.00  0.00     0.130 C 
ENDROOT
BRANCH   1   2
HETATM    2  N3  UNL     1     -12.540  -7.041  52.177  1.00  0.00    -0.384 N 
ATOM      3  H3  UNL     1     -12.713  -7.673  52.958  1.00  0.00     0.160 HD
BRANCH   2   4
HETATM    4  C1  UNL     1     -11.671  -7.430  51.151  1.00  0.00     0.192 C 
HETATM    5  N2  UNL     1     -11.507  -6.730  50.092  1.00  0.00    -0.303 N 
ATOM      6  H2  UNL     1     -12.018  -5.855  49.976  1.00  0.00     0.187 HD
BRANCH   5   7
HETATM    7  N1  UNL     1     -10.631  -7.162  49.097  1.00  0.00    -0.344 N 
ATOM      8  H12 UNL     1     -11.004  -7.387  48.174  1.00  0.00     0.176 HD
ATOM      9  H11 UNL     1      -9.635  -7.251  49.296  1.00  0.00     0.176 HD
ENDBRANCH   5   7
ENDBRANCH   2   4
ENDBRANCH   1   2
BRANCH   1  10
HETATM   10  C3  UNL     1     -14.376  -5.635  53.067  1.00  0.00     0.045 C 
HETATM   11  C4  UNL     1     -15.092  -6.934  53.063  1.00  0.00     0.086 C 
HETATM   12  N4  UNL     1     -16.059  -7.125  52.265  1.00  0.00    -0.320 N 
HETATM   13  N5  UNL     1     -16.516  -6.155  51.357  1.00  0.00    -0.337 N 
ATOM     14  H4  UNL     1     -16.530  -8.030  52.284  1.00  0.00     0.185 HD
HETATM   15  C5  UNL     1     -16.162  -4.758  51.505  1.00  0.00     0.140 C 
ATOM     16  H5  UNL     1     -17.108  -6.441  50.577  1.00  0.00     0.180 HD
HETATM   17  C6  UNL     1     -15.360  -4.567  52.753  1.00  0.00     0.032 C 
ENDBRANCH   1  10
TORSDOF 4
ENDMDL
MODEL 5
REMARK VINA RESULT: -3.839581695      1.086      1.135
REMARK  4 active torsions:
REMARK  status: ('A' for Active; 'I' for Inactive)
REMARK    1  A    between atoms: N1_1  and  N2_4 
REMARK    2  A    between atoms: C1_6  and  N3_7 
REMARK    3  A    between atoms: N3_7  and  C2_9 
REMARK    4  A    between atoms: C2_9  and  C3_10 
ROOT
HETATM    1  C2  UNL     1     -12.577  -6.233  51.213  1.00  0.00     0.130 C 
ENDROOT
BRANCH   1   2
HETATM    2  N3  UNL     1     -12.093  -6.081  49.855  1.00  0.00    -0.384 N 
ATOM      3  H3  UNL     1     -12.562  -5.435  49.221  1.00  0.00     0.160 HD
BRANCH   2   4
HETATM    4  C1  UNL     1     -10.989  -6.815  49.406  1.00  0.00     0.192 C 
HETATM    5  N2  UNL     1     -10.703  -6.928  48.164  1.00  0.00    -0.303 N 
ATOM      6  H2  UNL     1     -11.288  -6.473  47.463  1.00  0.00     0.187 HD
BRANCH   5   7
HETATM    7  N1  UNL     1      -9.593  -7.673  47.767  1.00  0.00    -0.344 N 
ATOM      8  H12 UNL     1      -8.797  -7.749  48.400  1.00  0.00     0.176 HD
ATOM      9  H11 UNL     1      -9.584  -8.132  46.856  1.00  0.00     0.176 HD
ENDBRANCH   5   7
ENDBRANCH   2   4
ENDBRANCH   1   2
BRANCH   1  10
HETATM   10  C3  UNL     1     -13.761  -5.361  51.541  1.00  0.00     0.045 C 
HETATM   11  C4  UNL     1     -13.473  -4.650  52.810  1.00  0.00     0.086 C 
HETATM   12  N4  UNL     1     -13.852  -5.143  53.916  1.00  0.00    -0.320 N 
HETATM   13  N5  UNL     1     -14.552  -6.356  54.022  1.00  0.00    -0.337 N 
ATOM     14  H4  UNL     1     -13.636  -4.633  54.773  1.00  0.00     0.185 HD
HETATM   15  C5  UNL     1     -15.206  -6.952  52.874  1.00  0.00     0.140 C 
ATOM     16  H5  UNL     1     -14.602  -6.828  54.925  1.00  0.00     0.180 HD
HETATM   17  C6  UNL     1     -15.068  -6.052  51.688  1.00  0.00     0.032 C 
ENDBRANCH   1  10
TORSDOF 4
ENDMDL
