MODEL 1
REMARK VINA RESULT: -4.503996627      0.000      0.000
REMARK  4 active torsions:
REMARK  status: ('A' for Active; 'I' for Inactive)
REMARK    1  A    between atoms: N1_2  and  C2_4 
REMARK    2  A    between atoms: C2_4  and  C3_5 
REMARK    3  A    between atoms: C3_5  and  N2_6 
REMARK    4  A    between atoms: N3_8  and  C4_10 
ROOT
HETATM    1  N2  UNL     1     -14.425  -5.836  53.018  1.00  0.00    -0.332 N 
ATOM      2  H2  UNL     1     -14.837  -5.261  53.752  1.00  0.00     0.180 HD
HETATM    3  N3  UNL     1     -13.188  -5.775  52.816  1.00  0.00    -0.275 N 
ATOM      4  H3  UNL     1     -12.645  -5.143  53.404  1.00  0.00     0.189 HD
ENDROOT
BRANCH   3   5
HETATM    5  C4  UNL     1     -12.481  -6.525  51.822  1.00  0.00     0.207 C 
HETATM    6  N4  UNL     1     -11.895  -7.671  51.968  1.00  0.00    -0.273 N 
HETATM    7  N5  UNL     1     -11.321  -8.062  50.754  1.00  0.00    -0.119 NA
ATOM      8  H4  UNL     1     -11.858  -8.206  52.835  1.00  0.00     0.185 HD
HETATM    9  C5  UNL     1     -11.283  -6.883  49.891  1.00  0.00     0.259 C 
HETATM   10  N6  UNL     1     -12.333  -6.072  50.473  1.00  0.00    -0.345 N 
ATOM     11  H6  UNL     1     -12.859  -5.329  50.014  1.00  0.00     0.164 HD
ENDBRANCH   3   5
BRANCH   1  12
HETATM   12  C3  UNL     1     -15.277  -6.696  52.243  1.00  0.00     0.158 C 
BRANCH  12  13
HETATM   13  C2  UNL     1     -16.184  -5.927  51.313  1.00  0.00     0.134 C 
BRANCH  13  14
HETATM   14  N1  UNL     1     -15.519  -5.374  50.184  1.00  0.00    -0.424 N 
HETATM   15  C1  UNL     1     -15.362  -3.957  50.178  1.00  0.00     0.139 C 
ATOM     16  H1  UNL     1     -15.173  -5.958  49.423  1.00  0.00     0.152 HD
ENDBRANCH  13  14
ENDBRANCH  12  13
ENDBRANCH   1  12
TORSDOF 4
ENDMDL
MODEL 2
REMARK VINA RESULT: -4.221708361      1.789      4.595
REMARK  4 active torsions:
REMARK  status: ('A' for Active; 'I' for Inactive)
REMARK    1  A    between atoms: N1_2  and  C2_4 
REMARK    2  A    between atoms: C2_4  and  C3_5 
REMARK    3  A    between atoms: C3_5  and  N2_6 
REMARK    4  A    between atoms: N3_8  and  C4_10 
ROOT
HETATM    1  N2  UNL     1     -11.508  -7.348  50.998  1.00  0.00    -0.332 N 
ATOM      2  H2  UNL     1     -10.721  -7.977  50.837  1.00  0.00     0.180 HD
HETATM    3  N3  UNL     1     -12.144  -7.429  52.077  1.00  0.00    -0.275 N 
ATOM      4  H3  UNL     1     -11.838  -8.130  52.752  1.00  0.00     0.189 HD
ENDROOT
BRANCH   3   5
HETATM    5  C4  UNL     1     -13.265  -6.612  52.430  1.00  0.00     0.207 C 
HETATM    6  N4  UNL     1     -13.272  -5.337  52.655  1.00  0.00    -0.273 N 
HETATM    7  N5  UNL     1     -14.569  -4.923  52.971  1.00  0.00    -0.119 NA
ATOM      8  H4  UNL     1     -12.455  -4.728  52.609  1.00  0.00     0.185 HD
HETATM    9  C5  UNL     1     -15.345  -6.122  53.283  1.00  0.00     0.259 C 
HETATM   10  N6  UNL     1     -14.587  -7.139  52.584  1.00  0.00    -0.345 N 
ATOM     11  H6  UNL     1     -14.926  -8.046  52.265  1.00  0.00     0.164 HD
ENDBRANCH   3   5
BRANCH   1  12
HETATM   12  C3  UNL     1     -11.859  -6.395  49.981  1.00  0.00     0.158 C 
BRANCH  12  13
HETATM   13  C2  UNL     1     -10.737  -6.156  49.000  1.00  0.00     0.134 C 
BRANCH  13  14
HETATM   14  N1  UNL     1     -10.644  -7.141  47.979  1.00  0.00    -0.424 N 
HETATM   15  C1  UNL     1      -9.390  -7.808  47.860  1.00  0.00     0.139 C 
ATOM     16  H1  UNL     1     -11.431  -7.359  47.366  1.00  0.00     0.152 HD
ENDBRANCH  13  14
ENDBRANCH  12  13
ENDBRANCH   1  12
TORSDOF 4
ENDMDL
MODEL 3
REMARK VINA RESULT: -4.179226631      1.896      4.011
REMARK  4 active torsions:
REMARK  status: ('A' for Active; 'I' for Inactive)
REMARK    1  A    between atoms: N1_2  and  C2_4 
REMARK    2  A    between atoms: C2_4  and  C3_5 
REMARK    3  A    between atoms: C3_5  and  N2_6 
REMARK    4  A    between atoms: N3_8  and  C4_10 
ROOT
HETATM    1  N2  UNL     1     -13.270  -6.502  52.576  1.00  0.00    -0.332 N 
ATOM      2  H2  UNL     1     -12.310  -6.834  52.668  1.00  0.00     0.180 HD
HETATM    3  N3  UNL     1     -14.203  -7.190  53.057  1.00  0.00    -0.275 N 
ATOM      4  H3  UNL     1     -13.954  -8.062  53.523  1.00  0.00     0.189 HD
ENDROOT
BRANCH   3   5
HETATM    5  C4  UNL     1     -15.591  -6.843  52.999  1.00  0.00     0.207 C 
HETATM    6  N4  UNL     1     -16.465  -7.230  52.125  1.00  0.00    -0.273 N 
HETATM    7  N5  UNL     1     -17.709  -6.665  52.424  1.00  0.00    -0.119 NA
ATOM      8  H4  UNL     1     -16.275  -7.851  51.339  1.00  0.00     0.185 HD
HETATM    9  C5  UNL     1     -17.478  -5.581  53.375  1.00  0.00     0.259 C 
HETATM   10  N6  UNL     1     -16.212  -5.979  53.956  1.00  0.00    -0.345 N 
ATOM     11  H6  UNL     1     -15.839  -5.701  54.863  1.00  0.00     0.164 HD
ENDBRANCH   3   5
BRANCH   1  12
HETATM   12  C3  UNL     1     -13.517  -5.257  51.900  1.00  0.00     0.158 C 
BRANCH  12  13
HETATM   13  C2  UNL     1     -13.469  -5.396  50.398  1.00  0.00     0.134 C 
BRANCH  13  14
HETATM   14  N1  UNL     1     -14.738  -5.281  49.767  1.00  0.00    -0.424 N 
HETATM   15  C1  UNL     1     -15.571  -4.216  50.219  1.00  0.00     0.139 C 
ATOM     16  H1  UNL     1     -15.036  -5.925  49.033  1.00  0.00     0.152 HD
ENDBRANCH  13  14
ENDBRANCH  12  13
ENDBRANCH   1  12
TORSDOF 4
ENDMDL
MODEL 4
REMARK VINA RESULT: -4.147987438      1.805      3.101
REMARK  4 active torsions:
REMARK  status: ('A' for Active; 'I' for Inactive)
REMARK    1  A    between atoms: N1_2  and  C2_4 
REMARK    2  A    between atoms: C2_4  and  C3_5 
REMARK    3  A    between atoms: C3_5  and  N2_6 
REMARK    4  A    between atoms: N3_8  and  C4_10 
ROOT
HETATM    1  N2  UNL     1     -12.351  -4.751  50.248  1.00  0.00    -0.332 N 
ATOM      2  H2  UNL     1     -12.549  -3.764  50.416  1.00  0.00     0.180 HD
HETATM    3  N3  UNL     1     -11.330  -5.065  49.588  1.00  0.00    -0.275 N 
ATOM      4  H3  UNL     1     -10.738  -4.308  49.247  1.00  0.00     0.189 HD
ENDROOT
BRANCH   3   5
HETATM    5  C4  UNL     1     -10.935  -6.407  49.280  1.00  0.00     0.207 C 
HETATM    6  N4  UNL     1     -11.017  -7.448  50.045  1.00  0.00    -0.273 N 
HETATM    7  N5  UNL     1     -10.525  -8.568  49.367  1.00  0.00    -0.119 NA
ATOM      8  H4  UNL     1     -11.385  -7.451  50.996  1.00  0.00     0.185 HD
HETATM    9  C5  UNL     1      -9.778  -8.082  48.209  1.00  0.00     0.259 C 
HETATM   10  N6  UNL     1     -10.373  -6.775  48.017  1.00  0.00    -0.345 N 
ATOM     11  H6  UNL     1     -10.388  -6.229  47.156  1.00  0.00     0.164 HD
ENDBRANCH   3   5
BRANCH   1  12
HETATM   12  C3  UNL     1     -13.249  -5.743  50.773  1.00  0.00     0.158 C 
BRANCH  12  13
HETATM   13  C2  UNL     1     -13.231  -5.797  52.282  1.00  0.00     0.134 C 
BRANCH  13  14
HETATM   14  N1  UNL     1     -13.855  -6.955  52.824  1.00  0.00    -0.424 N 
HETATM   15  C1  UNL     1     -15.280  -6.952  52.841  1.00  0.00     0.139 C 
ATOM     16  H1  UNL     1     -13.313  -7.743  53.181  1.00  0.00     0.152 HD
ENDBRANCH  13  14
ENDBRANCH  12  13
ENDBRANCH   1  12
TORSDOF 4
ENDMDL
MODEL 5
REMARK VINA RESULT: -4.092950175      1.836      4.414
REMARK  4 active torsions:
REMARK  status: ('A' for Active; 'I' for Inactive)
REMARK    1  A    between atoms: N1_2  and  C2_4 
REMARK    2  A    between atoms: C2_4  and  C3_5 
REMARK    3  A    between atoms: C3_5  and  N2_6 
REMARK    4  A    between atoms: N3_8  and  C4_10 
ROOT
HETATM    1  N2  UNL     1     -12.726  -6.591  52.137  1.00  0.00    -0.332 N 
ATOM      2  H2  UNL     1     -11.747  -6.873  52.176  1.00  0.00     0.180 HD
HETATM    3  N3  UNL     1     -13.512  -6.987  53.031  1.00  0.00    -0.275 N 
ATOM      4  H3  UNL     1     -13.129  -7.581  53.766  1.00  0.00     0.189 HD
ENDROOT
BRANCH   3   5
HETATM    5  C4  UNL     1     -14.907  -6.668  53.097  1.00  0.00     0.207 C 
HETATM    6  N4  UNL     1     -15.888  -7.298  52.533  1.00  0.00    -0.273 N 
HETATM    7  N5  UNL     1     -17.094  -6.664  52.845  1.00  0.00    -0.119 NA
ATOM      8  H4  UNL     1     -15.794  -8.129  51.949  1.00  0.00     0.185 HD
HETATM    9  C5  UNL     1     -16.767  -5.343  53.377  1.00  0.00     0.259 C 
HETATM   10  N6  UNL     1     -15.409  -5.552  53.838  1.00  0.00    -0.345 N 
ATOM     11  H6  UNL     1     -14.913  -5.013  54.548  1.00  0.00     0.164 HD
ENDBRANCH   3   5
BRANCH   1  12
HETATM   12  C3  UNL     1     -13.168  -5.750  51.058  1.00  0.00     0.158 C 
BRANCH  12  13
HETATM   13  C2  UNL     1     -12.154  -5.657  49.944  1.00  0.00     0.134 C 
BRANCH  13  14
HETATM   14  N1  UNL     1     -11.284  -6.780  49.860  1.00  0.00    -0.424 N 
HETATM   15  C1  UNL     1     -10.545  -6.914  48.649  1.00  0.00     0.139 C 
ATOM     16  H1  UNL     1     -11.195  -7.450  50.624  1.00  0.00     0.152 HD
ENDBRANCH  13  14
ENDBRANCH  12  13
ENDBRANCH   1  12
TORSDOF 4
ENDMDL
