MODEL 1
REMARK VINA RESULT: -4.467382403      0.000      0.000
REMARK  2 active torsions:
REMARK  status: ('A' for Active; 'I' for Inactive)
REMARK       I    between atoms: N1_1  and  C1_5 
REMARK       I    between atoms: C1_5  and  N2_6 
REMARK       I    between atoms: C1_5  and  N3_10 
REMARK    1  A    between atoms: N3_10  and  N4_12 
REMARK    2  A    between atoms: C2_14  and  C3_15 
ROOT
HETATM    1  N1  UNL     1     -17.508  -7.618  51.318  1.00  0.00    -0.032 N 
ATOM      2  H11 UNL     1     -17.694  -8.495  51.805  1.00  0.00     0.279 HD
ATOM      3  H12 UNL     1     -16.955  -7.783  50.478  1.00  0.00     0.279 HD
ATOM      4  H13 UNL     1     -18.361  -7.254  50.892  1.00  0.00     0.279 HD
HETATM    5  C1  UNL     1     -16.893  -6.627  52.141  1.00  0.00     0.494 C 
HETATM    6  N2  UNL     1     -16.628  -5.378  51.448  1.00  0.00    -0.032 N 
ATOM      7  H21 UNL     1     -16.188  -4.670  52.036  1.00  0.00     0.279 HD
ATOM      8  H22 UNL     1     -17.480  -5.014  51.022  1.00  0.00     0.279 HD
ATOM      9  H23 UNL     1     -16.074  -5.544  50.607  1.00  0.00     0.279 HD
HETATM   10  N3  UNL     1     -15.683  -7.162  52.731  1.00  0.00    -0.284 N 
ATOM     11  H3  UNL     1     -15.424  -8.123  52.506  1.00  0.00     0.184 HD
ENDROOT
BRANCH  10  12
HETATM   12  N4  UNL     1     -14.867  -6.457  53.570  1.00  0.00    -0.311 N 
HETATM   13  C2  UNL     1     -13.668  -6.136  53.325  1.00  0.00     0.137 C 
ATOM     14  H4  UNL     1     -15.255  -6.167  54.467  1.00  0.00     0.185 HD
BRANCH  13  15
HETATM   15  C3  UNL     1     -12.895  -6.420  52.145  1.00  0.00     0.065 A 
HETATM   16  C4  UNL     1     -12.914  -5.647  50.991  1.00  0.00     0.119 A 
HETATM   17  N5  UNL     1     -12.082  -6.179  50.078  1.00  0.00    -0.360 N 
HETATM   18  C5  UNL     1     -11.531  -7.276  50.622  1.00  0.00     0.180 A 
ATOM     19  H5  UNL     1     -11.903  -5.815  49.142  1.00  0.00     0.166 HD
HETATM   20  N6  UNL     1     -12.035  -7.406  51.875  1.00  0.00    -0.350 N 
ATOM     21  H6  UNL     1     -11.791  -8.154  52.523  1.00  0.00     0.166 HD
ENDBRANCH  13  15
ENDBRANCH  10  12
TORSDOF 2
ENDMDL
MODEL 2
REMARK VINA RESULT: -4.331143610      0.792      1.126
REMARK  2 active torsions:
REMARK  status: ('A' for Active; 'I' for Inactive)
REMARK       I    between atoms: N1_1  and  C1_5 
REMARK       I    between atoms: C1_5  and  N2_6 
REMARK       I    between atoms: C1_5  and  N3_10 
REMARK    1  A    between atoms: N3_10  and  N4_12 
REMARK    2  A    between atoms: C2_14  and  C3_15 
ROOT
HETATM    1  N1  UNL     1     -17.461  -7.510  51.351  1.00  0.00    -0.032 N 
ATOM      2  H11 UNL     1     -17.603  -8.458  51.700  1.00  0.00     0.279 HD
ATOM      3  H12 UNL     1     -16.994  -7.526  50.445  1.00  0.00     0.279 HD
ATOM      4  H13 UNL     1     -18.349  -7.089  51.078  1.00  0.00     0.279 HD
HETATM    5  C1  UNL     1     -16.763  -6.664  52.264  1.00  0.00     0.494 C 
HETATM    6  N2  UNL     1     -16.560  -5.314  51.768  1.00  0.00    -0.032 N 
ATOM      7  H21 UNL     1     -16.061  -4.710  52.421  1.00  0.00     0.279 HD
ATOM      8  H22 UNL     1     -17.448  -4.893  51.495  1.00  0.00     0.279 HD
ATOM      9  H23 UNL     1     -16.093  -5.330  50.861  1.00  0.00     0.279 HD
HETATM   10  N3  UNL     1     -15.503  -7.277  52.634  1.00  0.00    -0.284 N 
ATOM     11  H3  UNL     1     -15.273  -8.183  52.227  1.00  0.00     0.184 HD
ENDROOT
BRANCH  10  12
HETATM   12  N4  UNL     1     -14.604  -6.714  53.496  1.00  0.00    -0.311 N 
HETATM   13  C2  UNL     1     -13.451  -6.300  53.181  1.00  0.00     0.137 C 
ATOM     14  H4  UNL     1     -14.886  -6.619  54.471  1.00  0.00     0.185 HD
BRANCH  13  15
HETATM   15  C3  UNL     1     -12.822  -6.317  51.887  1.00  0.00     0.065 A 
HETATM   16  C4  UNL     1     -11.863  -7.242  51.494  1.00  0.00     0.119 A 
HETATM   17  N5  UNL     1     -11.479  -6.985  50.231  1.00  0.00    -0.360 N 
HETATM   18  C5  UNL     1     -12.170  -5.914  49.807  1.00  0.00     0.180 A 
ATOM     19  H5  UNL     1     -10.788  -7.507  49.693  1.00  0.00     0.166 HD
HETATM   20  N6  UNL     1     -12.979  -5.523  50.824  1.00  0.00    -0.350 N 
ATOM     21  H6  UNL     1     -13.620  -4.731  50.783  1.00  0.00     0.166 HD
ENDBRANCH  13  15
ENDBRANCH  10  12
TORSDOF 2
ENDMDL
MODEL 3
REMARK VINA RESULT: -4.109515600      2.827      6.078
REMARK  2 active torsions:
REMARK  status: ('A' for Active; 'I' for Inactive)
REMARK       I    between atoms: N1_1  and  C1_5 
REMARK       I    between atoms: C1_5  and  N2_6 
REMARK       I    between atoms: C1_5  and  N3_10 
REMARK    1  A    between atoms: N3_10  and  N4_12 
REMARK    2  A    between atoms: C2_14  and  C3_15 
ROOT
HETATM    1  N1  UNL     1      -8.826  -9.508  48.506  1.00  0.00    -0.032 N 
ATOM      2  H11 UNL     1      -9.482  -9.917  49.169  1.00  0.00     0.279 HD
ATOM      3  H12 UNL     1      -7.943  -9.284  48.964  1.00  0.00     0.279 HD
ATOM      4  H13 UNL     1      -8.500 -10.209  47.841  1.00  0.00     0.279 HD
HETATM    5  C1  UNL     1      -9.342  -8.366  47.822  1.00  0.00     0.494 C 
HETATM    6  N2  UNL     1      -8.407  -7.782  46.877  1.00  0.00    -0.032 N 
ATOM      7  H21 UNL     1      -8.776  -6.966  46.388  1.00  0.00     0.279 HD
ATOM      8  H22 UNL     1      -8.081  -8.483  46.211  1.00  0.00     0.279 HD
ATOM      9  H23 UNL     1      -7.524  -7.559  47.335  1.00  0.00     0.279 HD
HETATM   10  N3  UNL     1      -9.793  -7.381  48.784  1.00  0.00    -0.284 N 
ATOM     11  H3  UNL     1      -9.697  -7.600  49.776  1.00  0.00     0.184 HD
ENDROOT
BRANCH  10  12
HETATM   12  N4  UNL     1     -10.340  -6.176  48.443  1.00  0.00    -0.311 N 
HETATM   13  C2  UNL     1     -11.238  -5.571  49.096  1.00  0.00     0.137 C 
ATOM     14  H4  UNL     1      -9.996  -5.728  47.594  1.00  0.00     0.185 HD
BRANCH  13  15
HETATM   15  C3  UNL     1     -11.883  -5.983  50.315  1.00  0.00     0.065 A 
HETATM   16  C4  UNL     1     -11.650  -7.194  50.954  1.00  0.00     0.119 A 
HETATM   17  N5  UNL     1     -12.406  -7.271  52.064  1.00  0.00    -0.360 N 
HETATM   18  C5  UNL     1     -13.119  -6.136  52.149  1.00  0.00     0.180 A 
ATOM     19  H5  UNL     1     -12.433  -8.050  52.722  1.00  0.00     0.166 HD
HETATM   20  N6  UNL     1     -12.789  -5.367  51.080  1.00  0.00    -0.350 N 
ATOM     21  H6  UNL     1     -13.179  -4.446  50.888  1.00  0.00     0.166 HD
ENDBRANCH  13  15
ENDBRANCH  10  12
TORSDOF 2
ENDMDL
MODEL 4
REMARK VINA RESULT: -4.073440692      1.321      1.998
REMARK  2 active torsions:
REMARK  status: ('A' for Active; 'I' for Inactive)
REMARK       I    between atoms: N1_1  and  C1_5 
REMARK       I    between atoms: C1_5  and  N2_6 
REMARK       I    between atoms: C1_5  and  N3_10 
REMARK    1  A    between atoms: N3_10  and  N4_12 
REMARK    2  A    between atoms: C2_14  and  C3_15 
ROOT
HETATM    1  N1  UNL     1     -17.365  -7.309  51.508  1.00  0.00    -0.032 N 
ATOM      2  H11 UNL     1     -16.750  -8.082  51.255  1.00  0.00     0.279 HD
ATOM      3  H12 UNL     1     -18.084  -7.174  50.798  1.00  0.00     0.279 HD
ATOM      4  H13 UNL     1     -17.953  -7.561  52.302  1.00  0.00     0.279 HD
HETATM    5  C1  UNL     1     -16.672  -6.088  51.763  1.00  0.00     0.494 C 
HETATM    6  N2  UNL     1     -17.547  -4.986  52.124  1.00  0.00    -0.032 N 
ATOM      7  H21 UNL     1     -17.051  -4.113  52.306  1.00  0.00     0.279 HD
ATOM      8  H22 UNL     1     -18.136  -5.238  52.918  1.00  0.00     0.279 HD
ATOM      9  H23 UNL     1     -18.267  -4.851  51.414  1.00  0.00     0.279 HD
HETATM   10  N3  UNL     1     -15.847  -5.745  50.622  1.00  0.00    -0.284 N 
ATOM     11  H3  UNL     1     -15.854  -6.373  49.819  1.00  0.00     0.184 HD
ENDROOT
BRANCH  10  12
HETATM   12  N4  UNL     1     -15.059  -4.630  50.558  1.00  0.00    -0.311 N 
HETATM   13  C2  UNL     1     -13.798  -4.621  50.654  1.00  0.00     0.137 C 
ATOM     14  H4  UNL     1     -15.525  -3.734  50.420  1.00  0.00     0.185 HD
BRANCH  13  15
HETATM   15  C3  UNL     1     -12.911  -5.737  50.847  1.00  0.00     0.065 A 
HETATM   16  C4  UNL     1     -12.825  -6.475  52.021  1.00  0.00     0.119 A 
HETATM   17  N5  UNL     1     -11.906  -7.446  51.876  1.00  0.00    -0.360 N 
HETATM   18  C5  UNL     1     -11.402  -7.347  50.635  1.00  0.00     0.180 A 
ATOM     19  H5  UNL     1     -11.640  -8.134  52.581  1.00  0.00     0.166 HD
HETATM   20  N6  UNL     1     -12.023  -6.305  50.026  1.00  0.00    -0.350 N 
ATOM     21  H6  UNL     1     -11.838  -5.998  49.072  1.00  0.00     0.166 HD
ENDBRANCH  13  15
ENDBRANCH  10  12
TORSDOF 2
ENDMDL
MODEL 5
REMARK VINA RESULT: -4.067072076      4.471      7.208
REMARK  2 active torsions:
REMARK  status: ('A' for Active; 'I' for Inactive)
REMARK       I    between atoms: N1_1  and  C1_5 
REMARK       I    between atoms: C1_5  and  N2_6 
REMARK       I    between atoms: C1_5  and  N3_10 
REMARK    1  A    between atoms: N3_10  and  N4_12 
REMARK    2  A    between atoms: C2_14  and  C3_15 
ROOT
HETATM    1  N1  UNL     1      -6.500  -3.165  51.814  1.00  0.00    -0.032 N 
ATOM      2  H11 UNL     1      -6.009  -3.805  51.190  1.00  0.00     0.279 HD
ATOM      3  H12 UNL     1      -7.038  -3.682  52.509  1.00  0.00     0.279 HD
ATOM      4  H13 UNL     1      -5.843  -2.686  52.429  1.00  0.00     0.279 HD
HETATM    5  C1  UNL     1      -7.329  -2.225  51.131  1.00  0.00     0.494 C 
HETATM    6  N2  UNL     1      -8.029  -1.314  52.020  1.00  0.00    -0.032 N 
ATOM      7  H21 UNL     1      -8.621  -0.642  51.532  1.00  0.00     0.279 HD
ATOM      8  H22 UNL     1      -7.371  -0.834  52.635  1.00  0.00     0.279 HD
ATOM      9  H23 UNL     1      -8.567  -1.830  52.715  1.00  0.00     0.279 HD
HETATM   10  N3  UNL     1      -8.258  -2.926  50.268  1.00  0.00    -0.284 N 
ATOM     11  H3  UNL     1      -8.218  -3.945  50.248  1.00  0.00     0.184 HD
ENDROOT
BRANCH  10  12
HETATM   12  N4  UNL     1      -9.185  -2.305  49.480  1.00  0.00    -0.311 N 
HETATM   13  C2  UNL     1     -10.244  -2.838  49.040  1.00  0.00     0.137 C 
ATOM     14  H4  UNL     1      -9.009  -1.333  49.226  1.00  0.00     0.185 HD
BRANCH  13  15
HETATM   15  C3  UNL     1     -10.721  -4.179  49.252  1.00  0.00     0.065 A 
HETATM   16  C4  UNL     1     -11.843  -4.502  50.005  1.00  0.00     0.119 A 
HETATM   17  N5  UNL     1     -12.017  -5.835  50.005  1.00  0.00    -0.360 N 
HETATM   18  C5  UNL     1     -11.030  -6.374  49.269  1.00  0.00     0.180 A 
ATOM     19  H5  UNL     1     -12.763  -6.345  50.478  1.00  0.00     0.166 HD
HETATM   20  N6  UNL     1     -10.255  -5.355  48.821  1.00  0.00    -0.350 N 
ATOM     21  H6  UNL     1      -9.429  -5.470  48.235  1.00  0.00     0.166 HD
ENDBRANCH  13  15
ENDBRANCH  10  12
TORSDOF 2
ENDMDL
