MODEL 1
REMARK VINA RESULT: -4.443823450      0.000      0.000
REMARK  5 active torsions:
REMARK  status: ('A' for Active; 'I' for Inactive)
REMARK    1  A    between atoms: C2_2  and  C3_3 
REMARK    2  A    between atoms: C3_3  and  N1_4 
REMARK    3  A    between atoms: C3_3  and  C4_8 
REMARK    4  A    between atoms: C4_8  and  N2_9 
REMARK    5  A    between atoms: C5_16  and  N6_17 
ROOT
HETATM    1  N2  UNL     1     -13.859  -6.217  51.771  1.00  0.00    -0.083 N 
HETATM    2  N3  UNL     1     -13.893  -7.025  52.802  1.00  0.00    -0.207 N 
ATOM      3  H3  UNL     1     -13.085  -7.319  53.351  1.00  0.00     0.211 HD
HETATM    4  N4  UNL     1     -15.128  -7.394  53.015  1.00  0.00    -0.213 N 
ATOM      5  H4  UNL     1     -15.435  -8.022  53.758  1.00  0.00     0.210 HD
HETATM    6  N5  UNL     1     -15.904  -6.838  52.136  1.00  0.00    -0.115 N 
ATOM      7  H5  UNL     1     -16.915  -6.948  52.064  1.00  0.00     0.207 HD
HETATM    8  C5  UNL     1     -15.127  -6.095  51.345  1.00  0.00     0.713 A 
ENDROOT
BRANCH   1   9
HETATM    9  C4  UNL     1     -12.756  -5.601  51.150  1.00  0.00     0.142 C 
BRANCH   9  10
HETATM   10  C3  UNL     1     -12.035  -6.244  50.046  1.00  0.00     0.224 C 
BRANCH  10  11
HETATM   11  C2  UNL     1     -10.991  -5.531  49.302  1.00  0.00     0.034 C 
HETATM   12  C1  UNL     1     -10.159  -6.378  48.385  1.00  0.00     0.007 C 
ENDBRANCH  10  11
BRANCH  10  13
HETATM   13  N1  UNL     1     -11.402  -7.474  50.653  1.00  0.00    -0.070 N 
ATOM     14  H13 UNL     1     -10.444  -7.315  50.965  1.00  0.00     0.275 HD
ATOM     15  H12 UNL     1     -11.800  -7.719  51.560  1.00  0.00     0.275 HD
ATOM     16  H11 UNL     1     -11.477  -8.228  49.970  1.00  0.00     0.275 HD
ENDBRANCH  10  13
ENDBRANCH   9  10
ENDBRANCH   1   9
BRANCH   8  17
HETATM   17  N6  UNL     1     -15.533  -5.372  50.330  1.00  0.00    -0.231 N 
ATOM     18  H62 UNL     1     -15.552  -4.353  50.291  1.00  0.00     0.174 HD
ATOM     19  H61 UNL     1     -15.883  -5.730  49.442  1.00  0.00     0.174 HD
ENDBRANCH   8  17
TORSDOF 5
ENDMDL
MODEL 2
REMARK VINA RESULT: -4.376704979      1.727      2.205
REMARK  5 active torsions:
REMARK  status: ('A' for Active; 'I' for Inactive)
REMARK    1  A    between atoms: C2_2  and  C3_3 
REMARK    2  A    between atoms: C3_3  and  N1_4 
REMARK    3  A    between atoms: C3_3  and  C4_8 
REMARK    4  A    between atoms: C4_8  and  N2_9 
REMARK    5  A    between atoms: C5_16  and  N6_17 
ROOT
HETATM    1  N2  UNL     1     -12.589  -6.141  50.982  1.00  0.00    -0.083 N 
HETATM    2  N3  UNL     1     -12.524  -7.178  51.780  1.00  0.00    -0.207 N 
ATOM      3  H3  UNL     1     -12.136  -8.090  51.535  1.00  0.00     0.211 HD
HETATM    4  N4  UNL     1     -13.034  -6.859  52.939  1.00  0.00    -0.213 N 
ATOM      5  H4  UNL     1     -13.107  -7.484  53.743  1.00  0.00     0.210 HD
HETATM    6  N5  UNL     1     -13.435  -5.626  52.911  1.00  0.00    -0.115 N 
ATOM      7  H5  UNL     1     -13.873  -5.113  53.676  1.00  0.00     0.207 HD
HETATM    8  C5  UNL     1     -13.166  -5.156  51.692  1.00  0.00     0.713 A 
ENDROOT
BRANCH   1   9
HETATM    9  C4  UNL     1     -12.202  -6.019  49.635  1.00  0.00     0.142 C 
BRANCH   9  10
HETATM   10  C3  UNL     1     -10.835  -6.321  49.195  1.00  0.00     0.224 C 
BRANCH  10  11
HETATM   11  C2  UNL     1     -10.583  -7.178  48.031  1.00  0.00     0.034 C 
HETATM   12  C1  UNL     1      -9.216  -7.795  47.968  1.00  0.00     0.007 C 
ENDBRANCH  10  11
BRANCH  10  13
HETATM   13  N1  UNL     1     -10.206  -4.976  48.914  1.00  0.00    -0.070 N 
ATOM     14  H13 UNL     1      -9.314  -5.049  48.426  1.00  0.00     0.275 HD
ATOM     15  H12 UNL     1     -10.706  -4.445  48.201  1.00  0.00     0.275 HD
ATOM     16  H11 UNL     1     -10.134  -4.479  49.802  1.00  0.00     0.275 HD
ENDBRANCH  10  13
ENDBRANCH   9  10
ENDBRANCH   1   9
BRANCH   8  17
HETATM   17  N6  UNL     1     -13.419  -3.944  51.262  1.00  0.00    -0.231 N 
ATOM     18  H62 UNL     1     -14.193  -3.673  50.656  1.00  0.00     0.174 HD
ATOM     19  H61 UNL     1     -12.876  -3.108  51.475  1.00  0.00     0.174 HD
ENDBRANCH   8  17
TORSDOF 5
ENDMDL
MODEL 3
REMARK VINA RESULT: -4.341509792      0.912      1.906
REMARK  5 active torsions:
REMARK  status: ('A' for Active; 'I' for Inactive)
REMARK    1  A    between atoms: C2_2  and  C3_3 
REMARK    2  A    between atoms: C3_3  and  N1_4 
REMARK    3  A    between atoms: C3_3  and  C4_8 
REMARK    4  A    between atoms: C4_8  and  N2_9 
REMARK    5  A    between atoms: C5_16  and  N6_17 
ROOT
HETATM    1  N2  UNL     1     -13.754  -5.636  50.641  1.00  0.00    -0.083 N 
HETATM    2  N3  UNL     1     -14.784  -5.290  49.909  1.00  0.00    -0.207 N 
ATOM      3  H3  UNL     1     -14.737  -4.871  48.981  1.00  0.00     0.211 HD
HETATM    4  N4  UNL     1     -15.883  -5.568  50.559  1.00  0.00    -0.213 N 
ATOM      5  H4  UNL     1     -16.829  -5.400  50.216  1.00  0.00     0.210 HD
HETATM    6  N5  UNL     1     -15.586  -6.091  51.708  1.00  0.00    -0.115 N 
ATOM      7  H5  UNL     1     -16.244  -6.404  52.421  1.00  0.00     0.207 HD
HETATM    8  C5  UNL     1     -14.254  -6.142  51.781  1.00  0.00     0.713 A 
ENDROOT
BRANCH   1   9
HETATM    9  C4  UNL     1     -12.379  -5.494  50.378  1.00  0.00     0.142 C 
BRANCH   9  10
HETATM   10  C3  UNL     1     -11.650  -6.456  49.543  1.00  0.00     0.224 C 
BRANCH  10  11
HETATM   11  C2  UNL     1     -10.460  -6.055  48.785  1.00  0.00     0.034 C 
HETATM   12  C1  UNL     1      -9.777  -7.156  48.026  1.00  0.00     0.007 C 
ENDBRANCH  10  11
BRANCH  10  13
HETATM   13  N1  UNL     1     -11.238  -7.562  50.486  1.00  0.00    -0.070 N 
ATOM     14  H13 UNL     1     -11.875  -8.358  50.468  1.00  0.00     0.275 HD
ATOM     15  H12 UNL     1     -10.399  -8.054  50.179  1.00  0.00     0.275 HD
ATOM     16  H11 UNL     1     -11.139  -7.153  51.415  1.00  0.00     0.275 HD
ENDBRANCH  10  13
ENDBRANCH   9  10
ENDBRANCH   1   9
BRANCH   8  17
HETATM   17  N6  UNL     1     -13.556  -6.607  52.788  1.00  0.00    -0.231 N 
ATOM     18  H62 UNL     1     -12.686  -6.214  53.145  1.00  0.00     0.174 HD
ATOM     19  H61 UNL     1     -13.790  -7.424  53.352  1.00  0.00     0.174 HD
ENDBRANCH   8  17
TORSDOF 5
ENDMDL
MODEL 4
REMARK VINA RESULT: -4.328947987      2.235      4.609
REMARK  5 active torsions:
REMARK  status: ('A' for Active; 'I' for Inactive)
REMARK    1  A    between atoms: C2_2  and  C3_3 
REMARK    2  A    between atoms: C3_3  and  N1_4 
REMARK    3  A    between atoms: C3_3  and  C4_8 
REMARK    4  A    between atoms: C4_8  and  N2_9 
REMARK    5  A    between atoms: C5_16  and  N6_17 
ROOT
HETATM    1  N2  UNL     1     -12.650  -6.436  51.890  1.00  0.00    -0.083 N 
HETATM    2  N3  UNL     1     -11.996  -7.562  52.037  1.00  0.00    -0.207 N 
ATOM      3  H3  UNL     1     -12.024  -8.158  52.864  1.00  0.00     0.211 HD
HETATM    4  N4  UNL     1     -11.302  -7.798  50.956  1.00  0.00    -0.213 N 
ATOM      5  H4  UNL     1     -10.703  -8.610  50.806  1.00  0.00     0.210 HD
HETATM    6  N5  UNL     1     -11.492  -6.841  50.102  1.00  0.00    -0.115 N 
ATOM      7  H5  UNL     1     -11.077  -6.765  49.174  1.00  0.00     0.207 HD
HETATM    8  C5  UNL     1     -12.335  -5.975  50.668  1.00  0.00     0.713 A 
ENDROOT
BRANCH   1   9
HETATM    9  C4  UNL     1     -13.489  -5.760  52.795  1.00  0.00     0.142 C 
BRANCH   9  10
HETATM   10  C3  UNL     1     -14.341  -6.485  53.745  1.00  0.00     0.224 C 
BRANCH  10  11
HETATM   11  C2  UNL     1     -15.206  -5.770  54.689  1.00  0.00     0.034 C 
HETATM   12  C1  UNL     1     -14.658  -5.616  56.078  1.00  0.00     0.007 C 
ENDBRANCH  10  11
BRANCH  10  13
HETATM   13  N1  UNL     1     -15.227  -7.361  52.890  1.00  0.00    -0.070 N 
ATOM     14  H13 UNL     1     -14.815  -7.577  51.982  1.00  0.00     0.275 HD
ATOM     15  H12 UNL     1     -15.295  -8.318  53.237  1.00  0.00     0.275 HD
ATOM     16  H11 UNL     1     -16.134  -6.901  52.815  1.00  0.00     0.275 HD
ENDBRANCH  10  13
ENDBRANCH   9  10
ENDBRANCH   1   9
BRANCH   8  17
HETATM   17  N6  UNL     1     -12.778  -4.867  50.125  1.00  0.00    -0.231 N 
ATOM     18  H62 UNL     1     -13.640  -4.382  50.373  1.00  0.00     0.174 HD
ATOM     19  H61 UNL     1     -12.321  -4.340  49.381  1.00  0.00     0.174 HD
ENDBRANCH   8  17
TORSDOF 5
ENDMDL
MODEL 5
REMARK VINA RESULT: -4.214649734      3.523      5.488
REMARK  5 active torsions:
REMARK  status: ('A' for Active; 'I' for Inactive)
REMARK    1  A    between atoms: C2_2  and  C3_3 
REMARK    2  A    between atoms: C3_3  and  N1_4 
REMARK    3  A    between atoms: C3_3  and  C4_8 
REMARK    4  A    between atoms: C4_8  and  N2_9 
REMARK    5  A    between atoms: C5_16  and  N6_17 
ROOT
HETATM    1  N2  UNL     1     -10.055  -7.633  48.503  1.00  0.00    -0.083 N 
HETATM    2  N3  UNL     1     -10.534  -8.411  49.442  1.00  0.00    -0.207 N 
ATOM      3  H3  UNL     1     -11.316  -8.184  50.056  1.00  0.00     0.211 HD
HETATM    4  N4  UNL     1      -9.850  -9.523  49.467  1.00  0.00    -0.213 N 
ATOM      5  H4  UNL     1     -10.016 -10.303  50.104  1.00  0.00     0.210 HD
HETATM    6  N5  UNL     1      -8.927  -9.485  48.556  1.00  0.00    -0.115 N 
ATOM      7  H5  UNL     1      -8.247 -10.216  48.351  1.00  0.00     0.207 HD
HETATM    8  C5  UNL     1      -9.037  -8.307  47.939  1.00  0.00     0.713 A 
ENDROOT
BRANCH   1   9
HETATM    9  C4  UNL     1     -10.440  -6.332  48.132  1.00  0.00     0.142 C 
BRANCH   9  10
HETATM   10  C3  UNL     1     -10.442  -5.224  49.095  1.00  0.00     0.224 C 
BRANCH  10  11
HETATM   11  C2  UNL     1     -10.248  -3.837  48.659  1.00  0.00     0.034 C 
HETATM   12  C1  UNL     1      -9.401  -2.989  49.561  1.00  0.00     0.007 C 
ENDBRANCH  10  11
BRANCH  10  13
HETATM   13  N1  UNL     1     -11.787  -5.302  49.781  1.00  0.00    -0.070 N 
ATOM     14  H13 UNL     1     -12.389  -6.028  49.393  1.00  0.00     0.275 HD
ATOM     15  H12 UNL     1     -11.727  -5.670  50.730  1.00  0.00     0.275 HD
ATOM     16  H11 UNL     1     -12.206  -4.374  49.740  1.00  0.00     0.275 HD
ENDBRANCH  10  13
ENDBRANCH   9  10
ENDBRANCH   1   9
BRANCH   8  17
HETATM   17  N6  UNL     1      -8.284  -7.882  46.954  1.00  0.00    -0.231 N 
ATOM     18  H62 UNL     1      -8.066  -8.398  46.102  1.00  0.00     0.174 HD
ATOM     19  H61 UNL     1      -7.816  -6.977  46.906  1.00  0.00     0.174 HD
ENDBRANCH   8  17
TORSDOF 5
ENDMDL
