MODEL 1
REMARK VINA RESULT: -5.325204652      0.000      0.000
REMARK  3 active torsions:
REMARK  status: ('A' for Active; 'I' for Inactive)
REMARK    1  A    between atoms: C2_2  and  N1_4 
REMARK    2  A    between atoms: N1_4  and  N2_6 
REMARK    3  A    between atoms: N2_6  and  C4_7 
ROOT
HETATM    1  C4  UNL     1     -11.024  -6.751  49.317  1.00  0.00     0.314 C 
HETATM    2  C5  UNL     1     -11.022  -7.866  50.339  1.00  0.00     0.182 C 
HETATM    3  N3  UNL     1     -10.711  -9.137  49.735  1.00  0.00    -0.143 NA
HETATM    4  N4  UNL     1      -9.501  -9.086  49.068  1.00  0.00    -0.121 NA
HETATM    5  C6  UNL     1      -9.515  -8.068  48.045  1.00  0.00     0.364 C 
HETATM    6  N5  UNL     1     -10.716  -7.292  48.015  1.00  0.00    -0.040 N 
ATOM      7  H51 UNL     1     -10.670  -6.559  47.306  1.00  0.00     0.280 HD
ATOM      8  H52 UNL     1     -11.497  -7.827  47.636  1.00  0.00     0.280 HD
ENDROOT
BRANCH   1   9
HETATM    9  N2  UNL     1     -12.310  -6.092  49.312  1.00  0.00    -0.111 NA
BRANCH   9  10
HETATM   10  N1  UNL     1     -12.355  -5.052  50.181  1.00  0.00    -0.334 N 
ATOM     11  H1  UNL     1     -11.555  -4.429  50.287  1.00  0.00     0.176 HD
BRANCH  10  12
HETATM   12  C2  UNL     1     -13.525  -4.850  50.933  1.00  0.00     0.087 C 
HETATM   13  C1  UNL     1     -14.820  -5.048  50.245  1.00  0.00     0.033 C 
HETATM   14  C3  UNL     1     -13.488  -5.781  52.146  1.00  0.00     0.033 C 
ENDBRANCH  10  12
ENDBRANCH   9  10
ENDBRANCH   1   9
TORSDOF 3
ENDMDL
MODEL 2
REMARK VINA RESULT: -5.189681045      0.397      1.082
REMARK  3 active torsions:
REMARK  status: ('A' for Active; 'I' for Inactive)
REMARK    1  A    between atoms: C2_2  and  N1_4 
REMARK    2  A    between atoms: N1_4  and  N2_6 
REMARK    3  A    between atoms: N2_6  and  C4_7 
ROOT
HETATM    1  C4  UNL     1     -10.970  -6.765  49.167  1.00  0.00     0.314 C 
HETATM    2  C5  UNL     1     -10.912  -7.887  50.180  1.00  0.00     0.182 C 
HETATM    3  N3  UNL     1     -10.524  -9.132  49.569  1.00  0.00    -0.143 NA
HETATM    4  N4  UNL     1      -9.314  -9.007  48.912  1.00  0.00    -0.121 NA
HETATM    5  C6  UNL     1      -9.377  -7.983  47.898  1.00  0.00     0.364 C 
HETATM    6  N5  UNL     1     -10.620  -7.276  47.863  1.00  0.00    -0.040 N 
ATOM      7  H51 UNL     1     -10.611  -6.536  47.161  1.00  0.00     0.280 HD
ATOM      8  H52 UNL     1     -11.367  -7.851  47.474  1.00  0.00     0.280 HD
ENDROOT
BRANCH   1   9
HETATM    9  N2  UNL     1     -12.291  -6.180  49.156  1.00  0.00    -0.111 NA
BRANCH   9  10
HETATM   10  N1  UNL     1     -12.489  -5.344  50.205  1.00  0.00    -0.334 N 
ATOM     11  H1  UNL     1     -11.810  -4.614  50.422  1.00  0.00     0.176 HD
BRANCH  10  12
HETATM   12  C2  UNL     1     -13.646  -5.501  50.987  1.00  0.00     0.087 C 
HETATM   13  C1  UNL     1     -13.651  -4.879  52.329  1.00  0.00     0.033 C 
HETATM   14  C3  UNL     1     -14.838  -4.947  50.205  1.00  0.00     0.033 C 
ENDBRANCH  10  12
ENDBRANCH   9  10
ENDBRANCH   1   9
TORSDOF 3
ENDMDL
MODEL 3
REMARK VINA RESULT: -5.104262742      1.557      1.902
REMARK  3 active torsions:
REMARK  status: ('A' for Active; 'I' for Inactive)
REMARK    1  A    between atoms: C2_2  and  N1_4 
REMARK    2  A    between atoms: N1_4  and  N2_6 
REMARK    3  A    between atoms: N2_6  and  C4_7 
ROOT
HETATM    1  C4  UNL     1     -11.409  -6.837  50.543  1.00  0.00     0.314 C 
HETATM    2  C5  UNL     1     -11.096  -8.214  51.085  1.00  0.00     0.182 C 
HETATM    3  N3  UNL     1     -10.944  -9.178  50.024  1.00  0.00    -0.143 NA
HETATM    4  N4  UNL     1      -9.975  -8.778  49.124  1.00  0.00    -0.121 NA
HETATM    5  C6  UNL     1     -10.297  -7.493  48.552  1.00  0.00     0.364 C 
HETATM    6  N5  UNL     1     -11.472  -6.890  49.102  1.00  0.00    -0.040 N 
ATOM      7  H51 UNL     1     -11.644  -5.968  48.700  1.00  0.00     0.280 HD
ATOM      8  H52 UNL     1     -12.319  -7.360  48.781  1.00  0.00     0.280 HD
ENDROOT
BRANCH   1   9
HETATM    9  N2  UNL     1     -12.656  -6.363  51.098  1.00  0.00    -0.111 NA
BRANCH   9  10
HETATM   10  N1  UNL     1     -12.977  -7.000  52.251  1.00  0.00    -0.334 N 
ATOM     11  H1  UNL     1     -12.637  -7.944  52.435  1.00  0.00     0.176 HD
BRANCH  10  12
HETATM   12  C2  UNL     1     -13.787  -6.335  53.188  1.00  0.00     0.087 C 
HETATM   13  C1  UNL     1     -13.731  -4.857  53.209  1.00  0.00     0.033 C 
HETATM   14  C3  UNL     1     -15.240  -6.750  52.952  1.00  0.00     0.033 C 
ENDBRANCH  10  12
ENDBRANCH   9  10
ENDBRANCH   1   9
TORSDOF 3
ENDMDL
MODEL 4
REMARK VINA RESULT: -4.863333207      2.319      3.110
REMARK  3 active torsions:
REMARK  status: ('A' for Active; 'I' for Inactive)
REMARK    1  A    between atoms: C2_2  and  N1_4 
REMARK    2  A    between atoms: N1_4  and  N2_6 
REMARK    3  A    between atoms: N2_6  and  C4_7 
ROOT
HETATM    1  C4  UNL     1     -10.954  -6.649  48.597  1.00  0.00     0.314 C 
HETATM    2  C5  UNL     1     -10.193  -7.815  48.005  1.00  0.00     0.182 C 
HETATM    3  N3  UNL     1      -9.666  -8.677  49.032  1.00  0.00    -0.143 NA
HETATM    4  N4  UNL     1     -10.671  -9.126  49.869  1.00  0.00    -0.121 NA
HETATM    5  C6  UNL     1     -11.361  -8.021  50.489  1.00  0.00     0.364 C 
HETATM    6  N5  UNL     1     -10.925  -6.736  50.037  1.00  0.00    -0.040 N 
ATOM      7  H51 UNL     1     -11.463  -5.984  50.469  1.00  0.00     0.280 HD
ATOM      8  H52 UNL     1     -10.004  -6.502  50.408  1.00  0.00     0.280 HD
ENDROOT
BRANCH   1   9
HETATM    9  N2  UNL     1     -10.375  -5.405  48.142  1.00  0.00    -0.111 NA
BRANCH   9  10
HETATM   10  N1  UNL     1      -9.969  -4.623  49.173  1.00  0.00    -0.334 N 
ATOM     11  H1  UNL     1      -9.420  -5.016  49.938  1.00  0.00     0.176 HD
BRANCH  10  12
HETATM   12  C2  UNL     1     -10.320  -3.262  49.169  1.00  0.00     0.087 C 
HETATM   13  C1  UNL     1     -11.430  -2.842  50.052  1.00  0.00     0.033 C 
HETATM   14  C3  UNL     1      -9.084  -2.442  49.541  1.00  0.00     0.033 C 
ENDBRANCH  10  12
ENDBRANCH   9  10
ENDBRANCH   1   9
TORSDOF 3
ENDMDL
MODEL 5
REMARK VINA RESULT: -4.778243580      2.043      2.728
REMARK  3 active torsions:
REMARK  status: ('A' for Active; 'I' for Inactive)
REMARK    1  A    between atoms: C2_2  and  N1_4 
REMARK    2  A    between atoms: N1_4  and  N2_6 
REMARK    3  A    between atoms: N2_6  and  C4_7 
ROOT
HETATM    1  C4  UNL     1     -12.277  -6.098  51.138  1.00  0.00     0.314 C 
HETATM    2  C5  UNL     1     -11.698  -7.406  51.631  1.00  0.00     0.182 C 
HETATM    3  N3  UNL     1     -11.409  -8.301  50.539  1.00  0.00    -0.143 NA
HETATM    4  N4  UNL     1     -10.561  -7.707  49.622  1.00  0.00    -0.121 NA
HETATM    5  C6  UNL     1     -11.133  -6.491  49.097  1.00  0.00     0.364 C 
HETATM    6  N5  UNL     1     -12.379  -6.129  49.699  1.00  0.00    -0.040 N 
ATOM      7  H51 UNL     1     -12.730  -5.245  49.330  1.00  0.00     0.280 HD
ATOM      8  H52 UNL     1     -13.135  -6.739  49.390  1.00  0.00     0.280 HD
ENDROOT
BRANCH   1   9
HETATM    9  N2  UNL     1     -13.570  -5.875  51.744  1.00  0.00    -0.111 NA
BRANCH   9  10
HETATM   10  N1  UNL     1     -13.976  -6.934  52.488  1.00  0.00    -0.334 N 
ATOM     11  H1  UNL     1     -13.346  -7.716  52.665  1.00  0.00     0.176 HD
BRANCH  10  12
HETATM   12  C2  UNL     1     -15.280  -6.932  53.010  1.00  0.00     0.087 C 
HETATM   13  C1  UNL     1     -15.558  -6.027  54.147  1.00  0.00     0.033 C 
HETATM   14  C3  UNL     1     -16.253  -6.585  51.882  1.00  0.00     0.033 C 
ENDBRANCH  10  12
ENDBRANCH   9  10
ENDBRANCH   1   9
TORSDOF 3
ENDMDL
