MODEL 1
REMARK VINA RESULT: -5.458367733      0.000      0.000
REMARK  13 active torsions:
REMARK  status: ('A' for Active; 'I' for Inactive)
REMARK    1  A    between atoms: O1_2  and  C2_3 
REMARK    2  A    between atoms: C3_4  and  O2_5 
REMARK    3  A    between atoms: O2_5  and  C4_6 
REMARK    4  A    between atoms: C5_8  and  N1_9 
REMARK    5  A    between atoms: C7_14  and  N2_15 
REMARK    6  A    between atoms: C8_19  and  O4_20 
REMARK    7  A    between atoms: O4_20  and  C9_21 
REMARK    8  A    between atoms: C10_22  and  N3_23 
REMARK    9  A    between atoms: N3_23  and  N4_25 
REMARK   10  A    between atoms: N4_25  and  N5_26 
REMARK   11  A    between atoms: C12_30  and  N6_31 
REMARK   12  A    between atoms: C13_35  and  O5_36 
REMARK   13  A    between atoms: C14_38  and  O6_39 
ROOT
HETATM    1  C9  UNL     1      79.778  21.386  43.497  1.00  0.00     0.178 C 
HETATM    2  C10 UNL     1      80.842  20.330  43.395  1.00  0.00     0.148 C 
HETATM    3  C11 UNL     1      80.554  19.076  44.148  1.00  0.00     0.066 C 
HETATM    4  C12 UNL     1      79.116  18.729  43.978  1.00  0.00     0.216 C 
HETATM    5  C13 UNL     1      78.329  19.743  44.763  1.00  0.00     0.179 C 
HETATM    6  C14 UNL     1      78.787  21.147  44.590  1.00  0.00     0.180 C 
ENDROOT
BRANCH   1   7
HETATM    7  O4  UNL     1      79.125  21.473  42.312  1.00  0.00    -0.371 OA
BRANCH   7   8
HETATM    8  C8  UNL     1      79.319  22.559  41.508  1.00  0.00     0.184 C 
HETATM    9  C2  UNL     1      77.982  23.141  41.214  1.00  0.00     0.183 C 
HETATM   10  C3  UNL     1      77.707  24.489  41.780  1.00  0.00     0.193 C 
HETATM   11  C5  UNL     1      78.784  25.503  41.584  1.00  0.00     0.217 C 
HETATM   12  C6  UNL     1      80.147  24.910  41.386  1.00  0.00     0.071 C 
HETATM   13  C7  UNL     1      80.306  23.564  42.045  1.00  0.00     0.217 C 
BRANCH   9  14
HETATM   14  O1  UNL     1      77.844  23.191  39.811  1.00  0.00    -0.385 OA
HETATM   15  C1  UNL     1      76.573  23.459  39.401  1.00  0.00     0.202 C 
ENDBRANCH   9  14
BRANCH  10  16
HETATM   16  O2  UNL     1      77.368  24.388  43.147  1.00  0.00    -0.318 OA
BRANCH  16  17
HETATM   17  C4  UNL     1      76.636  25.335  43.826  1.00  0.00     0.398 C 
HETATM   18  O3  UNL     1      77.048  25.666  44.950  1.00  0.00    -0.276 OA
ENDBRANCH  16  17
ENDBRANCH  10  16
BRANCH  11  19
HETATM   19  N1  UNL     1      78.504  26.307  40.404  1.00  0.00    -0.072 N 
ATOM     20  H13 UNL     1      78.950  25.927  39.569  1.00  0.00     0.274 HD
ATOM     21  H12 UNL     1      77.532  26.223  40.106  1.00  0.00     0.274 HD
ATOM     22  H11 UNL     1      78.770  27.278  40.571  1.00  0.00     0.274 HD
ENDBRANCH  11  19
BRANCH  13  23
HETATM   23  N2  UNL     1      80.269  23.686  43.496  1.00  0.00    -0.072 N 
ATOM     24  H23 UNL     1      81.115  24.127  43.858  1.00  0.00     0.274 HD
ATOM     25  H22 UNL     1      79.590  24.385  43.798  1.00  0.00     0.274 HD
ATOM     26  H21 UNL     1      80.099  22.781  43.935  1.00  0.00     0.274 HD
ENDBRANCH  13  23
ENDBRANCH   7   8
ENDBRANCH   1   7
BRANCH   2  27
HETATM   27  N3  UNL     1      82.113  20.814  43.971  1.00  0.00    -0.245 N 
ATOM     28  H3  UNL     1      82.194  21.749  44.370  1.00  0.00     0.197 HD
BRANCH  27  29
HETATM   29  N4  UNL     1      83.068  20.041  43.948  1.00  0.00    -0.248 NA
BRANCH  29  30
HETATM   30  N5  UNL     1      84.050  19.341  43.670  1.00  0.00    -0.261 N 
ATOM     31  H52 UNL     1      83.465  18.705  43.128  1.00  0.00     0.193 HD
ATOM     32  H51 UNL     1      84.969  18.912  43.563  1.00  0.00     0.193 HD
ENDBRANCH  29  30
ENDBRANCH  27  29
ENDBRANCH   2  27
BRANCH   6  33
HETATM   33  O6  UNL     1      77.670  21.967  44.524  1.00  0.00    -0.390 OA
ATOM     34  H6  UNL     1      77.298  22.179  45.372  1.00  0.00     0.210 HD
ENDBRANCH   6  33
BRANCH   5  35
HETATM   35  O5  UNL     1      78.378  19.348  46.101  1.00  0.00    -0.391 OA
ATOM     36  H5  UNL     1      78.682  20.097  46.600  1.00  0.00     0.210 HD
ENDBRANCH   5  35
BRANCH   4  37
HETATM   37  N6  UNL     1      78.679  18.527  42.642  1.00  0.00    -0.072 N 
ATOM     38  H63 UNL     1      79.484  18.472  42.019  1.00  0.00     0.274 HD
ATOM     39  H62 UNL     1      78.303  17.584  42.540  1.00  0.00     0.274 HD
ATOM     40  H61 UNL     1      78.009  19.207  42.283  1.00  0.00     0.274 HD
ENDBRANCH   4  37
TORSDOF 13
ENDMDL
MODEL 2
REMARK VINA RESULT: -5.455611078      9.979     12.625
REMARK  13 active torsions:
REMARK  status: ('A' for Active; 'I' for Inactive)
REMARK    1  A    between atoms: O1_2  and  C2_3 
REMARK    2  A    between atoms: C3_4  and  O2_5 
REMARK    3  A    between atoms: O2_5  and  C4_6 
REMARK    4  A    between atoms: C5_8  and  N1_9 
REMARK    5  A    between atoms: C7_14  and  N2_15 
REMARK    6  A    between atoms: C8_19  and  O4_20 
REMARK    7  A    between atoms: O4_20  and  C9_21 
REMARK    8  A    between atoms: C10_22  and  N3_23 
REMARK    9  A    between atoms: N3_23  and  N4_25 
REMARK   10  A    between atoms: N4_25  and  N5_26 
REMARK   11  A    between atoms: C12_30  and  N6_31 
REMARK   12  A    between atoms: C13_35  and  O5_36 
REMARK   13  A    between atoms: C14_38  and  O6_39 
ROOT
HETATM    1  C9  UNL     1      67.839  25.522  42.891  1.00  0.00     0.178 C 
HETATM    2  C10 UNL     1      68.948  25.611  41.881  1.00  0.00     0.148 C 
HETATM    3  C11 UNL     1      70.057  26.538  42.248  1.00  0.00     0.066 C 
HETATM    4  C12 UNL     1      70.356  26.382  43.698  1.00  0.00     0.216 C 
HETATM    5  C13 UNL     1      69.198  26.982  44.448  1.00  0.00     0.179 C 
HETATM    6  C14 UNL     1      67.860  26.611  43.915  1.00  0.00     0.180 C 
ENDROOT
BRANCH   1   7
HETATM    7  O4  UNL     1      67.903  24.321  43.514  1.00  0.00    -0.371 OA
BRANCH   7   8
HETATM    8  C8  UNL     1      67.203  23.258  43.017  1.00  0.00     0.184 C 
HETATM    9  C2  UNL     1      68.125  22.092  42.985  1.00  0.00     0.183 C 
HETATM   10  C3  UNL     1      67.806  20.969  43.909  1.00  0.00     0.193 C 
HETATM   11  C5  UNL     1      66.382  20.523  43.914  1.00  0.00     0.217 C 
HETATM   12  C6  UNL     1      65.414  21.578  43.469  1.00  0.00     0.071 C 
HETATM   13  C7  UNL     1      65.905  22.978  43.731  1.00  0.00     0.217 C 
BRANCH   9  14
HETATM   14  O1  UNL     1      68.147  21.608  41.660  1.00  0.00    -0.385 OA
HETATM   15  C1  UNL     1      69.249  21.994  40.960  1.00  0.00     0.202 C 
ENDBRANCH   9  14
BRANCH  10  16
HETATM   16  O2  UNL     1      68.232  21.276  45.220  1.00  0.00    -0.318 OA
BRANCH  16  17
HETATM   17  C4  UNL     1      69.492  21.734  45.528  1.00  0.00     0.398 C 
HETATM   18  O3  UNL     1      69.574  22.871  46.021  1.00  0.00    -0.276 OA
ENDBRANCH  16  17
ENDBRANCH  10  16
BRANCH  11  19
HETATM   19  N1  UNL     1      66.210  19.393  43.015  1.00  0.00    -0.072 N 
ATOM     20  H13 UNL     1      65.238  19.084  42.972  1.00  0.00     0.274 HD
ATOM     21  H12 UNL     1      66.325  19.661  42.037  1.00  0.00     0.274 HD
ATOM     22  H11 UNL     1      66.840  18.635  43.280  1.00  0.00     0.274 HD
ENDBRANCH  11  19
BRANCH  13  23
HETATM   23  N2  UNL     1      65.966  23.250  45.161  1.00  0.00    -0.072 N 
ATOM     24  H23 UNL     1      66.521  24.082  45.363  1.00  0.00     0.274 HD
ATOM     25  H22 UNL     1      65.067  23.572  45.522  1.00  0.00     0.274 HD
ATOM     26  H21 UNL     1      66.307  22.437  45.674  1.00  0.00     0.274 HD
ENDBRANCH  13  23
ENDBRANCH   7   8
ENDBRANCH   1   7
BRANCH   2  27
HETATM   27  N3  UNL     1      68.443  26.142  40.599  1.00  0.00    -0.245 N 
ATOM     28  H3  UNL     1      68.543  25.618  39.730  1.00  0.00     0.197 HD
BRANCH  27  29
HETATM   29  N4  UNL     1      67.895  27.242  40.625  1.00  0.00    -0.248 NA
BRANCH  29  30
HETATM   30  N5  UNL     1      67.380  28.329  40.915  1.00  0.00    -0.261 N 
ATOM     31  H52 UNL     1      67.875  28.787  40.150  1.00  0.00     0.193 HD
ATOM     32  H51 UNL     1      66.858  29.109  41.314  1.00  0.00     0.193 HD
ENDBRANCH  29  30
ENDBRANCH  27  29
ENDBRANCH   2  27
BRANCH   6  33
HETATM   33  O6  UNL     1      67.008  26.390  44.986  1.00  0.00    -0.390 OA
ATOM     34  H6  UNL     1      66.489  27.149  45.228  1.00  0.00     0.210 HD
ENDBRANCH   6  33
BRANCH   5  35
HETATM   35  O5  UNL     1      69.385  28.365  44.446  1.00  0.00    -0.391 OA
ATOM     36  H5  UNL     1      69.869  28.580  45.235  1.00  0.00     0.210 HD
ENDBRANCH   5  35
BRANCH   4  37
HETATM   37  N6  UNL     1      70.739  25.081  44.119  1.00  0.00    -0.072 N 
ATOM     38  H63 UNL     1      70.146  24.778  44.892  1.00  0.00     0.274 HD
ATOM     39  H62 UNL     1      70.478  24.396  43.409  1.00  0.00     0.274 HD
ATOM     40  H61 UNL     1      71.721  24.962  44.369  1.00  0.00     0.274 HD
ENDBRANCH   4  37
TORSDOF 13
ENDMDL
MODEL 3
REMARK VINA RESULT: -5.133621471      9.031     11.665
REMARK  13 active torsions:
REMARK  status: ('A' for Active; 'I' for Inactive)
REMARK    1  A    between atoms: O1_2  and  C2_3 
REMARK    2  A    between atoms: C3_4  and  O2_5 
REMARK    3  A    between atoms: O2_5  and  C4_6 
REMARK    4  A    between atoms: C5_8  and  N1_9 
REMARK    5  A    between atoms: C7_14  and  N2_15 
REMARK    6  A    between atoms: C8_19  and  O4_20 
REMARK    7  A    between atoms: O4_20  and  C9_21 
REMARK    8  A    between atoms: C10_22  and  N3_23 
REMARK    9  A    between atoms: N3_23  and  N4_25 
REMARK   10  A    between atoms: N4_25  and  N5_26 
REMARK   11  A    between atoms: C12_30  and  N6_31 
REMARK   12  A    between atoms: C13_35  and  O5_36 
REMARK   13  A    between atoms: C14_38  and  O6_39 
ROOT
HETATM    1  C9  UNL     1      68.504  24.361  42.371  1.00  0.00     0.178 C 
HETATM    2  C10 UNL     1      69.021  23.028  41.906  1.00  0.00     0.148 C 
HETATM    3  C11 UNL     1      69.712  23.051  40.585  1.00  0.00     0.066 C 
HETATM    4  C12 UNL     1      70.562  24.270  40.505  1.00  0.00     0.216 C 
HETATM    5  C13 UNL     1      69.629  25.443  40.380  1.00  0.00     0.179 C 
HETATM    6  C14 UNL     1      68.461  25.403  41.301  1.00  0.00     0.180 C 
ENDROOT
BRANCH   1   7
HETATM    7  O4  UNL     1      69.272  24.802  43.396  1.00  0.00    -0.371 OA
BRANCH   7   8
HETATM    8  C8  UNL     1      68.968  24.444  44.678  1.00  0.00     0.184 C 
HETATM    9  C2  UNL     1      70.199  24.615  45.494  1.00  0.00     0.183 C 
HETATM   10  C3  UNL     1      70.164  25.684  46.530  1.00  0.00     0.193 C 
HETATM   11  C5  UNL     1      68.946  25.707  47.391  1.00  0.00     0.217 C 
HETATM   12  C6  UNL     1      67.741  25.079  46.757  1.00  0.00     0.071 C 
HETATM   13  C7  UNL     1      67.764  25.148  45.252  1.00  0.00     0.217 C 
BRANCH   9  14
HETATM   14  O1  UNL     1      70.468  23.378  46.115  1.00  0.00    -0.385 OA
HETATM   15  C1  UNL     1      71.686  23.330  46.722  1.00  0.00     0.202 C 
ENDBRANCH   9  14
BRANCH  10  16
HETATM   16  O2  UNL     1      70.374  26.948  45.938  1.00  0.00    -0.318 OA
BRANCH  16  17
HETATM   17  C4  UNL     1      71.090  27.142  44.779  1.00  0.00     0.398 C 
HETATM   18  O3  UNL     1      70.492  27.671  43.829  1.00  0.00    -0.276 OA
ENDBRANCH  16  17
ENDBRANCH  10  16
BRANCH  11  19
HETATM   19  N1  UNL     1      69.193  24.980  48.626  1.00  0.00    -0.072 N 
ATOM     20  H13 UNL     1      68.537  25.244  49.362  1.00  0.00     0.274 HD
ATOM     21  H12 UNL     1      68.940  23.994  48.547  1.00  0.00     0.274 HD
ATOM     22  H11 UNL     1      70.163  25.103  48.917  1.00  0.00     0.274 HD
ENDBRANCH  11  19
BRANCH  13  23
HETATM   23  N2  UNL     1      67.629  26.524  44.791  1.00  0.00    -0.072 N 
ATOM     24  H23 UNL     1      66.684  26.719  44.460  1.00  0.00     0.274 HD
ATOM     25  H22 UNL     1      67.660  27.186  45.566  1.00  0.00     0.274 HD
ATOM     26  H21 UNL     1      68.328  26.742  44.081  1.00  0.00     0.274 HD
ENDBRANCH  13  23
ENDBRANCH   7   8
ENDBRANCH   1   7
BRANCH   2  27
HETATM   27  N3  UNL     1      67.910  22.075  41.718  1.00  0.00    -0.245 N 
ATOM     28  H3  UNL     1      68.032  21.212  41.188  1.00  0.00     0.197 HD
BRANCH  27  29
HETATM   29  N4  UNL     1      66.830  22.366  42.229  1.00  0.00    -0.248 NA
BRANCH  29  30
HETATM   30  N5  UNL     1      65.643  22.504  42.550  1.00  0.00    -0.261 N 
ATOM     31  H52 UNL     1      65.601  21.539  42.876  1.00  0.00     0.193 HD
ATOM     32  H51 UNL     1      64.693  22.824  42.739  1.00  0.00     0.193 HD
ENDBRANCH  29  30
ENDBRANCH  27  29
ENDBRANCH   2  27
BRANCH   6  33
HETATM   33  O6  UNL     1      68.234  26.686  41.775  1.00  0.00    -0.390 OA
ATOM     34  H6  UNL     1      68.743  27.356  41.333  1.00  0.00     0.210 HD
ENDBRANCH   6  33
BRANCH   5  35
HETATM   35  O5  UNL     1      69.227  25.503  39.044  1.00  0.00    -0.391 OA
ATOM     36  H5  UNL     1      69.848  24.986  38.546  1.00  0.00     0.210 HD
ENDBRANCH   5  35
BRANCH   4  37
HETATM   37  N6  UNL     1      71.563  24.398  41.505  1.00  0.00    -0.072 N 
ATOM     38  H63 UNL     1      71.250  25.046  42.228  1.00  0.00     0.274 HD
ATOM     39  H62 UNL     1      71.625  23.536  42.045  1.00  0.00     0.274 HD
ATOM     40  H61 UNL     1      72.490  24.668  41.177  1.00  0.00     0.274 HD
ENDBRANCH   4  37
TORSDOF 13
ENDMDL
MODEL 4
REMARK VINA RESULT: -5.115371602      9.989     12.359
REMARK  13 active torsions:
REMARK  status: ('A' for Active; 'I' for Inactive)
REMARK    1  A    between atoms: O1_2  and  C2_3 
REMARK    2  A    between atoms: C3_4  and  O2_5 
REMARK    3  A    between atoms: O2_5  and  C4_6 
REMARK    4  A    between atoms: C5_8  and  N1_9 
REMARK    5  A    between atoms: C7_14  and  N2_15 
REMARK    6  A    between atoms: C8_19  and  O4_20 
REMARK    7  A    between atoms: O4_20  and  C9_21 
REMARK    8  A    between atoms: C10_22  and  N3_23 
REMARK    9  A    between atoms: N3_23  and  N4_25 
REMARK   10  A    between atoms: N4_25  and  N5_26 
REMARK   11  A    between atoms: C12_30  and  N6_31 
REMARK   12  A    between atoms: C13_35  and  O5_36 
REMARK   13  A    between atoms: C14_38  and  O6_39 
ROOT
HETATM    1  C9  UNL     1      67.946  25.563  42.826  1.00  0.00     0.178 C 
HETATM    2  C10 UNL     1      69.118  25.600  41.886  1.00  0.00     0.148 C 
HETATM    3  C11 UNL     1      70.223  26.511  42.299  1.00  0.00     0.066 C 
HETATM    4  C12 UNL     1      70.427  26.388  43.769  1.00  0.00     0.216 C 
HETATM    5  C13 UNL     1      69.239  27.034  44.428  1.00  0.00     0.179 C 
HETATM    6  C14 UNL     1      67.928  26.679  43.820  1.00  0.00     0.180 C 
ENDROOT
BRANCH   1   7
HETATM    7  O4  UNL     1      67.941  24.378  43.483  1.00  0.00    -0.371 OA
BRANCH   7   8
HETATM    8  C8  UNL     1      67.230  23.325  42.981  1.00  0.00     0.184 C 
HETATM    9  C2  UNL     1      68.134  22.145  42.962  1.00  0.00     0.183 C 
HETATM   10  C3  UNL     1      67.788  21.030  43.887  1.00  0.00     0.193 C 
HETATM   11  C5  UNL     1      66.357  20.606  43.878  1.00  0.00     0.217 C 
HETATM   12  C6  UNL     1      65.410  21.675  43.419  1.00  0.00     0.071 C 
HETATM   13  C7  UNL     1      65.920  23.068  43.682  1.00  0.00     0.217 C 
BRANCH   9  14
HETATM   14  O1  UNL     1      68.162  21.657  41.640  1.00  0.00    -0.385 OA
HETATM   15  C1  UNL     1      69.277  22.024  40.950  1.00  0.00     0.202 C 
ENDBRANCH   9  14
BRANCH  10  16
HETATM   16  O2  UNL     1      68.204  21.335  45.201  1.00  0.00    -0.318 OA
BRANCH  16  17
HETATM   17  C4  UNL     1      69.450  21.828  45.514  1.00  0.00     0.398 C 
HETATM   18  O3  UNL     1      69.492  22.931  46.082  1.00  0.00    -0.276 OA
ENDBRANCH  16  17
ENDBRANCH  10  16
BRANCH  11  19
HETATM   19  N1  UNL     1      66.176  19.476  42.980  1.00  0.00    -0.072 N 
ATOM     20  H13 UNL     1      66.228  19.755  42.000  1.00  0.00     0.274 HD
ATOM     21  H12 UNL     1      66.976  18.842  42.998  1.00  0.00     0.274 HD
ATOM     22  H11 UNL     1      65.303  18.994  43.195  1.00  0.00     0.274 HD
ENDBRANCH  11  19
BRANCH  13  23
HETATM   23  N2  UNL     1      65.970  23.343  45.112  1.00  0.00    -0.072 N 
ATOM     24  H23 UNL     1      65.746  22.515  45.663  1.00  0.00     0.274 HD
ATOM     25  H22 UNL     1      66.927  23.489  45.434  1.00  0.00     0.274 HD
ATOM     26  H21 UNL     1      65.367  24.130  45.354  1.00  0.00     0.274 HD
ENDBRANCH  13  23
ENDBRANCH   7   8
ENDBRANCH   1   7
BRANCH   2  27
HETATM   27  N3  UNL     1      68.708  26.106  40.561  1.00  0.00    -0.245 N 
ATOM     28  H3  UNL     1      68.035  26.867  40.467  1.00  0.00     0.197 HD
BRANCH  27  29
HETATM   29  N4  UNL     1      69.213  25.571  39.577  1.00  0.00    -0.248 NA
BRANCH  29  30
HETATM   30  N5  UNL     1      69.507  24.874  38.598  1.00  0.00    -0.261 N 
ATOM     31  H52 UNL     1      69.104  25.564  37.964  1.00  0.00     0.193 HD
ATOM     32  H51 UNL     1      69.831  24.162  37.943  1.00  0.00     0.193 HD
ENDBRANCH  29  30
ENDBRANCH  27  29
ENDBRANCH   2  27
BRANCH   6  33
HETATM   33  O6  UNL     1      67.005  26.507  44.841  1.00  0.00    -0.390 OA
ATOM     34  H6  UNL     1      66.136  26.271  44.537  1.00  0.00     0.210 HD
ENDBRANCH   6  33
BRANCH   5  35
HETATM   35  O5  UNL     1      69.460  28.413  44.403  1.00  0.00    -0.391 OA
ATOM     36  H5  UNL     1      69.043  28.745  43.617  1.00  0.00     0.210 HD
ENDBRANCH   5  35
BRANCH   4  37
HETATM   37  N6  UNL     1      70.751  25.090  44.247  1.00  0.00    -0.072 N 
ATOM     38  H63 UNL     1      69.914  24.507  44.260  1.00  0.00     0.274 HD
ATOM     39  H62 UNL     1      71.309  24.594  43.552  1.00  0.00     0.274 HD
ATOM     40  H61 UNL     1      71.214  25.050  45.155  1.00  0.00     0.274 HD
ENDBRANCH   4  37
TORSDOF 13
ENDMDL
MODEL 5
REMARK VINA RESULT: -5.093531823     10.124     12.307
REMARK  13 active torsions:
REMARK  status: ('A' for Active; 'I' for Inactive)
REMARK    1  A    between atoms: O1_2  and  C2_3 
REMARK    2  A    between atoms: C3_4  and  O2_5 
REMARK    3  A    between atoms: O2_5  and  C4_6 
REMARK    4  A    between atoms: C5_8  and  N1_9 
REMARK    5  A    between atoms: C7_14  and  N2_15 
REMARK    6  A    between atoms: C8_19  and  O4_20 
REMARK    7  A    between atoms: O4_20  and  C9_21 
REMARK    8  A    between atoms: C10_22  and  N3_23 
REMARK    9  A    between atoms: N3_23  and  N4_25 
REMARK   10  A    between atoms: N4_25  and  N5_26 
REMARK   11  A    between atoms: C12_30  and  N6_31 
REMARK   12  A    between atoms: C13_35  and  O5_36 
REMARK   13  A    between atoms: C14_38  and  O6_39 
ROOT
HETATM    1  C9  UNL     1      68.085  24.972  43.500  1.00  0.00     0.178 C 
HETATM    2  C10 UNL     1      69.332  24.866  42.668  1.00  0.00     0.148 C 
HETATM    3  C11 UNL     1      70.280  26.007  42.814  1.00  0.00     0.066 C 
HETATM    4  C12 UNL     1      70.351  26.396  44.250  1.00  0.00     0.216 C 
HETATM    5  C13 UNL     1      69.038  27.047  44.589  1.00  0.00     0.179 C 
HETATM    6  C14 UNL     1      67.843  26.335  44.063  1.00  0.00     0.180 C 
ENDROOT
BRANCH   1   7
HETATM    7  O4  UNL     1      68.150  24.074  44.513  1.00  0.00    -0.371 OA
BRANCH   7   8
HETATM    8  C8  UNL     1      67.306  23.001  44.527  1.00  0.00     0.184 C 
HETATM    9  C2  UNL     1      66.726  22.871  43.164  1.00  0.00     0.183 C 
HETATM   10  C3  UNL     1      67.119  21.662  42.389  1.00  0.00     0.193 C 
HETATM   11  C5  UNL     1      67.037  20.368  43.128  1.00  0.00     0.217 C 
HETATM   12  C6  UNL     1      67.141  20.513  44.617  1.00  0.00     0.071 C 
HETATM   13  C7  UNL     1      67.928  21.726  45.039  1.00  0.00     0.217 C 
BRANCH   9  14
HETATM   14  O1  UNL     1      65.323  22.899  43.298  1.00  0.00    -0.385 OA
HETATM   15  C1  UNL     1      64.902  23.393  44.495  1.00  0.00     0.202 C 
ENDBRANCH   9  14
BRANCH  10  16
HETATM   16  O2  UNL     1      68.404  21.832  41.832  1.00  0.00    -0.318 OA
BRANCH  16  17
HETATM   17  C4  UNL     1      69.062  20.860  41.114  1.00  0.00     0.398 C 
HETATM   18  O3  UNL     1      69.475  21.174  39.986  1.00  0.00    -0.276 OA
ENDBRANCH  16  17
ENDBRANCH  10  16
BRANCH  11  19
HETATM   19  N1  UNL     1      65.764  19.719  42.860  1.00  0.00    -0.072 N 
ATOM     20  H13 UNL     1      65.259  19.500  43.719  1.00  0.00     0.274 HD
ATOM     21  H12 UNL     1      65.086  20.361  42.448  1.00  0.00     0.274 HD
ATOM     22  H11 UNL     1      65.907  18.892  42.280  1.00  0.00     0.274 HD
ENDBRANCH  11  19
BRANCH  13  23
HETATM   23  N2  UNL     1      69.333  21.588  44.680  1.00  0.00    -0.072 N 
ATOM     24  H23 UNL     1      69.922  21.464  45.504  1.00  0.00     0.274 HD
ATOM     25  H22 UNL     1      69.518  20.695  44.222  1.00  0.00     0.274 HD
ATOM     26  H21 UNL     1      69.644  22.374  44.110  1.00  0.00     0.274 HD
ENDBRANCH  13  23
ENDBRANCH   7   8
ENDBRANCH   1   7
BRANCH   2  27
HETATM   27  N3  UNL     1      68.998  24.855  41.230  1.00  0.00    -0.245 N 
ATOM     28  H3  UNL     1      68.071  25.116  40.896  1.00  0.00     0.197 HD
BRANCH  27  29
HETATM   29  N4  UNL     1      69.888  24.516  40.452  1.00  0.00    -0.248 NA
BRANCH  29  30
HETATM   30  N5  UNL     1      70.592  24.024  39.561  1.00  0.00    -0.261 N 
ATOM     31  H52 UNL     1      69.801  23.483  39.211  1.00  0.00     0.193 HD
ATOM     32  H51 UNL     1      71.330  23.743  38.916  1.00  0.00     0.193 HD
ENDBRANCH  29  30
ENDBRANCH  27  29
ENDBRANCH   2  27
BRANCH   6  33
HETATM   33  O6  UNL     1      66.850  26.375  45.030  1.00  0.00    -0.390 OA
ATOM     34  H6  UNL     1      67.179  26.488  45.915  1.00  0.00     0.210 HD
ENDBRANCH   6  33
BRANCH   5  35
HETATM   35  O5  UNL     1      69.103  28.360  44.118  1.00  0.00    -0.391 OA
ATOM     36  H5  UNL     1      68.561  28.887  44.693  1.00  0.00     0.210 HD
ENDBRANCH   5  35
BRANCH   4  37
HETATM   37  N6  UNL     1      70.772  25.381  45.150  1.00  0.00    -0.072 N 
ATOM     38  H63 UNL     1      70.350  24.490  44.889  1.00  0.00     0.274 HD
ATOM     39  H62 UNL     1      71.758  25.168  44.996  1.00  0.00     0.274 HD
ATOM     40  H61 UNL     1      70.609  25.565  46.140  1.00  0.00     0.274 HD
ENDBRANCH   4  37
TORSDOF 13
ENDMDL
