MODEL 1
REMARK VINA RESULT: -7.573964169      0.000      0.000
REMARK  10 active torsions:
REMARK  status: ('A' for Active; 'I' for Inactive)
REMARK    1  A    between atoms: C3_4  and  O2_5 
REMARK    2  A    between atoms: O2_5  and  C4_6 
REMARK    3  A    between atoms: C4_6  and  C5_7 
REMARK    4  A    between atoms: C11_13  and  O3_14 
REMARK    5  A    between atoms: C12_16  and  O4_17 
REMARK    6  A    between atoms: O4_17  and  C13_18 
REMARK    7  A    between atoms: C14_20  and  O6_21 
REMARK    8  A    between atoms: C15_23  and  O7_24 
REMARK    9  A    between atoms: C16_26  and  O8_27 
REMARK   10  A    between atoms: C17_29  and  O9_30 
ROOT
HETATM    1  C1  UNL     1      76.814  25.022  44.030  1.00  0.00     0.042 C 
HETATM    2  C2  UNL     1      77.804  25.035  42.884  1.00  0.00     0.152 C 
HETATM    3  O1  UNL     1      77.123  24.645  41.738  1.00  0.00    -0.351 OA
HETATM    4  C3  UNL     1      77.961  24.249  40.721  1.00  0.00     0.291 C 
HETATM    5  C11 UNL     1      78.521  22.893  41.067  1.00  0.00     0.205 C 
HETATM    6  C12 UNL     1      78.744  22.742  42.534  1.00  0.00     0.189 C 
HETATM    7  C17 UNL     1      78.912  24.069  43.241  1.00  0.00     0.178 C 
ENDROOT
BRANCH   6   8
HETATM    8  O4  UNL     1      79.786  21.908  42.861  1.00  0.00    -0.348 OA
BRANCH   8   9
HETATM    9  C13 UNL     1      79.665  21.299  44.093  1.00  0.00     0.295 C 
HETATM   10  O5  UNL     1      78.677  20.327  44.016  1.00  0.00    -0.326 OA
HETATM   11  C14 UNL     1      79.207  19.254  43.321  1.00  0.00     0.291 C 
HETATM   12  C15 UNL     1      80.699  19.312  43.442  1.00  0.00     0.206 C 
HETATM   13  C16 UNL     1      80.888  20.445  44.428  1.00  0.00     0.207 C 
BRANCH  11  14
HETATM   14  O6  UNL     1      78.755  18.086  43.934  1.00  0.00    -0.368 OA
ATOM     15  H6  UNL     1      79.323  17.376  43.658  1.00  0.00     0.212 HD
ENDBRANCH  11  14
BRANCH  12  16
HETATM   16  O7  UNL     1      81.257  18.122  43.899  1.00  0.00    -0.388 OA
ATOM     17  H7  UNL     1      81.870  18.248  44.614  1.00  0.00     0.210 HD
ENDBRANCH  12  16
BRANCH  13  18
HETATM   18  O8  UNL     1      80.686  19.960  45.713  1.00  0.00    -0.388 OA
ATOM     19  H8  UNL     1      81.508  20.076  46.175  1.00  0.00     0.210 HD
ENDBRANCH  13  18
ENDBRANCH   8   9
ENDBRANCH   6   8
BRANCH   5  20
HETATM   20  O3  UNL     1      79.717  22.633  40.408  1.00  0.00    -0.388 OA
ATOM     21  H3  UNL     1      80.057  21.768  40.607  1.00  0.00     0.210 HD
ENDBRANCH   5  20
BRANCH   7  22
HETATM   22  O9  UNL     1      80.112  24.632  42.814  1.00  0.00    -0.390 OA
ATOM     23  H9  UNL     1      80.350  24.210  41.996  1.00  0.00     0.210 HD
ENDBRANCH   7  22
BRANCH   4  24
HETATM   24  O2  UNL     1      77.219  24.123  39.550  1.00  0.00    -0.358 OA
BRANCH  24  25
HETATM   25  C4  UNL     1      75.887  24.366  39.859  1.00  0.00     0.175 C 
BRANCH  25  26
HETATM   26  C5  UNL     1      74.941  23.775  38.850  1.00  0.00     0.009 C 
HETATM   27  C6  UNL     1      73.516  24.222  39.059  1.00  0.00     0.007 C 
HETATM   28  C7  UNL     1      72.783  23.088  39.737  1.00  0.00     0.000 C 
HETATM   29  C8  UNL     1      72.698  21.874  38.854  1.00  0.00     0.000 C 
HETATM   30  C9  UNL     1      73.974  21.625  38.104  1.00  0.00     0.000 C 
HETATM   31  C10 UNL     1      75.095  22.283  38.863  1.00  0.00     0.007 C 
ENDBRANCH  25  26
ENDBRANCH  24  25
ENDBRANCH   4  24
TORSDOF 10
ENDMDL
MODEL 2
REMARK VINA RESULT: -7.482032544      0.779      1.441
REMARK  10 active torsions:
REMARK  status: ('A' for Active; 'I' for Inactive)
REMARK    1  A    between atoms: C3_4  and  O2_5 
REMARK    2  A    between atoms: O2_5  and  C4_6 
REMARK    3  A    between atoms: C4_6  and  C5_7 
REMARK    4  A    between atoms: C11_13  and  O3_14 
REMARK    5  A    between atoms: C12_16  and  O4_17 
REMARK    6  A    between atoms: O4_17  and  C13_18 
REMARK    7  A    between atoms: C14_20  and  O6_21 
REMARK    8  A    between atoms: C15_23  and  O7_24 
REMARK    9  A    between atoms: C16_26  and  O8_27 
REMARK   10  A    between atoms: C17_29  and  O9_30 
ROOT
HETATM    1  C1  UNL     1      76.935  24.752  44.243  1.00  0.00     0.042 C 
HETATM    2  C2  UNL     1      77.945  24.828  43.116  1.00  0.00     0.152 C 
HETATM    3  O1  UNL     1      77.284  24.500  41.939  1.00  0.00    -0.351 OA
HETATM    4  C3  UNL     1      78.142  24.159  40.918  1.00  0.00     0.291 C 
HETATM    5  C11 UNL     1      78.697  22.787  41.200  1.00  0.00     0.205 C 
HETATM    6  C12 UNL     1      78.894  22.557  42.660  1.00  0.00     0.189 C 
HETATM    7  C17 UNL     1      79.048  23.843  43.440  1.00  0.00     0.178 C 
ENDROOT
BRANCH   6   8
HETATM    8  O4  UNL     1      79.930  21.706  42.961  1.00  0.00    -0.348 OA
BRANCH   8   9
HETATM    9  C13 UNL     1      79.537  20.449  43.368  1.00  0.00     0.295 C 
HETATM   10  O5  UNL     1      80.660  19.635  43.452  1.00  0.00    -0.326 OA
HETATM   11  C14 UNL     1      81.350  20.003  44.594  1.00  0.00     0.291 C 
HETATM   12  C15 UNL     1      80.386  20.661  45.532  1.00  0.00     0.206 C 
HETATM   13  C16 UNL     1      79.065  20.443  44.823  1.00  0.00     0.207 C 
BRANCH  11  14
HETATM   14  O6  UNL     1      81.830  18.839  45.193  1.00  0.00    -0.368 OA
ATOM     15  H6  UNL     1      82.776  18.913  45.254  1.00  0.00     0.212 HD
ENDBRANCH  11  14
BRANCH  12  16
HETATM   16  O7  UNL     1      80.394  20.102  46.805  1.00  0.00    -0.388 OA
ATOM     17  H7  UNL     1      80.593  19.173  46.804  1.00  0.00     0.210 HD
ENDBRANCH  12  16
BRANCH  13  18
HETATM   18  O8  UNL     1      78.622  19.154  45.086  1.00  0.00    -0.388 OA
ATOM     19  H8  UNL     1      77.776  19.243  45.509  1.00  0.00     0.210 HD
ENDBRANCH  13  18
ENDBRANCH   8   9
ENDBRANCH   6   8
BRANCH   5  20
HETATM   20  O3  UNL     1      79.904  22.562  40.549  1.00  0.00    -0.388 OA
ATOM     21  H3  UNL     1      80.055  21.640  40.378  1.00  0.00     0.210 HD
ENDBRANCH   5  20
BRANCH   7  22
HETATM   22  O9  UNL     1      80.255  24.428  43.066  1.00  0.00    -0.390 OA
ATOM     23  H9  UNL     1      80.077  25.004  42.331  1.00  0.00     0.210 HD
ENDBRANCH   7  22
BRANCH   4  24
HETATM   24  O2  UNL     1      77.420  24.097  39.729  1.00  0.00    -0.358 OA
BRANCH  24  25
HETATM   25  C4  UNL     1      76.101  24.430  40.009  1.00  0.00     0.175 C 
BRANCH  25  26
HETATM   26  C5  UNL     1      75.137  23.894  38.987  1.00  0.00     0.009 C 
HETATM   27  C6  UNL     1      73.731  24.393  39.197  1.00  0.00     0.007 C 
HETATM   28  C7  UNL     1      72.949  23.279  39.853  1.00  0.00     0.000 C 
HETATM   29  C8  UNL     1      72.821  22.084  38.950  1.00  0.00     0.000 C 
HETATM   30  C9  UNL     1      74.089  21.797  38.202  1.00  0.00     0.000 C 
HETATM   31  C10 UNL     1      75.232  22.397  38.976  1.00  0.00     0.007 C 
ENDBRANCH  25  26
ENDBRANCH  24  25
ENDBRANCH   4  24
TORSDOF 10
ENDMDL
MODEL 3
REMARK VINA RESULT: -7.451056749      6.595      9.458
REMARK  10 active torsions:
REMARK  status: ('A' for Active; 'I' for Inactive)
REMARK    1  A    between atoms: C3_4  and  O2_5 
REMARK    2  A    between atoms: O2_5  and  C4_6 
REMARK    3  A    between atoms: C4_6  and  C5_7 
REMARK    4  A    between atoms: C11_13  and  O3_14 
REMARK    5  A    between atoms: C12_16  and  O4_17 
REMARK    6  A    between atoms: O4_17  and  C13_18 
REMARK    7  A    between atoms: C14_20  and  O6_21 
REMARK    8  A    between atoms: C15_23  and  O7_24 
REMARK    9  A    between atoms: C16_26  and  O8_27 
REMARK   10  A    between atoms: C17_29  and  O9_30 
ROOT
HETATM    1  C1  UNL     1      68.956  20.570  42.773  1.00  0.00     0.042 C 
HETATM    2  C2  UNL     1      68.536  21.590  41.735  1.00  0.00     0.152 C 
HETATM    3  O1  UNL     1      69.578  21.715  40.825  1.00  0.00    -0.351 OA
HETATM    4  C3  UNL     1      69.494  22.860  40.066  1.00  0.00     0.291 C 
HETATM    5  C11 UNL     1      69.871  24.034  40.933  1.00  0.00     0.205 C 
HETATM    6  C12 UNL     1      69.423  23.850  42.343  1.00  0.00     0.189 C 
HETATM    7  C17 UNL     1      68.264  22.885  42.469  1.00  0.00     0.178 C 
ENDROOT
BRANCH   6   8
HETATM    8  O4  UNL     1      69.123  25.021  42.996  1.00  0.00    -0.348 OA
BRANCH   8   9
HETATM    9  C13 UNL     1      69.975  25.332  44.034  1.00  0.00     0.295 C 
HETATM   10  O5  UNL     1      71.200  25.717  43.507  1.00  0.00    -0.326 OA
HETATM   11  C14 UNL     1      71.046  26.993  42.995  1.00  0.00     0.291 C 
HETATM   12  C15 UNL     1      69.887  27.637  43.690  1.00  0.00     0.206 C 
HETATM   13  C16 UNL     1      69.552  26.613  44.754  1.00  0.00     0.207 C 
BRANCH  11  14
HETATM   14  O6  UNL     1      72.201  27.713  43.295  1.00  0.00    -0.368 OA
ATOM     15  H6  UNL     1      72.116  28.574  42.902  1.00  0.00     0.212 HD
ENDBRANCH  11  14
BRANCH  12  16
HETATM   16  O7  UNL     1      70.198  28.878  44.238  1.00  0.00    -0.388 OA
ATOM     17  H7  UNL     1      69.502  29.516  44.136  1.00  0.00     0.210 HD
ENDBRANCH  12  16
BRANCH  13  18
HETATM   18  O8  UNL     1      70.428  26.771  45.819  1.00  0.00    -0.388 OA
ATOM     19  H8  UNL     1      69.896  26.762  46.606  1.00  0.00     0.210 HD
ENDBRANCH  13  18
ENDBRANCH   8   9
ENDBRANCH   6   8
BRANCH   5  20
HETATM   20  O3  UNL     1      69.350  25.231  40.455  1.00  0.00    -0.388 OA
ATOM     21  H3  UNL     1      68.402  25.258  40.508  1.00  0.00     0.210 HD
ENDBRANCH   5  20
BRANCH   7  22
HETATM   22  O9  UNL     1      67.151  23.476  41.877  1.00  0.00    -0.390 OA
ATOM     23  H9  UNL     1      67.122  23.187  40.972  1.00  0.00     0.210 HD
ENDBRANCH   7  22
BRANCH   4  24
HETATM   24  O2  UNL     1      70.417  22.778  39.027  1.00  0.00    -0.358 OA
BRANCH  24  25
HETATM   25  C4  UNL     1      71.641  22.404  39.568  1.00  0.00     0.175 C 
BRANCH  25  26
HETATM   26  C5  UNL     1      72.778  23.253  39.069  1.00  0.00     0.009 C 
HETATM   27  C6  UNL     1      73.682  22.509  38.119  1.00  0.00     0.007 C 
HETATM   28  C7  UNL     1      74.917  22.108  38.891  1.00  0.00     0.000 C 
HETATM   29  C8  UNL     1      75.705  23.308  39.340  1.00  0.00     0.000 C 
HETATM   30  C9  UNL     1      74.822  24.420  39.826  1.00  0.00     0.000 C 
HETATM   31  C10 UNL     1      73.508  23.820  40.250  1.00  0.00     0.007 C 
ENDBRANCH  25  26
ENDBRANCH  24  25
ENDBRANCH   4  24
TORSDOF 10
ENDMDL
MODEL 4
REMARK VINA RESULT: -7.385450410      6.426      9.167
REMARK  10 active torsions:
REMARK  status: ('A' for Active; 'I' for Inactive)
REMARK    1  A    between atoms: C3_4  and  O2_5 
REMARK    2  A    between atoms: O2_5  and  C4_6 
REMARK    3  A    between atoms: C4_6  and  C5_7 
REMARK    4  A    between atoms: C11_13  and  O3_14 
REMARK    5  A    between atoms: C12_16  and  O4_17 
REMARK    6  A    between atoms: O4_17  and  C13_18 
REMARK    7  A    between atoms: C14_20  and  O6_21 
REMARK    8  A    between atoms: C15_23  and  O7_24 
REMARK    9  A    between atoms: C16_26  and  O8_27 
REMARK   10  A    between atoms: C17_29  and  O9_30 
ROOT
HETATM    1  C1  UNL     1      68.987  20.431  41.611  1.00  0.00     0.042 C 
HETATM    2  C2  UNL     1      68.722  21.840  41.124  1.00  0.00     0.152 C 
HETATM    3  O1  UNL     1      69.840  22.255  40.412  1.00  0.00    -0.351 OA
HETATM    4  C3  UNL     1      69.896  23.619  40.244  1.00  0.00     0.291 C 
HETATM    5  C11 UNL     1      70.280  24.245  41.560  1.00  0.00     0.205 C 
HETATM    6  C12 UNL     1      69.708  23.499  42.718  1.00  0.00     0.189 C 
HETATM    7  C17 UNL     1      68.480  22.696  42.348  1.00  0.00     0.178 C 
ENDROOT
BRANCH   6   8
HETATM    8  O4  UNL     1      69.436  24.283  43.813  1.00  0.00    -0.348 OA
BRANCH   8   9
HETATM    9  C13 UNL     1      70.452  24.338  44.743  1.00  0.00     0.295 C 
HETATM   10  O5  UNL     1      71.120  25.548  44.605  1.00  0.00    -0.326 OA
HETATM   11  C14 UNL     1      70.309  26.530  45.146  1.00  0.00     0.291 C 
HETATM   12  C15 UNL     1      69.381  25.882  46.126  1.00  0.00     0.206 C 
HETATM   13  C16 UNL     1      69.913  24.465  46.169  1.00  0.00     0.207 C 
BRANCH  11  14
HETATM   14  O6  UNL     1      71.127  27.426  45.832  1.00  0.00    -0.368 OA
ATOM     15  H6  UNL     1      71.084  28.261  45.381  1.00  0.00     0.212 HD
ENDBRANCH  11  14
BRANCH  12  16
HETATM   16  O7  UNL     1      69.401  26.486  47.379  1.00  0.00    -0.388 OA
ATOM     17  H7  UNL     1      68.719  27.138  47.491  1.00  0.00     0.210 HD
ENDBRANCH  12  16
BRANCH  13  18
HETATM   18  O8  UNL     1      71.017  24.425  47.010  1.00  0.00    -0.388 OA
ATOM     19  H8  UNL     1      71.684  24.962  46.600  1.00  0.00     0.210 HD
ENDBRANCH  13  18
ENDBRANCH   8   9
ENDBRANCH   6   8
BRANCH   5  20
HETATM   20  O3  UNL     1      69.882  25.574  41.649  1.00  0.00    -0.388 OA
ATOM     21  H3  UNL     1      69.300  25.823  40.941  1.00  0.00     0.210 HD
ENDBRANCH   5  20
BRANCH   7  22
HETATM   22  O9  UNL     1      67.461  23.593  42.038  1.00  0.00    -0.390 OA
ATOM     23  H9  UNL     1      66.652  23.237  42.389  1.00  0.00     0.210 HD
ENDBRANCH   7  22
BRANCH   4  24
HETATM   24  O2  UNL     1      70.892  23.917  39.318  1.00  0.00    -0.358 OA
BRANCH  24  25
HETATM   25  C4  UNL     1      72.040  23.224  39.685  1.00  0.00     0.175 C 
BRANCH  25  26
HETATM   26  C5  UNL     1      73.301  23.963  39.330  1.00  0.00     0.009 C 
HETATM   27  C6  UNL     1      74.148  23.217  38.331  1.00  0.00     0.007 C 
HETATM   28  C7  UNL     1      75.281  22.569  39.093  1.00  0.00     0.000 C 
HETATM   29  C8  UNL     1      76.193  23.593  39.709  1.00  0.00     0.000 C 
HETATM   30  C9  UNL     1      75.438  24.752  40.292  1.00  0.00     0.000 C 
HETATM   31  C10 UNL     1      74.038  24.289  40.595  1.00  0.00     0.007 C 
ENDBRANCH  25  26
ENDBRANCH  24  25
ENDBRANCH   4  24
TORSDOF 10
ENDMDL
MODEL 5
REMARK VINA RESULT: -7.332811099      5.680      9.168
REMARK  10 active torsions:
REMARK  status: ('A' for Active; 'I' for Inactive)
REMARK    1  A    between atoms: C3_4  and  O2_5 
REMARK    2  A    between atoms: O2_5  and  C4_6 
REMARK    3  A    between atoms: C4_6  and  C5_7 
REMARK    4  A    between atoms: C11_13  and  O3_14 
REMARK    5  A    between atoms: C12_16  and  O4_17 
REMARK    6  A    between atoms: O4_17  and  C13_18 
REMARK    7  A    between atoms: C14_20  and  O6_21 
REMARK    8  A    between atoms: C15_23  and  O7_24 
REMARK    9  A    between atoms: C16_26  and  O8_27 
REMARK   10  A    between atoms: C17_29  and  O9_30 
ROOT
HETATM    1  C1  UNL     1      71.598  30.597  43.691  1.00  0.00     0.042 C 
HETATM    2  C2  UNL     1      72.234  29.344  44.255  1.00  0.00     0.152 C 
HETATM    3  O1  UNL     1      73.356  29.061  43.486  1.00  0.00    -0.351 OA
HETATM    4  C3  UNL     1      73.801  27.768  43.639  1.00  0.00     0.291 C 
HETATM    5  C11 UNL     1      72.851  26.849  42.914  1.00  0.00     0.205 C 
HETATM    6  C12 UNL     1      71.443  27.335  42.989  1.00  0.00     0.189 C 
HETATM    7  C17 UNL     1      71.198  28.243  44.173  1.00  0.00     0.178 C 
ENDROOT
BRANCH   6   8
HETATM    8  O4  UNL     1      70.501  26.335  42.970  1.00  0.00    -0.348 OA
BRANCH   8   9
HETATM    9  C13 UNL     1      69.886  26.152  41.749  1.00  0.00     0.295 C 
HETATM   10  O5  UNL     1      70.328  24.954  41.202  1.00  0.00    -0.326 OA
HETATM   11  C14 UNL     1      69.701  23.931  41.890  1.00  0.00     0.291 C 
HETATM   12  C15 UNL     1      68.445  24.475  42.495  1.00  0.00     0.206 C 
HETATM   13  C16 UNL     1      68.391  25.867  41.902  1.00  0.00     0.207 C 
BRANCH  11  14
HETATM   14  O6  UNL     1      69.359  22.944  40.965  1.00  0.00    -0.368 OA
ATOM     15  H6  UNL     1      68.416  22.965  40.857  1.00  0.00     0.212 HD
ENDBRANCH  11  14
BRANCH  12  16
HETATM   16  O7  UNL     1      67.316  23.728  42.178  1.00  0.00    -0.388 OA
ATOM     17  H7  UNL     1      66.544  24.262  42.029  1.00  0.00     0.210 HD
ENDBRANCH  12  16
BRANCH  13  18
HETATM   18  O8  UNL     1      67.875  25.787  40.616  1.00  0.00    -0.388 OA
ATOM     19  H8  UNL     1      66.972  26.077  40.672  1.00  0.00     0.210 HD
ENDBRANCH  13  18
ENDBRANCH   8   9
ENDBRANCH   6   8
BRANCH   5  20
HETATM   20  O3  UNL     1      72.897  25.549  43.405  1.00  0.00    -0.388 OA
ATOM     21  H3  UNL     1      72.130  25.331  43.920  1.00  0.00     0.210 HD
ENDBRANCH   5  20
BRANCH   7  22
HETATM   22  O9  UNL     1      71.310  27.476  45.330  1.00  0.00    -0.390 OA
ATOM     23  H9  UNL     1      70.783  26.695  45.206  1.00  0.00     0.210 HD
ENDBRANCH   7  22
BRANCH   4  24
HETATM   24  O2  UNL     1      75.053  27.651  43.042  1.00  0.00    -0.358 OA
BRANCH  24  25
HETATM   25  C4  UNL     1      75.342  26.298  42.912  1.00  0.00     0.175 C 
BRANCH  25  26
HETATM   26  C5  UNL     1      76.099  25.986  41.650  1.00  0.00     0.009 C 
HETATM   27  C6  UNL     1      76.899  24.713  41.755  1.00  0.00     0.007 C 
HETATM   28  C7  UNL     1      78.341  25.102  41.985  1.00  0.00     0.000 C 
HETATM   29  C8  UNL     1      78.912  25.840  40.806  1.00  0.00     0.000 C 
HETATM   30  C9  UNL     1      77.935  26.817  40.218  1.00  0.00     0.000 C 
HETATM   31  C10 UNL     1      76.937  27.176  41.286  1.00  0.00     0.007 C 
ENDBRANCH  25  26
ENDBRANCH  24  25
ENDBRANCH   4  24
TORSDOF 10
ENDMDL
