MODEL 1
REMARK VINA RESULT: -7.537689495      0.000      0.000
REMARK  10 active torsions:
REMARK  status: ('A' for Active; 'I' for Inactive)
REMARK    1  A    between atoms: N1_1  and  C1_5 
REMARK    2  A    between atoms: C3_7  and  N2_8 
REMARK    3  A    between atoms: C4_12  and  O1_13 
REMARK    4  A    between atoms: O1_13  and  C5_14 
REMARK    5  A    between atoms: C6_16  and  C7_17 
REMARK    6  A    between atoms: C7_17  and  O3_18 
REMARK    7  A    between atoms: C8_20  and  O4_21 
REMARK    8  A    between atoms: C9_24  and  O6_25 
REMARK    9  A    between atoms: O6_25  and  C10_26 
REMARK       I    between atoms: C10_26  and  N3_28 
REMARK   10  A    between atoms: N3_28  and  C11_29 
ROOT
HETATM    1  C1  UNL     1      79.533  25.488  40.657  1.00  0.00     0.241 C 
HETATM    2  C2  UNL     1      78.480  25.170  39.631  1.00  0.00     0.075 C 
HETATM    3  C3  UNL     1      77.162  24.759  40.236  1.00  0.00     0.240 C 
HETATM    4  C4  UNL     1      77.145  25.378  41.637  1.00  0.00     0.296 C 
HETATM    5  O5  UNL     1      78.049  24.669  42.370  1.00  0.00    -0.327 OA
HETATM    6  C9  UNL     1      79.388  24.833  41.968  1.00  0.00     0.305 C 
ENDROOT
BRANCH   4   7
HETATM    7  O1  UNL     1      75.904  25.263  42.225  1.00  0.00    -0.327 OA
BRANCH   7   8
HETATM    8  C5  UNL     1      75.660  26.221  43.184  1.00  0.00     0.294 C 
HETATM    9  O2  UNL     1      76.261  27.454  43.026  1.00  0.00    -0.348 OA
HETATM   10  C6  UNL     1      75.174  28.050  43.612  1.00  0.00     0.181 C 
HETATM   11  C8  UNL     1      74.313  26.917  43.049  1.00  0.00     0.204 C 
BRANCH  10  12
HETATM   12  C7  UNL     1      74.747  29.400  43.068  1.00  0.00     0.199 C 
BRANCH  12  13
HETATM   13  O3  UNL     1      75.791  30.087  42.501  1.00  0.00    -0.398 OA
ATOM     14  H3  UNL     1      75.601  30.362  41.612  1.00  0.00     0.209 HD
ENDBRANCH  12  13
ENDBRANCH  10  12
BRANCH  11  15
HETATM   15  O4  UNL     1      73.377  26.537  43.990  1.00  0.00    -0.388 OA
ATOM     16  H4  UNL     1      73.702  26.519  44.883  1.00  0.00     0.210 HD
ENDBRANCH  11  15
ENDBRANCH   7   8
ENDBRANCH   4   7
BRANCH   3  17
HETATM   17  N2  UNL     1      76.012  25.129  39.459  1.00  0.00    -0.070 N 
ATOM     18  H23 UNL     1      75.750  26.096  39.651  1.00  0.00     0.274 HD
ATOM     19  H22 UNL     1      76.260  25.208  38.473  1.00  0.00     0.274 HD
ATOM     20  H21 UNL     1      75.208  24.513  39.577  1.00  0.00     0.274 HD
ENDBRANCH   3  17
BRANCH   6  21
HETATM   21  O6  UNL     1      80.031  23.577  41.957  1.00  0.00    -0.259 OA
BRANCH  21  22
HETATM   22  C10 UNL     1      79.300  22.352  42.183  1.00  0.00     0.437 C 
HETATM   23  O7  UNL     1      78.779  21.964  41.098  1.00  0.00    -0.221 OA
HETATM   24  N3  UNL     1      79.254  21.793  43.409  1.00  0.00    -0.385 NA
BRANCH  24  25
HETATM   25  C11 UNL     1      79.206  21.223  44.655  1.00  0.00     0.169 C 
HETATM   26  C12 UNL     1      80.559  20.612  45.110  1.00  0.00     0.039 C 
HETATM   27  C13 UNL     1      81.076  19.590  44.172  1.00  0.00     0.003 C 
HETATM   28  C14 UNL     1      80.072  18.917  43.323  1.00  0.00     0.000 C 
HETATM   29  C15 UNL     1      78.664  18.989  43.751  1.00  0.00     0.003 C 
HETATM   30  C16 UNL     1      78.267  20.000  44.749  1.00  0.00     0.039 C 
ENDBRANCH  24  25
ENDBRANCH  21  22
ENDBRANCH   6  21
BRANCH   1  31
HETATM   31  N1  UNL     1      79.760  26.937  40.760  1.00  0.00    -0.070 N 
ATOM     32  H13 UNL     1      79.271  27.446  40.024  1.00  0.00     0.274 HD
ATOM     33  H12 UNL     1      79.283  27.334  41.571  1.00  0.00     0.274 HD
ATOM     34  H11 UNL     1      80.756  27.159  40.769  1.00  0.00     0.274 HD
ENDBRANCH   1  31
TORSDOF 10
ENDMDL
MODEL 2
REMARK VINA RESULT: -7.530599118      2.942      4.227
REMARK  10 active torsions:
REMARK  status: ('A' for Active; 'I' for Inactive)
REMARK    1  A    between atoms: N1_1  and  C1_5 
REMARK    2  A    between atoms: C3_7  and  N2_8 
REMARK    3  A    between atoms: C4_12  and  O1_13 
REMARK    4  A    between atoms: O1_13  and  C5_14 
REMARK    5  A    between atoms: C6_16  and  C7_17 
REMARK    6  A    between atoms: C7_17  and  O3_18 
REMARK    7  A    between atoms: C8_20  and  O4_21 
REMARK    8  A    between atoms: C9_24  and  O6_25 
REMARK    9  A    between atoms: O6_25  and  C10_26 
REMARK       I    between atoms: C10_26  and  N3_28 
REMARK   10  A    between atoms: N3_28  and  C11_29 
ROOT
HETATM    1  C1  UNL     1      78.645  24.114  42.956  1.00  0.00     0.241 C 
HETATM    2  C2  UNL     1      79.561  25.045  42.210  1.00  0.00     0.075 C 
HETATM    3  C3  UNL     1      79.520  24.852  40.716  1.00  0.00     0.240 C 
HETATM    4  C4  UNL     1      78.154  24.226  40.421  1.00  0.00     0.296 C 
HETATM    5  O5  UNL     1      78.220  22.948  40.890  1.00  0.00    -0.327 OA
HETATM    6  C9  UNL     1      78.323  22.840  42.289  1.00  0.00     0.305 C 
ENDROOT
BRANCH   4   7
HETATM    7  O1  UNL     1      77.894  24.194  39.069  1.00  0.00    -0.327 OA
BRANCH   7   8
HETATM    8  C5  UNL     1      76.564  24.380  38.761  1.00  0.00     0.294 C 
HETATM    9  O2  UNL     1      75.978  23.489  37.884  1.00  0.00    -0.348 OA
HETATM   10  C6  UNL     1      74.789  23.624  38.555  1.00  0.00     0.181 C 
HETATM   11  C8  UNL     1      75.597  23.889  39.828  1.00  0.00     0.204 C 
BRANCH  10  12
HETATM   12  C7  UNL     1      73.925  22.384  38.690  1.00  0.00     0.199 C 
BRANCH  12  13
HETATM   13  O3  UNL     1      74.141  21.487  37.674  1.00  0.00    -0.398 OA
ATOM     14  H3  UNL     1      73.330  21.148  37.314  1.00  0.00     0.209 HD
ENDBRANCH  12  13
ENDBRANCH  10  12
BRANCH  11  15
HETATM   15  O4  UNL     1      74.993  24.894  40.558  1.00  0.00    -0.388 OA
ATOM     16  H4  UNL     1      75.080  24.802  41.499  1.00  0.00     0.210 HD
ENDBRANCH  11  15
ENDBRANCH   7   8
ENDBRANCH   4   7
BRANCH   3  17
HETATM   17  N2  UNL     1      79.749  26.051  39.958  1.00  0.00    -0.070 N 
ATOM     18  H23 UNL     1      79.371  26.860  40.450  1.00  0.00     0.274 HD
ATOM     19  H22 UNL     1      80.740  26.290  39.962  1.00  0.00     0.274 HD
ATOM     20  H21 UNL     1      79.394  26.018  39.002  1.00  0.00     0.274 HD
ENDBRANCH   3  17
BRANCH   6  21
HETATM   21  O6  UNL     1      79.288  21.864  42.614  1.00  0.00    -0.259 OA
BRANCH  21  22
HETATM   22  C10 UNL     1      79.277  21.184  43.888  1.00  0.00     0.437 C 
HETATM   23  O7  UNL     1      78.082  20.948  44.231  1.00  0.00    -0.221 OA
HETATM   24  N3  UNL     1      80.429  20.892  44.523  1.00  0.00    -0.385 NA
BRANCH  24  25
HETATM   25  C11 UNL     1      81.600  20.593  45.171  1.00  0.00     0.169 C 
HETATM   26  C12 UNL     1      82.587  19.755  44.314  1.00  0.00     0.039 C 
HETATM   27  C13 UNL     1      82.002  18.480  43.840  1.00  0.00     0.003 C 
HETATM   28  C14 UNL     1      80.886  17.938  44.642  1.00  0.00     0.000 C 
HETATM   29  C15 UNL     1      80.732  18.441  46.017  1.00  0.00     0.003 C 
HETATM   30  C16 UNL     1      81.418  19.686  46.408  1.00  0.00     0.039 C 
ENDBRANCH  24  25
ENDBRANCH  21  22
ENDBRANCH   6  21
BRANCH   1  31
HETATM   31  N1  UNL     1      77.455  24.818  43.455  1.00  0.00    -0.070 N 
ATOM     32  H13 UNL     1      77.703  25.533  44.139  1.00  0.00     0.274 HD
ATOM     33  H12 UNL     1      77.048  25.420  42.738  1.00  0.00     0.274 HD
ATOM     34  H11 UNL     1      76.766  24.166  43.830  1.00  0.00     0.274 HD
ENDBRANCH   1  31
TORSDOF 10
ENDMDL
MODEL 3
REMARK VINA RESULT: -7.487386919      1.004      1.516
REMARK  10 active torsions:
REMARK  status: ('A' for Active; 'I' for Inactive)
REMARK    1  A    between atoms: N1_1  and  C1_5 
REMARK    2  A    between atoms: C3_7  and  N2_8 
REMARK    3  A    between atoms: C4_12  and  O1_13 
REMARK    4  A    between atoms: O1_13  and  C5_14 
REMARK    5  A    between atoms: C6_16  and  C7_17 
REMARK    6  A    between atoms: C7_17  and  O3_18 
REMARK    7  A    between atoms: C8_20  and  O4_21 
REMARK    8  A    between atoms: C9_24  and  O6_25 
REMARK    9  A    between atoms: O6_25  and  C10_26 
REMARK       I    between atoms: C10_26  and  N3_28 
REMARK   10  A    between atoms: N3_28  and  C11_29 
ROOT
HETATM    1  C1  UNL     1      78.700  24.182  40.077  1.00  0.00     0.241 C 
HETATM    2  C2  UNL     1      77.567  23.959  39.113  1.00  0.00     0.075 C 
HETATM    3  C3  UNL     1      76.208  24.048  39.758  1.00  0.00     0.240 C 
HETATM    4  C4  UNL     1      76.403  24.917  41.005  1.00  0.00     0.296 C 
HETATM    5  O5  UNL     1      77.107  24.154  41.886  1.00  0.00    -0.327 OA
HETATM    6  C9  UNL     1      78.427  23.867  41.491  1.00  0.00     0.305 C 
ENDROOT
BRANCH   4   7
HETATM    7  O1  UNL     1      75.196  25.261  41.575  1.00  0.00    -0.327 OA
BRANCH   7   8
HETATM    8  C5  UNL     1      75.323  26.074  42.679  1.00  0.00     0.294 C 
HETATM    9  O2  UNL     1      76.018  27.257  42.528  1.00  0.00    -0.348 OA
HETATM   10  C6  UNL     1      75.197  27.849  43.453  1.00  0.00     0.181 C 
HETATM   11  C8  UNL     1      74.086  26.901  42.996  1.00  0.00     0.204 C 
BRANCH  10  12
HETATM   12  C7  UNL     1      74.824  29.301  43.220  1.00  0.00     0.199 C 
BRANCH  12  13
HETATM   13  O3  UNL     1      75.736  29.952  42.428  1.00  0.00    -0.398 OA
ATOM     14  H3  UNL     1      75.424  30.802  42.143  1.00  0.00     0.209 HD
ENDBRANCH  12  13
ENDBRANCH  10  12
BRANCH  11  15
HETATM   15  O4  UNL     1      73.372  26.463  44.094  1.00  0.00    -0.388 OA
ATOM     16  H4  UNL     1      73.019  25.585  44.009  1.00  0.00     0.210 HD
ENDBRANCH  11  15
ENDBRANCH   7   8
ENDBRANCH   4   7
BRANCH   3  17
HETATM   17  N2  UNL     1      75.175  24.550  38.896  1.00  0.00    -0.070 N 
ATOM     18  H23 UNL     1      75.582  25.072  38.121  1.00  0.00     0.274 HD
ATOM     19  H22 UNL     1      74.738  23.785  38.382  1.00  0.00     0.274 HD
ATOM     20  H21 UNL     1      74.467  25.111  39.370  1.00  0.00     0.274 HD
ENDBRANCH   3  17
BRANCH   6  21
HETATM   21  O6  UNL     1      78.709  22.509  41.749  1.00  0.00    -0.259 OA
BRANCH  21  22
HETATM   22  C10 UNL     1      79.500  22.104  42.887  1.00  0.00     0.437 C 
HETATM   23  O7  UNL     1      80.340  23.009  43.162  1.00  0.00    -0.221 OA
HETATM   24  N3  UNL     1      79.284  20.918  43.490  1.00  0.00    -0.385 NA
BRANCH  24  25
HETATM   25  C11 UNL     1      79.065  19.713  44.106  1.00  0.00     0.169 C 
HETATM   26  C12 UNL     1      79.290  19.751  45.642  1.00  0.00     0.039 C 
HETATM   27  C13 UNL     1      80.650  20.202  46.015  1.00  0.00     0.003 C 
HETATM   28  C14 UNL     1      81.702  20.009  44.997  1.00  0.00     0.000 C 
HETATM   29  C15 UNL     1      81.435  19.042  43.919  1.00  0.00     0.003 C 
HETATM   30  C16 UNL     1      80.048  18.602  43.677  1.00  0.00     0.039 C 
ENDBRANCH  24  25
ENDBRANCH  21  22
ENDBRANCH   6  21
BRANCH   1  31
HETATM   31  N1  UNL     1      79.311  25.506  39.891  1.00  0.00    -0.070 N 
ATOM     32  H13 UNL     1      78.741  26.242  40.308  1.00  0.00     0.274 HD
ATOM     33  H12 UNL     1      80.150  25.614  40.462  1.00  0.00     0.274 HD
ATOM     34  H11 UNL     1      79.502  25.694  38.907  1.00  0.00     0.274 HD
ENDBRANCH   1  31
TORSDOF 10
ENDMDL
MODEL 4
REMARK VINA RESULT: -7.404184425      3.032      7.487
REMARK  10 active torsions:
REMARK  status: ('A' for Active; 'I' for Inactive)
REMARK    1  A    between atoms: N1_1  and  C1_5 
REMARK    2  A    between atoms: C3_7  and  N2_8 
REMARK    3  A    between atoms: C4_12  and  O1_13 
REMARK    4  A    between atoms: O1_13  and  C5_14 
REMARK    5  A    between atoms: C6_16  and  C7_17 
REMARK    6  A    between atoms: C7_17  and  O3_18 
REMARK    7  A    between atoms: C8_20  and  O4_21 
REMARK    8  A    between atoms: C9_24  and  O6_25 
REMARK    9  A    between atoms: O6_25  and  C10_26 
REMARK       I    between atoms: C10_26  and  N3_28 
REMARK   10  A    between atoms: N3_28  and  C11_29 
ROOT
HETATM    1  C1  UNL     1      75.700  24.975  39.476  1.00  0.00     0.241 C 
HETATM    2  C2  UNL     1      76.590  26.150  39.178  1.00  0.00     0.075 C 
HETATM    3  C3  UNL     1      77.462  26.548  40.340  1.00  0.00     0.240 C 
HETATM    4  C4  UNL     1      77.599  25.288  41.200  1.00  0.00     0.296 C 
HETATM    5  O5  UNL     1      76.382  25.100  41.784  1.00  0.00    -0.327 OA
HETATM    6  C9  UNL     1      75.348  24.764  40.891  1.00  0.00     0.305 C 
ENDROOT
BRANCH   4   7
HETATM    7  O1  UNL     1      78.548  25.450  42.186  1.00  0.00    -0.327 OA
BRANCH   7   8
HETATM    8  C5  UNL     1      79.554  24.510  42.138  1.00  0.00     0.294 C 
HETATM    9  O2  UNL     1      79.960  23.945  43.331  1.00  0.00    -0.348 OA
HETATM   10  C6  UNL     1      80.222  22.769  42.675  1.00  0.00     0.181 C 
HETATM   11  C8  UNL     1      79.102  23.127  41.695  1.00  0.00     0.204 C 
BRANCH  10  12
HETATM   12  C7  UNL     1      79.924  21.480  43.418  1.00  0.00     0.199 C 
BRANCH  12  13
HETATM   13  O3  UNL     1      80.728  21.317  44.518  1.00  0.00    -0.398 OA
ATOM     14  H3  UNL     1      80.324  20.770  45.181  1.00  0.00     0.209 HD
ENDBRANCH  12  13
ENDBRANCH  10  12
BRANCH  11  15
HETATM   15  O4  UNL     1      79.483  22.785  40.413  1.00  0.00    -0.388 OA
ATOM     16  H4  UNL     1      79.371  21.865  40.202  1.00  0.00     0.210 HD
ENDBRANCH  11  15
ENDBRANCH   7   8
ENDBRANCH   4   7
BRANCH   3  17
HETATM   17  N2  UNL     1      78.735  27.097  39.965  1.00  0.00    -0.070 N 
ATOM     18  H23 UNL     1      79.223  27.455  40.786  1.00  0.00     0.274 HD
ATOM     19  H22 UNL     1      79.376  26.352  39.692  1.00  0.00     0.274 HD
ATOM     20  H21 UNL     1      78.688  27.811  39.239  1.00  0.00     0.274 HD
ENDBRANCH   3  17
BRANCH   6  21
HETATM   21  O6  UNL     1      74.189  25.498  41.218  1.00  0.00    -0.259 OA
BRANCH  21  22
HETATM   22  C10 UNL     1      72.903  24.857  41.362  1.00  0.00     0.437 C 
HETATM   23  O7  UNL     1      72.823  23.883  40.558  1.00  0.00    -0.221 OA
HETATM   24  N3  UNL     1      72.003  25.312  42.256  1.00  0.00    -0.385 NA
BRANCH  24  25
HETATM   25  C11 UNL     1      71.085  25.772  43.165  1.00  0.00     0.169 C 
HETATM   26  C12 UNL     1      70.246  24.644  43.824  1.00  0.00     0.039 C 
HETATM   27  C13 UNL     1      69.518  23.813  42.838  1.00  0.00     0.003 C 
HETATM   28  C14 UNL     1      69.230  24.451  41.537  1.00  0.00     0.000 C 
HETATM   29  C15 UNL     1      69.292  25.921  41.473  1.00  0.00     0.003 C 
HETATM   30  C16 UNL     1      69.981  26.658  42.548  1.00  0.00     0.039 C 
ENDBRANCH  24  25
ENDBRANCH  21  22
ENDBRANCH   6  21
BRANCH   1  31
HETATM   31  N1  UNL     1      76.184  23.753  38.816  1.00  0.00    -0.070 N 
ATOM     32  H13 UNL     1      75.433  23.074  38.690  1.00  0.00     0.274 HD
ATOM     33  H12 UNL     1      76.410  23.922  37.836  1.00  0.00     0.274 HD
ATOM     34  H11 UNL     1      76.975  23.347  39.317  1.00  0.00     0.274 HD
ENDBRANCH   1  31
TORSDOF 10
ENDMDL
MODEL 5
REMARK VINA RESULT: -7.381833520      3.573      7.455
REMARK  10 active torsions:
REMARK  status: ('A' for Active; 'I' for Inactive)
REMARK    1  A    between atoms: N1_1  and  C1_5 
REMARK    2  A    between atoms: C3_7  and  N2_8 
REMARK    3  A    between atoms: C4_12  and  O1_13 
REMARK    4  A    between atoms: O1_13  and  C5_14 
REMARK    5  A    between atoms: C6_16  and  C7_17 
REMARK    6  A    between atoms: C7_17  and  O3_18 
REMARK    7  A    between atoms: C8_20  and  O4_21 
REMARK    8  A    between atoms: C9_24  and  O6_25 
REMARK    9  A    between atoms: O6_25  and  C10_26 
REMARK       I    between atoms: C10_26  and  N3_28 
REMARK   10  A    between atoms: N3_28  and  C11_29 
ROOT
HETATM    1  C1  UNL     1      75.993  24.905  39.151  1.00  0.00     0.241 C 
HETATM    2  C2  UNL     1      76.618  26.273  39.159  1.00  0.00     0.075 C 
HETATM    3  C3  UNL     1      77.312  26.604  40.455  1.00  0.00     0.240 C 
HETATM    4  C4  UNL     1      77.673  25.254  41.082  1.00  0.00     0.296 C 
HETATM    5  O5  UNL     1      76.496  24.708  41.499  1.00  0.00    -0.327 OA
HETATM    6  C9  UNL     1      75.615  24.350  40.462  1.00  0.00     0.305 C 
ENDROOT
BRANCH   4   7
HETATM    7  O1  UNL     1      78.505  25.408  42.170  1.00  0.00    -0.327 OA
BRANCH   7   8
HETATM    8  C5  UNL     1      79.545  24.506  42.198  1.00  0.00     0.294 C 
HETATM    9  O2  UNL     1      79.869  23.938  43.414  1.00  0.00    -0.348 OA
HETATM   10  C6  UNL     1      80.229  22.783  42.770  1.00  0.00     0.181 C 
HETATM   11  C8  UNL     1      79.183  23.114  41.701  1.00  0.00     0.204 C 
BRANCH  10  12
HETATM   12  C7  UNL     1      79.917  21.473  43.470  1.00  0.00     0.199 C 
BRANCH  12  13
HETATM   13  O3  UNL     1      80.673  21.295  44.601  1.00  0.00    -0.398 OA
ATOM     14  H3  UNL     1      80.568  20.427  44.971  1.00  0.00     0.209 HD
ENDBRANCH  12  13
ENDBRANCH  10  12
BRANCH  11  15
HETATM   15  O4  UNL     1      79.685  22.804  40.453  1.00  0.00    -0.388 OA
ATOM     16  H4  UNL     1      79.034  22.788  39.761  1.00  0.00     0.210 HD
ENDBRANCH  11  15
ENDBRANCH   7   8
ENDBRANCH   4   7
BRANCH   3  17
HETATM   17  N2  UNL     1      78.452  27.465  40.313  1.00  0.00    -0.070 N 
ATOM     18  H23 UNL     1      78.275  28.174  39.603  1.00  0.00     0.274 HD
ATOM     19  H22 UNL     1      78.551  28.062  41.135  1.00  0.00     0.274 HD
ATOM     20  H21 UNL     1      79.327  26.977  40.120  1.00  0.00     0.274 HD
ENDBRANCH   3  17
BRANCH   6  21
HETATM   21  O6  UNL     1      74.305  24.751  40.800  1.00  0.00    -0.259 OA
BRANCH  21  22
HETATM   22  C10 UNL     1      73.151  23.987  40.391  1.00  0.00     0.437 C 
HETATM   23  O7  UNL     1      73.526  22.974  39.732  1.00  0.00    -0.221 OA
HETATM   24  N3  UNL     1      71.907  24.386  40.723  1.00  0.00    -0.385 NA
BRANCH  24  25
HETATM   25  C11 UNL     1      70.641  24.789  41.059  1.00  0.00     0.169 C 
HETATM   26  C12 UNL     1      69.752  23.644  41.615  1.00  0.00     0.039 C 
HETATM   27  C13 UNL     1      69.623  22.506  40.676  1.00  0.00     0.003 C 
HETATM   28  C14 UNL     1      69.834  22.814  39.247  1.00  0.00     0.000 C 
HETATM   29  C15 UNL     1      69.731  24.224  38.835  1.00  0.00     0.003 C 
HETATM   30  C16 UNL     1      69.799  25.280  39.861  1.00  0.00     0.039 C 
ENDBRANCH  24  25
ENDBRANCH  21  22
ENDBRANCH   6  21
BRANCH   1  31
HETATM   31  N1  UNL     1      76.772  23.964  38.332  1.00  0.00    -0.070 N 
ATOM     32  H13 UNL     1      76.935  23.086  38.825  1.00  0.00     0.274 HD
ATOM     33  H12 UNL     1      76.223  23.606  37.550  1.00  0.00     0.274 HD
ATOM     34  H11 UNL     1      77.646  24.382  38.013  1.00  0.00     0.274 HD
ENDBRANCH   1  31
TORSDOF 10
ENDMDL
