MODEL 1
REMARK VINA RESULT: -8.557439996      0.000      0.000
REMARK  10 active torsions:
REMARK  status: ('A' for Active; 'I' for Inactive)
REMARK    1  A    between atoms: O1_1  and  C1_3 
REMARK    2  A    between atoms: C3_5  and  O2_6 
REMARK    3  A    between atoms: O2_6  and  C4_7 
REMARK    4  A    between atoms: C10_14  and  C11_15 
REMARK    5  A    between atoms: C11_15  and  O4_16 
REMARK    6  A    between atoms: O4_16  and  C12_17 
REMARK    7  A    between atoms: C14_20  and  O6_21 
REMARK    8  A    between atoms: C15_23  and  O7_24 
REMARK    9  A    between atoms: C16_26  and  O8_27 
REMARK   10  A    between atoms: C17_29  and  O9_30 
ROOT
HETATM    1  C1  UNL     1      79.090  25.462  40.732  1.00  0.00     0.154 C 
HETATM    2  C2  UNL     1      78.132  24.834  39.750  1.00  0.00     0.095 C 
HETATM    3  C3  UNL     1      77.198  23.856  40.391  1.00  0.00     0.263 C 
HETATM    4  O3  UNL     1      77.508  23.582  41.712  1.00  0.00    -0.351 OA
HETATM    5  C10 UNL     1      78.850  23.302  41.909  1.00  0.00     0.179 C 
HETATM    6  C17 UNL     1      79.781  24.395  41.508  1.00  0.00     0.178 C 
ENDROOT
BRANCH   5   7
HETATM    7  C11 UNL     1      79.128  22.836  43.322  1.00  0.00     0.205 C 
BRANCH   7   8
HETATM    8  O4  UNL     1      79.657  21.576  43.375  1.00  0.00    -0.356 OA
BRANCH   8   9
HETATM    9  C12 UNL     1      79.749  20.993  44.595  1.00  0.00     0.290 C 
HETATM   10  O5  UNL     1      78.801  19.981  44.816  1.00  0.00    -0.356 OA
HETATM   11  C13 UNL     1      78.901  19.154  43.671  1.00  0.00     0.205 C 
HETATM   12  C14 UNL     1      80.346  18.803  43.454  1.00  0.00     0.173 C 
HETATM   13  C15 UNL     1      81.163  19.021  44.730  1.00  0.00     0.182 C 
HETATM   14  C16 UNL     1      81.096  20.512  45.001  1.00  0.00     0.204 C 
BRANCH  12  15
HETATM   15  O6  UNL     1      80.454  17.495  43.027  1.00  0.00    -0.391 OA
ATOM     16  H6  UNL     1      80.907  17.463  42.192  1.00  0.00     0.210 HD
ENDBRANCH  12  15
BRANCH  13  17
HETATM   17  O7  UNL     1      82.463  18.654  44.435  1.00  0.00    -0.390 OA
ATOM     18  H7  UNL     1      82.718  18.012  45.088  1.00  0.00     0.210 HD
ENDBRANCH  13  17
BRANCH  14  19
HETATM   19  O8  UNL     1      82.124  21.056  44.195  1.00  0.00    -0.388 OA
ATOM     20  H8  UNL     1      82.990  20.846  44.526  1.00  0.00     0.210 HD
ENDBRANCH  14  19
ENDBRANCH   8   9
ENDBRANCH   7   8
ENDBRANCH   5   7
BRANCH   6  21
HETATM   21  O9  UNL     1      80.865  23.901  40.787  1.00  0.00    -0.390 OA
ATOM     22  H9  UNL     1      80.895  22.954  40.848  1.00  0.00     0.210 HD
ENDBRANCH   6  21
BRANCH   3  23
HETATM   23  O2  UNL     1      75.930  24.483  40.421  1.00  0.00    -0.356 OA
BRANCH  23  24
HETATM   24  C4  UNL     1      74.931  23.663  39.950  1.00  0.00     0.124 C 
HETATM   25  C5  UNL     1      74.970  23.489  38.448  1.00  0.00     0.032 C 
HETATM   26  C6  UNL     1      74.273  22.185  38.123  1.00  0.00     0.002 C 
HETATM   27  C7  UNL     1      73.048  22.056  39.005  1.00  0.00     0.000 C 
HETATM   28  C8  UNL     1      72.570  23.445  39.379  1.00  0.00     0.002 C 
HETATM   29  C9  UNL     1      73.547  24.102  40.336  1.00  0.00     0.032 C 
ENDBRANCH  23  24
ENDBRANCH   3  23
BRANCH   1  30
HETATM   30  O1  UNL     1      80.052  26.224  40.082  1.00  0.00    -0.393 OA
ATOM     31  H1  UNL     1      80.845  25.722  39.928  1.00  0.00     0.210 HD
ENDBRANCH   1  30
TORSDOF 10
ENDMDL
MODEL 2
REMARK VINA RESULT: -8.031641331      5.276      9.319
REMARK  10 active torsions:
REMARK  status: ('A' for Active; 'I' for Inactive)
REMARK    1  A    between atoms: O1_1  and  C1_3 
REMARK    2  A    between atoms: C3_5  and  O2_6 
REMARK    3  A    between atoms: O2_6  and  C4_7 
REMARK    4  A    between atoms: C10_14  and  C11_15 
REMARK    5  A    between atoms: C11_15  and  O4_16 
REMARK    6  A    between atoms: O4_16  and  C12_17 
REMARK    7  A    between atoms: C14_20  and  O6_21 
REMARK    8  A    between atoms: C15_23  and  O7_24 
REMARK    9  A    between atoms: C16_26  and  O8_27 
REMARK   10  A    between atoms: C17_29  and  O9_30 
ROOT
HETATM    1  C1  UNL     1      71.750  22.110  39.596  1.00  0.00     0.154 C 
HETATM    2  C2  UNL     1      72.858  22.827  38.865  1.00  0.00     0.095 C 
HETATM    3  C3  UNL     1      73.395  23.998  39.625  1.00  0.00     0.263 C 
HETATM    4  O3  UNL     1      72.659  24.306  40.757  1.00  0.00    -0.351 OA
HETATM    5  C10 UNL     1      71.295  24.356  40.521  1.00  0.00     0.179 C 
HETATM    6  C17 UNL     1      70.705  23.089  40.004  1.00  0.00     0.178 C 
ENDROOT
BRANCH   5   7
HETATM    7  C11 UNL     1      70.533  24.864  41.727  1.00  0.00     0.205 C 
BRANCH   7   8
HETATM    8  O4  UNL     1      71.040  26.034  42.224  1.00  0.00    -0.356 OA
BRANCH   8   9
HETATM    9  C12 UNL     1      71.001  26.204  43.568  1.00  0.00     0.290 C 
HETATM   10  O5  UNL     1      72.257  26.118  44.189  1.00  0.00    -0.356 OA
HETATM   11  C13 UNL     1      73.082  26.983  43.429  1.00  0.00     0.205 C 
HETATM   12  C14 UNL     1      72.392  28.312  43.297  1.00  0.00     0.173 C 
HETATM   13  C15 UNL     1      71.308  28.479  44.364  1.00  0.00     0.182 C 
HETATM   14  C16 UNL     1      70.280  27.405  44.064  1.00  0.00     0.204 C 
BRANCH  12  15
HETATM   15  O6  UNL     1      73.318  29.333  43.380  1.00  0.00    -0.391 OA
ATOM     16  H6  UNL     1      73.923  29.163  44.093  1.00  0.00     0.210 HD
ENDBRANCH  12  15
BRANCH  13  17
HETATM   17  O7  UNL     1      70.753  29.730  44.171  1.00  0.00    -0.390 OA
ATOM     18  H7  UNL     1      71.359  30.357  44.548  1.00  0.00     0.210 HD
ENDBRANCH  13  17
BRANCH  14  19
HETATM   19  O8  UNL     1      69.455  27.984  43.071  1.00  0.00    -0.388 OA
ATOM     20  H8  UNL     1      68.829  28.598  43.436  1.00  0.00     0.210 HD
ENDBRANCH  14  19
ENDBRANCH   8   9
ENDBRANCH   7   8
ENDBRANCH   5   7
BRANCH   6  21
HETATM   21  O9  UNL     1      69.832  23.330  38.945  1.00  0.00    -0.390 OA
ATOM     22  H9  UNL     1      69.249  24.048  39.159  1.00  0.00     0.210 HD
ENDBRANCH   6  21
BRANCH   3  23
HETATM   23  O2  UNL     1      74.672  23.610  40.097  1.00  0.00    -0.356 OA
BRANCH  23  24
HETATM   24  C4  UNL     1      75.527  24.679  40.226  1.00  0.00     0.124 C 
HETATM   25  C5  UNL     1      76.265  25.002  38.946  1.00  0.00     0.032 C 
HETATM   26  C6  UNL     1      76.680  26.457  39.015  1.00  0.00     0.002 C 
HETATM   27  C7  UNL     1      77.157  26.760  40.421  1.00  0.00     0.000 C 
HETATM   28  C8  UNL     1      77.681  25.481  41.042  1.00  0.00     0.002 C 
HETATM   29  C9  UNL     1      76.541  24.521  41.325  1.00  0.00     0.032 C 
ENDBRANCH  23  24
ENDBRANCH   3  23
BRANCH   1  30
HETATM   30  O1  UNL     1      71.156  21.145  38.793  1.00  0.00    -0.393 OA
ATOM     31  H1  UNL     1      70.625  20.546  39.306  1.00  0.00     0.210 HD
ENDBRANCH   1  30
TORSDOF 10
ENDMDL
MODEL 3
REMARK VINA RESULT: -7.994939187      3.160      5.796
REMARK  10 active torsions:
REMARK  status: ('A' for Active; 'I' for Inactive)
REMARK    1  A    between atoms: O1_1  and  C1_3 
REMARK    2  A    between atoms: C3_5  and  O2_6 
REMARK    3  A    between atoms: O2_6  and  C4_7 
REMARK    4  A    between atoms: C10_14  and  C11_15 
REMARK    5  A    between atoms: C11_15  and  O4_16 
REMARK    6  A    between atoms: O4_16  and  C12_17 
REMARK    7  A    between atoms: C14_20  and  O6_21 
REMARK    8  A    between atoms: C15_23  and  O7_24 
REMARK    9  A    between atoms: C16_26  and  O8_27 
REMARK   10  A    between atoms: C17_29  and  O9_30 
ROOT
HETATM    1  C1  UNL     1      74.222  22.570  38.224  1.00  0.00     0.154 C 
HETATM    2  C2  UNL     1      73.089  22.381  39.203  1.00  0.00     0.095 C 
HETATM    3  C3  UNL     1      72.721  23.642  39.918  1.00  0.00     0.263 C 
HETATM    4  O3  UNL     1      73.598  24.687  39.682  1.00  0.00    -0.351 OA
HETATM    5  C10 UNL     1      74.928  24.322  39.818  1.00  0.00     0.179 C 
HETATM    6  C17 UNL     1      75.370  23.227  38.908  1.00  0.00     0.178 C 
ENDROOT
BRANCH   5   7
HETATM    7  C11 UNL     1      75.852  25.517  39.728  1.00  0.00     0.205 C 
BRANCH   7   8
HETATM    8  O4  UNL     1      77.150  25.212  40.035  1.00  0.00    -0.356 OA
BRANCH   8   9
HETATM    9  C12 UNL     1      77.762  25.977  40.971  1.00  0.00     0.290 C 
HETATM   10  O5  UNL     1      77.543  25.545  42.290  1.00  0.00    -0.356 OA
HETATM   11  C13 UNL     1      77.842  24.162  42.258  1.00  0.00     0.205 C 
HETATM   12  C14 UNL     1      79.187  23.975  41.613  1.00  0.00     0.173 C 
HETATM   13  C15 UNL     1      79.993  25.276  41.631  1.00  0.00     0.182 C 
HETATM   14  C16 UNL     1      79.209  26.246  40.767  1.00  0.00     0.204 C 
BRANCH  12  15
HETATM   15  O6  UNL     1      79.879  22.966  42.253  1.00  0.00    -0.391 OA
ATOM     16  H6  UNL     1      79.674  22.129  41.853  1.00  0.00     0.210 HD
ENDBRANCH  12  15
BRANCH  13  17
HETATM   17  O7  UNL     1      81.210  24.995  41.038  1.00  0.00    -0.390 OA
ATOM     18  H7  UNL     1      81.593  25.831  40.797  1.00  0.00     0.210 HD
ENDBRANCH  13  17
BRANCH  14  19
HETATM   19  O8  UNL     1      79.628  25.951  39.448  1.00  0.00    -0.388 OA
ATOM     20  H8  UNL     1      80.136  26.657  39.066  1.00  0.00     0.210 HD
ENDBRANCH  14  19
ENDBRANCH   8   9
ENDBRANCH   7   8
ENDBRANCH   5   7
BRANCH   6  21
HETATM   21  O9  UNL     1      76.132  22.280  39.586  1.00  0.00    -0.390 OA
ATOM     22  H9  UNL     1      76.306  21.535  39.024  1.00  0.00     0.210 HD
ENDBRANCH   6  21
BRANCH   3  23
HETATM   23  O2  UNL     1      71.482  24.057  39.373  1.00  0.00    -0.356 OA
BRANCH  23  24
HETATM   24  C4  UNL     1      70.497  24.149  40.329  1.00  0.00     0.124 C 
HETATM   25  C5  UNL     1      71.006  24.685  41.649  1.00  0.00     0.032 C 
HETATM   26  C6  UNL     1      69.824  25.284  42.382  1.00  0.00     0.002 C 
HETATM   27  C7  UNL     1      68.623  24.381  42.188  1.00  0.00     0.000 C 
HETATM   28  C8  UNL     1      69.113  22.967  41.952  1.00  0.00     0.002 C 
HETATM   29  C9  UNL     1      69.779  22.856  40.594  1.00  0.00     0.032 C 
ENDBRANCH  23  24
ENDBRANCH   3  23
BRANCH   1  30
HETATM   30  O1  UNL     1      74.656  21.354  37.712  1.00  0.00    -0.393 OA
ATOM     31  H1  UNL     1      74.359  21.229  36.818  1.00  0.00     0.210 HD
ENDBRANCH   1  30
TORSDOF 10
ENDMDL
MODEL 4
REMARK VINA RESULT: -7.904710495      1.258      1.721
REMARK  10 active torsions:
REMARK  status: ('A' for Active; 'I' for Inactive)
REMARK    1  A    between atoms: O1_1  and  C1_3 
REMARK    2  A    between atoms: C3_5  and  O2_6 
REMARK    3  A    between atoms: O2_6  and  C4_7 
REMARK    4  A    between atoms: C10_14  and  C11_15 
REMARK    5  A    between atoms: C11_15  and  O4_16 
REMARK    6  A    between atoms: O4_16  and  C12_17 
REMARK    7  A    between atoms: C14_20  and  O6_21 
REMARK    8  A    between atoms: C15_23  and  O7_24 
REMARK    9  A    between atoms: C16_26  and  O8_27 
REMARK   10  A    between atoms: C17_29  and  O9_30 
ROOT
HETATM    1  C1  UNL     1      78.849  25.530  40.592  1.00  0.00     0.154 C 
HETATM    2  C2  UNL     1      77.930  24.777  39.662  1.00  0.00     0.095 C 
HETATM    3  C3  UNL     1      76.971  23.885  40.386  1.00  0.00     0.263 C 
HETATM    4  O3  UNL     1      77.228  23.783  41.743  1.00  0.00    -0.351 OA
HETATM    5  C10 UNL     1      78.562  23.537  42.026  1.00  0.00     0.179 C 
HETATM    6  C17 UNL     1      79.508  24.574  41.525  1.00  0.00     0.178 C 
ENDROOT
BRANCH   5   7
HETATM    7  C11 UNL     1      78.783  23.258  43.497  1.00  0.00     0.205 C 
BRANCH   7   8
HETATM    8  O4  UNL     1      78.478  21.971  43.848  1.00  0.00    -0.356 OA
BRANCH   8   9
HETATM    9  C12 UNL     1      79.514  21.135  44.099  1.00  0.00     0.290 C 
HETATM   10  O5  UNL     1      79.527  20.621  45.406  1.00  0.00    -0.356 OA
HETATM   11  C13 UNL     1      78.213  20.134  45.602  1.00  0.00     0.205 C 
HETATM   12  C14 UNL     1      77.849  19.247  44.444  1.00  0.00     0.173 C 
HETATM   13  C15 UNL     1      79.100  18.774  43.700  1.00  0.00     0.182 C 
HETATM   14  C16 UNL     1      79.727  20.030  43.126  1.00  0.00     0.204 C 
BRANCH  12  15
HETATM   15  O6  UNL     1      77.112  18.168  44.891  1.00  0.00    -0.391 OA
ATOM     16  H6  UNL     1      77.256  17.421  44.322  1.00  0.00     0.210 HD
ENDBRANCH  12  15
BRANCH  13  17
HETATM   17  O7  UNL     1      78.664  17.955  42.675  1.00  0.00    -0.390 OA
ATOM     18  H7  UNL     1      79.117  18.239  41.889  1.00  0.00     0.210 HD
ENDBRANCH  13  17
BRANCH  14  19
HETATM   19  O8  UNL     1      79.029  20.243  41.914  1.00  0.00    -0.388 OA
ATOM     20  H8  UNL     1      79.115  19.509  41.316  1.00  0.00     0.210 HD
ENDBRANCH  14  19
ENDBRANCH   8   9
ENDBRANCH   7   8
ENDBRANCH   5   7
BRANCH   6  21
HETATM   21  O9  UNL     1      80.619  23.997  40.917  1.00  0.00    -0.390 OA
ATOM     22  H9  UNL     1      81.376  24.063  41.486  1.00  0.00     0.210 HD
ENDBRANCH   6  21
BRANCH   3  23
HETATM   23  O2  UNL     1      75.703  24.505  40.285  1.00  0.00    -0.356 OA
BRANCH  23  24
HETATM   24  C4  UNL     1      74.723  23.626  39.885  1.00  0.00     0.124 C 
HETATM   25  C5  UNL     1      74.739  23.365  38.396  1.00  0.00     0.032 C 
HETATM   26  C6  UNL     1      74.078  22.022  38.163  1.00  0.00     0.002 C 
HETATM   27  C7  UNL     1      72.876  21.907  39.078  1.00  0.00     0.000 C 
HETATM   28  C8  UNL     1      72.360  23.299  39.379  1.00  0.00     0.002 C 
HETATM   29  C9  UNL     1      73.333  24.043  40.274  1.00  0.00     0.032 C 
ENDBRANCH  23  24
ENDBRANCH   3  23
BRANCH   1  30
HETATM   30  O1  UNL     1      79.837  26.207  39.889  1.00  0.00    -0.393 OA
ATOM     31  H1  UNL     1      79.884  27.119  40.150  1.00  0.00     0.210 HD
ENDBRANCH   1  30
TORSDOF 10
ENDMDL
MODEL 5
REMARK VINA RESULT: -7.847083456      5.165      8.411
REMARK  10 active torsions:
REMARK  status: ('A' for Active; 'I' for Inactive)
REMARK    1  A    between atoms: O1_1  and  C1_3 
REMARK    2  A    between atoms: C3_5  and  O2_6 
REMARK    3  A    between atoms: O2_6  and  C4_7 
REMARK    4  A    between atoms: C10_14  and  C11_15 
REMARK    5  A    between atoms: C11_15  and  O4_16 
REMARK    6  A    between atoms: O4_16  and  C12_17 
REMARK    7  A    between atoms: C14_20  and  O6_21 
REMARK    8  A    between atoms: C15_23  and  O7_24 
REMARK    9  A    between atoms: C16_26  and  O8_27 
REMARK   10  A    between atoms: C17_29  and  O9_30 
ROOT
HETATM    1  C1  UNL     1      76.529  26.441  41.661  1.00  0.00     0.154 C 
HETATM    2  C2  UNL     1      76.176  25.018  41.305  1.00  0.00     0.095 C 
HETATM    3  C3  UNL     1      74.699  24.785  41.237  1.00  0.00     0.263 C 
HETATM    4  O3  UNL     1      73.949  25.858  41.686  1.00  0.00    -0.351 OA
HETATM    5  C10 UNL     1      74.391  26.361  42.898  1.00  0.00     0.179 C 
HETATM    6  C17 UNL     1      75.801  26.843  42.896  1.00  0.00     0.178 C 
ENDROOT
BRANCH   5   7
HETATM    7  C11 UNL     1      73.452  27.414  43.448  1.00  0.00     0.205 C 
BRANCH   7   8
HETATM    8  O4  UNL     1      72.376  26.880  44.103  1.00  0.00    -0.356 OA
BRANCH   8   9
HETATM    9  C12 UNL     1      71.346  26.435  43.343  1.00  0.00     0.290 C 
HETATM   10  O5  UNL     1      70.860  25.174  43.725  1.00  0.00    -0.356 OA
HETATM   11  C13 UNL     1      70.662  25.285  45.122  1.00  0.00     0.205 C 
HETATM   12  C14 UNL     1      69.853  26.522  45.397  1.00  0.00     0.173 C 
HETATM   13  C15 UNL     1      69.118  26.990  44.139  1.00  0.00     0.182 C 
HETATM   14  C16 UNL     1      70.207  27.373  43.155  1.00  0.00     0.204 C 
BRANCH  12  15
HETATM   15  O6  UNL     1      68.959  26.282  46.421  1.00  0.00    -0.391 OA
ATOM     16  H6  UNL     1      68.106  26.634  46.195  1.00  0.00     0.210 HD
ENDBRANCH  12  15
BRANCH  13  17
HETATM   17  O7  UNL     1      68.394  28.112  44.499  1.00  0.00    -0.390 OA
ATOM     18  H7  UNL     1      68.991  28.682  44.968  1.00  0.00     0.210 HD
ENDBRANCH  13  17
BRANCH  14  19
HETATM   19  O8  UNL     1      70.543  28.701  43.509  1.00  0.00    -0.388 OA
ATOM     20  H8  UNL     1      71.318  28.742  44.057  1.00  0.00     0.210 HD
ENDBRANCH  14  19
ENDBRANCH   8   9
ENDBRANCH   7   8
ENDBRANCH   5   7
BRANCH   6  21
HETATM   21  O9  UNL     1      76.490  26.405  44.024  1.00  0.00    -0.390 OA
ATOM     22  H9  UNL     1      76.255  25.506  44.223  1.00  0.00     0.210 HD
ENDBRANCH   6  21
BRANCH   3  23
HETATM   23  O2  UNL     1      74.385  24.650  39.863  1.00  0.00    -0.356 OA
BRANCH  23  24
HETATM   24  C4  UNL     1      73.621  23.534  39.610  1.00  0.00     0.124 C 
HETATM   25  C5  UNL     1      73.884  22.936  38.246  1.00  0.00     0.032 C 
HETATM   26  C6  UNL     1      73.483  21.477  38.304  1.00  0.00     0.002 C 
HETATM   27  C7  UNL     1      72.198  21.358  39.099  1.00  0.00     0.000 C 
HETATM   28  C8  UNL     1      71.433  22.660  38.982  1.00  0.00     0.002 C 
HETATM   29  C9  UNL     1      72.142  23.763  39.745  1.00  0.00     0.032 C 
ENDBRANCH  23  24
ENDBRANCH   3  23
BRANCH   1  30
HETATM   30  O1  UNL     1      77.892  26.582  41.890  1.00  0.00    -0.393 OA
ATOM     31  H1  UNL     1      78.181  27.472  41.725  1.00  0.00     0.210 HD
ENDBRANCH   1  30
TORSDOF 10
ENDMDL
