MODEL 1
REMARK VINA RESULT: -7.615730709      0.000      0.000
REMARK  9 active torsions:
REMARK  status: ('A' for Active; 'I' for Inactive)
REMARK    1  A    between atoms: N1_1  and  S1_4 
REMARK    2  A    between atoms: S1_4  and  O3_7 
REMARK    3  A    between atoms: O3_7  and  C1_8 
REMARK    4  A    between atoms: C1_8  and  C2_9 
REMARK    5  A    between atoms: C3_10  and  O4_11 
REMARK    6  A    between atoms: C4_15  and  N2_16 
REMARK    7  A    between atoms: N2_16  and  C5_18 
REMARK    8  A    between atoms: C13_26  and  O7_27 
REMARK    9  A    between atoms: C14_29  and  O8_30 
ROOT
HETATM    1  C2  UNL     1      69.965  26.769  42.958  1.00  0.00     0.100 C 
HETATM    2  C3  UNL     1      70.222  25.671  43.994  1.00  0.00     0.302 C 
HETATM    3  O5  UNL     1      69.283  24.670  43.868  1.00  0.00    -0.205 OA
HETATM    4  O6  UNL     1      69.559  23.822  42.929  1.00  0.00    -0.210 OA
HETATM    5  C4  UNL     1      69.532  24.392  41.661  1.00  0.00     0.286 C 
HETATM    6  C13 UNL     1      68.468  25.407  41.485  1.00  0.00     0.198 C 
HETATM    7  C14 UNL     1      68.598  26.600  42.424  1.00  0.00     0.162 C 
ENDROOT
BRANCH   5   8
HETATM    8  N2  UNL     1      69.548  23.463  40.583  1.00  0.00    -0.388 N 
ATOM      9  H2  UNL     1      68.689  23.131  40.145  1.00  0.00     0.156 HD
BRANCH   8  10
HETATM   10  C5  UNL     1      70.830  23.025  40.151  1.00  0.00     0.079 C 
HETATM   11  C6  UNL     1      70.861  22.126  38.936  1.00  0.00     0.025 C 
HETATM   12  C7  UNL     1      72.097  21.226  39.017  1.00  0.00     0.002 C 
HETATM   13  C8  UNL     1      73.241  21.790  38.195  1.00  0.00     0.000 C 
HETATM   14  C9  UNL     1      74.322  22.421  39.044  1.00  0.00     0.000 C 
HETATM   15  C10 UNL     1      74.020  23.879  39.195  1.00  0.00     0.000 C 
HETATM   16  C11 UNL     1      73.095  24.062  40.387  1.00  0.00     0.002 C 
HETATM   17  C12 UNL     1      71.684  24.247  39.849  1.00  0.00     0.025 C 
ENDBRANCH   8  10
ENDBRANCH   5   8
BRANCH   6  18
HETATM   18  O7  UNL     1      68.566  25.924  40.175  1.00  0.00    -0.388 OA
ATOM     19  H7  UNL     1      69.336  26.479  40.133  1.00  0.00     0.210 HD
ENDBRANCH   6  18
BRANCH   7  20
HETATM   20  O8  UNL     1      68.150  27.745  41.739  1.00  0.00    -0.392 OA
ATOM     21  H8  UNL     1      67.212  27.731  41.593  1.00  0.00     0.210 HD
ENDBRANCH   7  20
BRANCH   2  22
HETATM   22  O4  UNL     1      71.517  25.165  43.875  1.00  0.00    -0.368 OA
ATOM     23  H4  UNL     1      72.160  25.863  43.922  1.00  0.00     0.212 HD
ENDBRANCH   2  22
BRANCH   1  24
HETATM   24  C1  UNL     1      70.115  28.106  43.646  1.00  0.00     0.204 C 
BRANCH  24  25
HETATM   25  O3  UNL     1      70.930  28.047  44.783  1.00  0.00    -0.259 OA
BRANCH  25  26
HETATM   26  S1  UNL     1      72.414  28.719  44.293  1.00  0.00     0.355 S 
HETATM   27  O1  UNL     1      73.142  29.175  45.503  1.00  0.00    -0.176 OA
HETATM   28  O2  UNL     1      72.105  29.889  43.380  1.00  0.00    -0.176 OA
BRANCH  26  29
HETATM   29  N1  UNL     1      73.281  27.551  43.399  1.00  0.00    -0.306 N 
ATOM     30  H12 UNL     1      72.840  26.719  43.006  1.00  0.00     0.171 HD
ATOM     31  H11 UNL     1      74.270  27.778  43.307  1.00  0.00     0.171 HD
ENDBRANCH  26  29
ENDBRANCH  25  26
ENDBRANCH  24  25
ENDBRANCH   1  24
TORSDOF 9
ENDMDL
MODEL 2
REMARK VINA RESULT: -7.278132793      6.114      8.226
REMARK  9 active torsions:
REMARK  status: ('A' for Active; 'I' for Inactive)
REMARK    1  A    between atoms: N1_1  and  S1_4 
REMARK    2  A    between atoms: S1_4  and  O3_7 
REMARK    3  A    between atoms: O3_7  and  C1_8 
REMARK    4  A    between atoms: C1_8  and  C2_9 
REMARK    5  A    between atoms: C3_10  and  O4_11 
REMARK    6  A    between atoms: C4_15  and  N2_16 
REMARK    7  A    between atoms: N2_16  and  C5_18 
REMARK    8  A    between atoms: C13_26  and  O7_27 
REMARK    9  A    between atoms: C14_29  and  O8_30 
ROOT
HETATM    1  C2  UNL     1      78.781  23.861  42.287  1.00  0.00     0.100 C 
HETATM    2  C3  UNL     1      77.870  24.803  43.079  1.00  0.00     0.302 C 
HETATM    3  O5  UNL     1      77.625  25.949  42.352  1.00  0.00    -0.205 OA
HETATM    4  O6  UNL     1      76.684  25.807  41.473  1.00  0.00    -0.210 OA
HETATM    5  C4  UNL     1      77.014  24.905  40.469  1.00  0.00     0.286 C 
HETATM    6  C13 UNL     1      78.438  24.956  40.063  1.00  0.00     0.198 C 
HETATM    7  C14 UNL     1      79.408  24.626  41.190  1.00  0.00     0.162 C 
ENDROOT
BRANCH   5   8
HETATM    8  N2  UNL     1      76.149  24.920  39.339  1.00  0.00    -0.388 N 
ATOM      9  H2  UNL     1      76.323  25.524  38.536  1.00  0.00     0.156 HD
BRANCH   8  10
HETATM   10  C5  UNL     1      75.030  24.044  39.392  1.00  0.00     0.079 C 
HETATM   11  C6  UNL     1      73.674  24.692  39.549  1.00  0.00     0.025 C 
HETATM   12  C7  UNL     1      72.737  23.713  40.262  1.00  0.00     0.002 C 
HETATM   13  C8  UNL     1      71.872  22.959  39.269  1.00  0.00     0.000 C 
HETATM   14  C9  UNL     1      72.319  21.529  39.065  1.00  0.00     0.000 C 
HETATM   15  C10 UNL     1      73.273  21.485  37.913  1.00  0.00     0.000 C 
HETATM   16  C11 UNL     1      74.675  21.760  38.433  1.00  0.00     0.002 C 
HETATM   17  C12 UNL     1      75.005  23.212  38.118  1.00  0.00     0.025 C 
ENDBRANCH   8  10
ENDBRANCH   5   8
BRANCH   6  18
HETATM   18  O7  UNL     1      78.645  23.979  39.065  1.00  0.00    -0.388 OA
ATOM     19  H7  UNL     1      78.805  23.147  39.494  1.00  0.00     0.210 HD
ENDBRANCH   6  18
BRANCH   7  20
HETATM   20  O8  UNL     1      80.509  23.950  40.633  1.00  0.00    -0.392 OA
ATOM     21  H8  UNL     1      81.012  24.505  40.049  1.00  0.00     0.210 HD
ENDBRANCH   7  20
BRANCH   2  22
HETATM   22  O4  UNL     1      76.680  24.167  43.433  1.00  0.00    -0.368 OA
ATOM     23  H4  UNL     1      76.382  24.453  44.288  1.00  0.00     0.212 HD
ENDBRANCH   2  22
BRANCH   1  24
HETATM   24  C1  UNL     1      79.827  23.318  43.233  1.00  0.00     0.204 C 
BRANCH  24  25
HETATM   25  O3  UNL     1      80.311  22.062  42.849  1.00  0.00    -0.259 OA
BRANCH  25  26
HETATM   26  S1  UNL     1      79.492  20.953  43.847  1.00  0.00     0.355 S 
HETATM   27  O1  UNL     1      79.178  19.746  43.043  1.00  0.00    -0.176 OA
HETATM   28  O2  UNL     1      78.221  21.624  44.326  1.00  0.00    -0.176 OA
BRANCH  26  29
HETATM   29  N1  UNL     1      80.466  20.610  45.205  1.00  0.00    -0.306 N 
ATOM     30  H12 UNL     1      80.654  19.659  45.522  1.00  0.00     0.171 HD
ATOM     31  H11 UNL     1      80.830  21.450  45.654  1.00  0.00     0.171 HD
ENDBRANCH  26  29
ENDBRANCH  25  26
ENDBRANCH  24  25
ENDBRANCH   1  24
TORSDOF 9
ENDMDL
MODEL 3
REMARK VINA RESULT: -7.145043467      4.172      5.952
REMARK  9 active torsions:
REMARK  status: ('A' for Active; 'I' for Inactive)
REMARK    1  A    between atoms: N1_1  and  S1_4 
REMARK    2  A    between atoms: S1_4  and  O3_7 
REMARK    3  A    between atoms: O3_7  and  C1_8 
REMARK    4  A    between atoms: C1_8  and  C2_9 
REMARK    5  A    between atoms: C3_10  and  O4_11 
REMARK    6  A    between atoms: C4_15  and  N2_16 
REMARK    7  A    between atoms: N2_16  and  C5_18 
REMARK    8  A    between atoms: C13_26  and  O7_27 
REMARK    9  A    between atoms: C14_29  and  O8_30 
ROOT
HETATM    1  C2  UNL     1      72.936  28.026  43.325  1.00  0.00     0.100 C 
HETATM    2  C3  UNL     1      74.062  28.913  43.864  1.00  0.00     0.302 C 
HETATM    3  O5  UNL     1      75.159  28.143  44.185  1.00  0.00    -0.205 OA
HETATM    4  O6  UNL     1      75.901  27.855  43.163  1.00  0.00    -0.210 OA
HETATM    5  C4  UNL     1      75.254  27.046  42.237  1.00  0.00     0.286 C 
HETATM    6  C13 UNL     1      74.367  26.029  42.848  1.00  0.00     0.198 C 
HETATM    7  C14 UNL     1      73.234  26.623  43.675  1.00  0.00     0.162 C 
ENDROOT
BRANCH   5   8
HETATM    8  N2  UNL     1      76.099  26.472  41.245  1.00  0.00    -0.388 N 
ATOM      9  H2  UNL     1      75.866  26.508  40.253  1.00  0.00     0.156 HD
BRANCH   8  10
HETATM   10  C5  UNL     1      77.285  25.845  41.717  1.00  0.00     0.079 C 
HETATM   11  C6  UNL     1      77.148  24.420  42.200  1.00  0.00     0.025 C 
HETATM   12  C7  UNL     1      78.224  24.148  43.255  1.00  0.00     0.002 C 
HETATM   13  C8  UNL     1      79.428  23.456  42.645  1.00  0.00     0.000 C 
HETATM   14  C9  UNL     1      80.613  24.379  42.467  1.00  0.00     0.000 C 
HETATM   15  C10 UNL     1      80.553  24.975  41.096  1.00  0.00     0.000 C 
HETATM   16  C11 UNL     1      79.692  26.226  41.147  1.00  0.00     0.002 C 
HETATM   17  C12 UNL     1      78.319  25.862  40.601  1.00  0.00     0.025 C 
ENDBRANCH   8  10
ENDBRANCH   5   8
BRANCH   6  18
HETATM   18  O7  UNL     1      73.754  25.298  41.807  1.00  0.00    -0.388 OA
ATOM     19  H7  UNL     1      73.015  25.801  41.488  1.00  0.00     0.210 HD
ENDBRANCH   6  18
BRANCH   7  20
HETATM   20  O8  UNL     1      72.109  25.789  43.535  1.00  0.00    -0.392 OA
ATOM     21  H8  UNL     1      72.114  25.072  44.157  1.00  0.00     0.210 HD
ENDBRANCH   7  20
BRANCH   2  22
HETATM   22  O4  UNL     1      74.396  29.909  42.947  1.00  0.00    -0.368 OA
ATOM     23  H4  UNL     1      75.332  29.922  42.783  1.00  0.00     0.212 HD
ENDBRANCH   2  22
BRANCH   1  24
HETATM   24  C1  UNL     1      71.641  28.478  43.958  1.00  0.00     0.204 C 
BRANCH  24  25
HETATM   25  O3  UNL     1      70.526  28.250  43.143  1.00  0.00    -0.259 OA
BRANCH  25  26
HETATM   26  S1  UNL     1      69.438  27.383  44.123  1.00  0.00     0.355 S 
HETATM   27  O1  UNL     1      68.233  28.223  44.339  1.00  0.00    -0.176 OA
HETATM   28  O2  UNL     1      70.136  27.098  45.437  1.00  0.00    -0.176 OA
BRANCH  26  29
HETATM   29  N1  UNL     1      69.081  25.895  43.367  1.00  0.00    -0.306 N 
ATOM     30  H12 UNL     1      68.191  25.712  42.904  1.00  0.00     0.171 HD
ATOM     31  H11 UNL     1      69.846  25.224  43.433  1.00  0.00     0.171 HD
ENDBRANCH  26  29
ENDBRANCH  25  26
ENDBRANCH  24  25
ENDBRANCH   1  24
TORSDOF 9
ENDMDL
MODEL 4
REMARK VINA RESULT: -7.026494962      3.481      5.413
REMARK  9 active torsions:
REMARK  status: ('A' for Active; 'I' for Inactive)
REMARK    1  A    between atoms: N1_1  and  S1_4 
REMARK    2  A    between atoms: S1_4  and  O3_7 
REMARK    3  A    between atoms: O3_7  and  C1_8 
REMARK    4  A    between atoms: C1_8  and  C2_9 
REMARK    5  A    between atoms: C3_10  and  O4_11 
REMARK    6  A    between atoms: C4_15  and  N2_16 
REMARK    7  A    between atoms: N2_16  and  C5_18 
REMARK    8  A    between atoms: C13_26  and  O7_27 
REMARK    9  A    between atoms: C14_29  and  O8_30 
ROOT
HETATM    1  C2  UNL     1      71.604  27.211  44.139  1.00  0.00     0.100 C 
HETATM    2  C3  UNL     1      71.544  26.011  43.190  1.00  0.00     0.302 C 
HETATM    3  O5  UNL     1      72.392  26.209  42.121  1.00  0.00    -0.205 OA
HETATM    4  O6  UNL     1      73.626  25.916  42.384  1.00  0.00    -0.210 OA
HETATM    5  C4  UNL     1      74.187  26.751  43.344  1.00  0.00     0.286 C 
HETATM    6  C13 UNL     1      73.740  28.160  43.246  1.00  0.00     0.198 C 
HETATM    7  C14 UNL     1      72.239  28.340  43.430  1.00  0.00     0.162 C 
ENDROOT
BRANCH   5   8
HETATM    8  N2  UNL     1      75.602  26.661  43.467  1.00  0.00    -0.388 N 
ATOM      9  H2  UNL     1      76.079  26.856  44.347  1.00  0.00     0.156 HD
BRANCH   8  10
HETATM   10  C5  UNL     1      76.312  26.282  42.294  1.00  0.00     0.079 C 
HETATM   11  C6  UNL     1      77.022  27.388  41.549  1.00  0.00     0.025 C 
HETATM   12  C7  UNL     1      77.112  27.009  40.069  1.00  0.00     0.002 C 
HETATM   13  C8  UNL     1      78.462  26.399  39.740  1.00  0.00     0.000 C 
HETATM   14  C9  UNL     1      78.401  24.899  39.555  1.00  0.00     0.000 C 
HETATM   15  C10 UNL     1      78.686  24.244  40.869  1.00  0.00     0.000 C 
HETATM   16  C11 UNL     1      77.383  24.116  41.641  1.00  0.00     0.002 C 
HETATM   17  C12 UNL     1      77.348  25.234  42.673  1.00  0.00     0.025 C 
ENDBRANCH   8  10
ENDBRANCH   5   8
BRANCH   6  18
HETATM   18  O7  UNL     1      74.356  28.890  44.286  1.00  0.00    -0.388 OA
ATOM     19  H7  UNL     1      74.044  29.786  44.243  1.00  0.00     0.210 HD
ENDBRANCH   6  18
BRANCH   7  20
HETATM   20  O8  UNL     1      72.025  29.567  44.086  1.00  0.00    -0.392 OA
ATOM     21  H8  UNL     1      72.830  30.058  44.200  1.00  0.00     0.210 HD
ENDBRANCH   7  20
BRANCH   2  22
HETATM   22  O4  UNL     1      71.848  24.827  43.862  1.00  0.00    -0.368 OA
ATOM     23  H4  UNL     1      71.678  24.071  43.313  1.00  0.00     0.212 HD
ENDBRANCH   2  22
BRANCH   1  24
HETATM   24  C1  UNL     1      70.190  27.556  44.546  1.00  0.00     0.204 C 
BRANCH  24  25
HETATM   25  O3  UNL     1      69.541  28.384  43.623  1.00  0.00    -0.259 OA
BRANCH  25  26
HETATM   26  S1  UNL     1      68.035  27.642  43.352  1.00  0.00     0.355 S 
HETATM   27  O1  UNL     1      67.477  28.168  42.082  1.00  0.00    -0.176 OA
HETATM   28  O2  UNL     1      67.136  27.996  44.520  1.00  0.00    -0.176 OA
BRANCH  26  29
HETATM   29  N1  UNL     1      68.249  25.949  43.330  1.00  0.00    -0.306 N 
ATOM     30  H12 UNL     1      67.546  25.299  43.682  1.00  0.00     0.171 HD
ATOM     31  H11 UNL     1      69.145  25.669  42.932  1.00  0.00     0.171 HD
ENDBRANCH  26  29
ENDBRANCH  25  26
ENDBRANCH  24  25
ENDBRANCH   1  24
TORSDOF 9
ENDMDL
MODEL 5
REMARK VINA RESULT: -7.011174589      5.835      7.866
REMARK  9 active torsions:
REMARK  status: ('A' for Active; 'I' for Inactive)
REMARK    1  A    between atoms: N1_1  and  S1_4 
REMARK    2  A    between atoms: S1_4  and  O3_7 
REMARK    3  A    between atoms: O3_7  and  C1_8 
REMARK    4  A    between atoms: C1_8  and  C2_9 
REMARK    5  A    between atoms: C3_10  and  O4_11 
REMARK    6  A    between atoms: C4_15  and  N2_16 
REMARK    7  A    between atoms: N2_16  and  C5_18 
REMARK    8  A    between atoms: C13_26  and  O7_27 
REMARK    9  A    between atoms: C14_29  and  O8_30 
ROOT
HETATM    1  C2  UNL     1      77.981  24.073  42.056  1.00  0.00     0.100 C 
HETATM    2  C3  UNL     1      77.134  25.288  42.443  1.00  0.00     0.302 C 
HETATM    3  O5  UNL     1      77.196  26.244  41.453  1.00  0.00    -0.205 OA
HETATM    4  O6  UNL     1      76.385  26.016  40.468  1.00  0.00    -0.210 OA
HETATM    5  C4  UNL     1      76.704  24.863  39.762  1.00  0.00     0.286 C 
HETATM    6  C13 UNL     1      78.160  24.629  39.623  1.00  0.00     0.198 C 
HETATM    7  C14 UNL     1      78.883  24.460  40.953  1.00  0.00     0.162 C 
ENDROOT
BRANCH   5   8
HETATM    8  N2  UNL     1      76.032  24.714  38.516  1.00  0.00    -0.388 N 
ATOM      9  H2  UNL     1      76.377  25.152  37.663  1.00  0.00     0.156 HD
BRANCH   8  10
HETATM   10  C5  UNL     1      74.851  23.920  38.530  1.00  0.00     0.079 C 
HETATM   11  C6  UNL     1      75.047  22.422  38.564  1.00  0.00     0.025 C 
HETATM   12  C7  UNL     1      73.844  21.750  37.897  1.00  0.00     0.002 C 
HETATM   13  C8  UNL     1      72.832  21.289  38.928  1.00  0.00     0.000 C 
HETATM   14  C9  UNL     1      71.607  22.175  38.990  1.00  0.00     0.000 C 
HETATM   15  C10 UNL     1      71.834  23.231  40.026  1.00  0.00     0.000 C 
HETATM   16  C11 UNL     1      72.546  24.405  39.375  1.00  0.00     0.002 C 
HETATM   17  C12 UNL     1      74.019  24.310  39.743  1.00  0.00     0.025 C 
ENDBRANCH   8  10
ENDBRANCH   5   8
BRANCH   6  18
HETATM   18  O7  UNL     1      78.346  23.421  38.916  1.00  0.00    -0.388 OA
ATOM     19  H7  UNL     1      78.194  23.592  37.994  1.00  0.00     0.210 HD
ENDBRANCH   6  18
BRANCH   7  20
HETATM   20  O8  UNL     1      79.925  23.533  40.768  1.00  0.00    -0.392 OA
ATOM     21  H8  UNL     1      79.607  22.694  40.456  1.00  0.00     0.210 HD
ENDBRANCH   7  20
BRANCH   2  22
HETATM   22  O4  UNL     1      75.815  24.915  42.702  1.00  0.00    -0.368 OA
ATOM     23  H4  UNL     1      75.279  24.993  41.922  1.00  0.00     0.212 HD
ENDBRANCH   2  22
BRANCH   1  24
HETATM   24  C1  UNL     1      78.768  23.644  43.273  1.00  0.00     0.204 C 
BRANCH  24  25
HETATM   25  O3  UNL     1      78.244  22.502  43.888  1.00  0.00    -0.259 OA
BRANCH  25  26
HETATM   26  S1  UNL     1      79.484  21.342  43.786  1.00  0.00     0.355 S 
HETATM   27  O1  UNL     1      79.113  20.352  42.744  1.00  0.00    -0.176 OA
HETATM   28  O2  UNL     1      79.598  20.675  45.142  1.00  0.00    -0.176 OA
BRANCH  26  29
HETATM   29  N1  UNL     1      80.957  22.137  43.450  1.00  0.00    -0.306 N 
ATOM     30  H12 UNL     1      81.388  22.796  44.098  1.00  0.00     0.171 HD
ATOM     31  H11 UNL     1      81.347  21.881  42.543  1.00  0.00     0.171 HD
ENDBRANCH  26  29
ENDBRANCH  25  26
ENDBRANCH  24  25
ENDBRANCH   1  24
TORSDOF 9
ENDMDL
