MODEL 1
REMARK VINA RESULT: -9.780964542      0.000      0.000
REMARK  14 active torsions:
REMARK  status: ('A' for Active; 'I' for Inactive)
REMARK       I    between atoms: C1_2  and  N1_3 
REMARK    1  A    between atoms: C1_2  and  C29_40 
REMARK    2  A    between atoms: N1_3  and  C2_5 
REMARK    3  A    between atoms: C2_5  and  C3_6 
REMARK    4  A    between atoms: C2_5  and  C10_13 
REMARK    5  A    between atoms: C3_6  and  C4_7 
REMARK    6  A    between atoms: C10_13  and  O2_14 
REMARK    7  A    between atoms: C10_13  and  N2_16 
REMARK    8  A    between atoms: C11_17  and  C12_18 
REMARK    9  A    between atoms: C12_18  and  S1_19 
REMARK   10  A    between atoms: S1_19  and  C13_20 
REMARK   11  A    between atoms: C19_26  and  O3_27 
REMARK   12  A    between atoms: C20_29  and  O4_30 
REMARK   13  A    between atoms: C21_32  and  C22_33 
REMARK   14  A    between atoms: C22_33  and  C23_34 
ROOT
HETATM    1  N2  UNL     1      19.862  -0.650  16.693  1.00  0.00    -0.342 N 
HETATM    2  C11 UNL     1      19.174  -1.917  16.406  1.00  0.00     0.128 C 
HETATM    3  C19 UNL     1      17.700  -1.583  16.548  1.00  0.00     0.172 C 
HETATM    4  C20 UNL     1      17.804  -0.656  17.749  1.00  0.00     0.175 C 
HETATM    5  C21 UNL     1      18.971   0.304  17.377  1.00  0.00     0.141 C 
ENDROOT
BRANCH   1   6
HETATM    6  C10 UNL     1      21.226  -0.507  16.414  1.00  0.00     0.162 C 
BRANCH   6   7
HETATM    7  C2  UNL     1      22.413  -1.238  16.888  1.00  0.00     0.063 C 
BRANCH   7   8
HETATM    8  N1  UNL     1      22.844  -2.316  16.058  1.00  0.00    -0.325 N 
HETATM    9  C1  UNL     1      22.556  -3.666  16.254  1.00  0.00     0.253 C 
HETATM   10  O1  UNL     1      21.852  -4.072  17.242  1.00  0.00    -0.271 OA
ATOM     11  H1  UNL     1      23.416  -2.078  15.248  1.00  0.00     0.168 HD
BRANCH   9  12
HETATM   12  C29 UNL     1      23.042  -4.730  15.340  1.00  0.00     0.277 C 
HETATM   13  C30 UNL     1      22.196  -5.959  15.336  1.00  0.00     0.044 C 
HETATM   14  C31 UNL     1      22.742  -6.667  14.085  1.00  0.00     0.030 C 
HETATM   15  C32 UNL     1      22.890  -5.487  13.149  1.00  0.00     0.233 C 
HETATM   16  N3  UNL     1      23.060  -4.319  13.958  1.00  0.00    -0.062 N 
ATOM     17  H32 UNL     1      22.373  -3.594  13.753  1.00  0.00     0.278 HD
ATOM     18  H31 UNL     1      23.896  -3.788  13.715  1.00  0.00     0.278 HD
ENDBRANCH   9  12
ENDBRANCH   7   8
BRANCH   7  19
HETATM   19  C3  UNL     1      22.657  -1.261  18.329  1.00  0.00     0.066 C 
BRANCH  19  20
HETATM   20  C4  UNL     1      23.508  -0.143  18.891  1.00  0.00    -0.009 C 
HETATM   21  C5  UNL     1      24.927  -0.138  18.437  1.00  0.00     0.005 C 
HETATM   22  C6  UNL     1      25.553   1.132  19.005  1.00  0.00     0.000 C 
HETATM   23  C7  UNL     1      24.541   2.080  19.575  1.00  0.00     0.000 C 
HETATM   24  C8  UNL     1      23.674   1.514  20.650  1.00  0.00     0.000 C 
HETATM   25  C9  UNL     1      23.454   0.015  20.369  1.00  0.00     0.005 C 
ENDBRANCH  19  20
ENDBRANCH   7  19
ENDBRANCH   6   7
BRANCH   6  26
HETATM   26  O2  UNL     1      21.519   0.461  15.583  1.00  0.00    -0.345 OA
ATOM     27  H2  UNL     1      20.882   0.557  14.884  1.00  0.00     0.219 HD
ENDBRANCH   6  26
ENDBRANCH   1   6
BRANCH   2  28
HETATM   28  C12 UNL     1      19.389  -2.325  14.963  1.00  0.00     0.102 C 
BRANCH  28  29
HETATM   29  S1  UNL     1      19.207  -4.048  14.593  1.00  0.00    -0.161 SA
BRANCH  29  30
HETATM   30  C13 UNL     1      17.574  -4.697  14.399  1.00  0.00     0.055 C 
HETATM   31  C14 UNL     1      17.409  -5.759  13.358  1.00  0.00     0.000 C 
HETATM   32  C15 UNL     1      15.937  -6.083  13.455  1.00  0.00     0.006 C 
HETATM   33  C18 UNL     1      17.956  -6.732  14.420  1.00  0.00     0.011 C 
HETATM   34  C16 UNL     1      15.783  -6.080  14.978  1.00  0.00     0.006 C 
HETATM   35  C17 UNL     1      17.209  -5.824  15.372  1.00  0.00     0.000 C 
ENDBRANCH  29  30
ENDBRANCH  28  29
ENDBRANCH   2  28
BRANCH   5  36
HETATM   36  C22 UNL     1      19.520   0.779  18.669  1.00  0.00     0.004 C 
BRANCH  36  37
HETATM   37  C23 UNL     1      19.130   2.030  19.308  1.00  0.00    -0.082 C 
HETATM   38  C24 UNL     1      19.861   2.582  20.446  1.00  0.00     0.034 C 
HETATM   39  C25 UNL     1      19.180   2.458  21.790  1.00  0.00     0.004 C 
HETATM   40  C26 UNL     1      17.759   2.933  21.719  1.00  0.00     0.001 C 
HETATM   41  C27 UNL     1      17.063   1.968  20.738  1.00  0.00     0.004 C 
HETATM   42  C28 UNL     1      17.626   2.284  19.405  1.00  0.00     0.034 C 
ENDBRANCH  36  37
ENDBRANCH   5  36
BRANCH   3  43
HETATM   43  O3  UNL     1      16.967  -2.677  16.980  1.00  0.00    -0.391 OA
ATOM     44  H3  UNL     1      16.445  -3.048  16.279  1.00  0.00     0.210 HD
ENDBRANCH   3  43
BRANCH   4  45
HETATM   45  O4  UNL     1      18.092  -1.434  18.840  1.00  0.00    -0.391 OA
ATOM     46  H4  UNL     1      18.308  -0.847  19.554  1.00  0.00     0.210 HD
ENDBRANCH   4  45
TORSDOF 14
ENDMDL
MODEL 2
REMARK VINA RESULT: -9.348296497      1.867      9.233
REMARK  14 active torsions:
REMARK  status: ('A' for Active; 'I' for Inactive)
REMARK       I    between atoms: C1_2  and  N1_3 
REMARK    1  A    between atoms: C1_2  and  C29_40 
REMARK    2  A    between atoms: N1_3  and  C2_5 
REMARK    3  A    between atoms: C2_5  and  C3_6 
REMARK    4  A    between atoms: C2_5  and  C10_13 
REMARK    5  A    between atoms: C3_6  and  C4_7 
REMARK    6  A    between atoms: C10_13  and  O2_14 
REMARK    7  A    between atoms: C10_13  and  N2_16 
REMARK    8  A    between atoms: C11_17  and  C12_18 
REMARK    9  A    between atoms: C12_18  and  S1_19 
REMARK   10  A    between atoms: S1_19  and  C13_20 
REMARK   11  A    between atoms: C19_26  and  O3_27 
REMARK   12  A    between atoms: C20_29  and  O4_30 
REMARK   13  A    between atoms: C21_32  and  C22_33 
REMARK   14  A    between atoms: C22_33  and  C23_34 
ROOT
HETATM    1  N2  UNL     1      20.649  -3.355  15.239  1.00  0.00    -0.342 N 
HETATM    2  C11 UNL     1      21.547  -3.292  16.401  1.00  0.00     0.128 C 
HETATM    3  C19 UNL     1      22.679  -4.241  16.051  1.00  0.00     0.172 C 
HETATM    4  C20 UNL     1      21.852  -5.325  15.381  1.00  0.00     0.175 C 
HETATM    5  C21 UNL     1      20.926  -4.539  14.407  1.00  0.00     0.141 C 
ENDROOT
BRANCH   1   6
HETATM    6  C10 UNL     1      19.617  -2.420  15.092  1.00  0.00     0.162 C 
BRANCH   6   7
HETATM    7  C2  UNL     1      18.361  -2.210  15.830  1.00  0.00     0.063 C 
BRANCH   7   8
HETATM    8  N1  UNL     1      18.198  -0.918  16.413  1.00  0.00    -0.325 N 
HETATM    9  C1  UNL     1      18.401  -0.592  17.753  1.00  0.00     0.253 C 
HETATM   10  O1  UNL     1      18.763  -1.465  18.615  1.00  0.00    -0.271 OA
ATOM     11  H1  UNL     1      17.906  -0.163  15.792  1.00  0.00     0.168 HD
BRANCH   9  12
HETATM   12  C29 UNL     1      18.212   0.782  18.281  1.00  0.00     0.277 C 
HETATM   13  C30 UNL     1      17.398   0.846  19.529  1.00  0.00     0.044 C 
HETATM   14  C31 UNL     1      17.692   2.286  19.980  1.00  0.00     0.030 C 
HETATM   15  C32 UNL     1      19.175   2.365  19.684  1.00  0.00     0.233 C 
HETATM   16  N3  UNL     1      19.453   1.420  18.646  1.00  0.00    -0.062 N 
ATOM     17  H32 UNL     1      20.179   0.752  18.905  1.00  0.00     0.278 HD
ATOM     18  H31 UNL     1      19.931   1.838  17.849  1.00  0.00     0.278 HD
ENDBRANCH   9  12
ENDBRANCH   7   8
BRANCH   7  19
HETATM   19  C3  UNL     1      17.730  -3.385  16.430  1.00  0.00     0.066 C 
BRANCH  19  20
HETATM   20  C4  UNL     1      16.631  -4.048  15.628  1.00  0.00    -0.009 C 
HETATM   21  C5  UNL     1      15.425  -3.207  15.392  1.00  0.00     0.005 C 
HETATM   22  C6  UNL     1      14.521  -4.010  14.461  1.00  0.00     0.000 C 
HETATM   23  C7  UNL     1      15.202  -5.208  13.871  1.00  0.00     0.000 C 
HETATM   24  C8  UNL     1      15.761  -6.174  14.861  1.00  0.00     0.000 C 
HETATM   25  C9  UNL     1      16.219  -5.394  16.109  1.00  0.00     0.005 C 
ENDBRANCH  19  20
ENDBRANCH   7  19
ENDBRANCH   6   7
BRANCH   6  26
HETATM   26  O2  UNL     1      19.781  -1.571  14.108  1.00  0.00    -0.345 OA
ATOM     27  H2  UNL     1      20.613  -1.112  14.148  1.00  0.00     0.219 HD
ENDBRANCH   6  26
ENDBRANCH   1   6
BRANCH   2  28
HETATM   28  C12 UNL     1      22.160  -1.912  16.526  1.00  0.00     0.102 C 
BRANCH  28  29
HETATM   29  S1  UNL     1      22.205  -1.212  18.153  1.00  0.00    -0.161 SA
BRANCH  29  30
HETATM   30  C13 UNL     1      23.277   0.163  18.445  1.00  0.00     0.055 C 
HETATM   31  C14 UNL     1      22.983   0.978  19.665  1.00  0.00     0.000 C 
HETATM   32  C15 UNL     1      24.059   2.037  19.615  1.00  0.00     0.006 C 
HETATM   33  C18 UNL     1      23.738  -0.116  20.444  1.00  0.00     0.011 C 
HETATM   34  C16 UNL     1      25.247   1.165  19.204  1.00  0.00     0.006 C 
HETATM   35  C17 UNL     1      24.576  -0.179  19.186  1.00  0.00     0.000 C 
ENDBRANCH  29  30
ENDBRANCH  28  29
ENDBRANCH   2  28
BRANCH   5  36
HETATM   36  C22 UNL     1      19.734  -5.398  14.213  1.00  0.00     0.004 C 
BRANCH  36  37
HETATM   37  C23 UNL     1      19.635  -6.433  13.191  1.00  0.00    -0.082 C 
HETATM   38  C24 UNL     1      18.554  -6.454  12.209  1.00  0.00     0.034 C 
HETATM   39  C25 UNL     1      17.486  -7.502  12.427  1.00  0.00     0.004 C 
HETATM   40  C26 UNL     1      18.097  -8.853  12.656  1.00  0.00     0.001 C 
HETATM   41  C27 UNL     1      18.903  -8.711  13.963  1.00  0.00     0.004 C 
HETATM   42  C28 UNL     1      20.051  -7.837  13.628  1.00  0.00     0.034 C 
ENDBRANCH  36  37
ENDBRANCH   5  36
BRANCH   3  43
HETATM   43  O3  UNL     1      23.223  -4.828  17.184  1.00  0.00    -0.391 OA
ATOM     44  H3  UNL     1      22.690  -5.551  17.493  1.00  0.00     0.210 HD
ENDBRANCH   3  43
BRANCH   4  45
HETATM   45  O4  UNL     1      21.149  -5.969  16.367  1.00  0.00    -0.391 OA
ATOM     46  H4  UNL     1      21.279  -6.901  16.242  1.00  0.00     0.210 HD
ENDBRANCH   4  45
TORSDOF 14
ENDMDL
MODEL 3
REMARK VINA RESULT: -9.241883536      1.882      6.802
REMARK  14 active torsions:
REMARK  status: ('A' for Active; 'I' for Inactive)
REMARK       I    between atoms: C1_2  and  N1_3 
REMARK    1  A    between atoms: C1_2  and  C29_40 
REMARK    2  A    between atoms: N1_3  and  C2_5 
REMARK    3  A    between atoms: C2_5  and  C3_6 
REMARK    4  A    between atoms: C2_5  and  C10_13 
REMARK    5  A    between atoms: C3_6  and  C4_7 
REMARK    6  A    between atoms: C10_13  and  O2_14 
REMARK    7  A    between atoms: C10_13  and  N2_16 
REMARK    8  A    between atoms: C11_17  and  C12_18 
REMARK    9  A    between atoms: C12_18  and  S1_19 
REMARK   10  A    between atoms: S1_19  and  C13_20 
REMARK   11  A    between atoms: C19_26  and  O3_27 
REMARK   12  A    between atoms: C20_29  and  O4_30 
REMARK   13  A    between atoms: C21_32  and  C22_33 
REMARK   14  A    between atoms: C22_33  and  C23_34 
ROOT
HETATM    1  N2  UNL     1      20.112  -1.822  17.476  1.00  0.00    -0.342 N 
HETATM    2  C11 UNL     1      21.015  -1.409  16.391  1.00  0.00     0.128 C 
HETATM    3  C19 UNL     1      21.313   0.050  16.690  1.00  0.00     0.172 C 
HETATM    4  C20 UNL     1      19.928   0.461  17.161  1.00  0.00     0.175 C 
HETATM    5  C21 UNL     1      19.528  -0.659  18.165  1.00  0.00     0.141 C 
ENDROOT
BRANCH   1   6
HETATM    6  C10 UNL     1      19.822  -3.177  17.674  1.00  0.00     0.162 C 
BRANCH   6   7
HETATM    7  C2  UNL     1      19.057  -4.151  16.878  1.00  0.00     0.063 C 
BRANCH   7   8
HETATM    8  N1  UNL     1      19.836  -5.072  16.117  1.00  0.00    -0.325 N 
HETATM    9  C1  UNL     1      20.351  -4.851  14.840  1.00  0.00     0.253 C 
HETATM   10  O1  UNL     1      20.154  -3.755  14.211  1.00  0.00    -0.271 OA
ATOM     11  H1  UNL     1      20.036  -5.976  16.546  1.00  0.00     0.168 HD
BRANCH   9  12
HETATM   12  C29 UNL     1      21.158  -5.864  14.114  1.00  0.00     0.277 C 
HETATM   13  C30 UNL     1      22.630  -5.709  14.294  1.00  0.00     0.044 C 
HETATM   14  C31 UNL     1      23.121  -7.058  13.743  1.00  0.00     0.030 C 
HETATM   15  C32 UNL     1      22.079  -7.986  14.332  1.00  0.00     0.233 C 
HETATM   16  N3  UNL     1      20.896  -7.212  14.554  1.00  0.00    -0.062 N 
ATOM     17  H32 UNL     1      20.572  -7.255  15.520  1.00  0.00     0.278 HD
ATOM     18  H31 UNL     1      20.070  -7.617  14.115  1.00  0.00     0.278 HD
ENDBRANCH   9  12
ENDBRANCH   7   8
BRANCH   7  19
HETATM   19  C3  UNL     1      17.723  -3.752  16.429  1.00  0.00     0.066 C 
BRANCH  19  20
HETATM   20  C4  UNL     1      16.944  -4.772  15.629  1.00  0.00    -0.009 C 
HETATM   21  C5  UNL     1      15.683  -4.268  15.018  1.00  0.00     0.005 C 
HETATM   22  C6  UNL     1      15.142  -5.404  14.155  1.00  0.00     0.000 C 
HETATM   23  C7  UNL     1      16.127  -6.518  13.967  1.00  0.00     0.000 C 
HETATM   24  C8  UNL     1      16.633  -7.140  15.225  1.00  0.00     0.000 C 
HETATM   25  C9  UNL     1      16.684  -6.061  16.324  1.00  0.00     0.005 C 
ENDBRANCH  19  20
ENDBRANCH   7  19
ENDBRANCH   6   7
BRANCH   6  26
HETATM   26  O2  UNL     1      20.308  -3.688  18.778  1.00  0.00    -0.345 OA
ATOM     27  H2  UNL     1      19.650  -4.125  19.307  1.00  0.00     0.219 HD
ENDBRANCH   6  26
ENDBRANCH   1   6
BRANCH   2  28
HETATM   28  C12 UNL     1      22.333  -2.148  16.484  1.00  0.00     0.102 C 
BRANCH  28  29
HETATM   29  S1  UNL     1      23.305  -1.853  17.935  1.00  0.00    -0.161 SA
BRANCH  29  30
HETATM   30  C13 UNL     1      23.860  -0.205  18.253  1.00  0.00     0.055 C 
HETATM   31  C14 UNL     1      23.312   0.447  19.484  1.00  0.00     0.000 C 
HETATM   32  C15 UNL     1      23.975   1.804  19.455  1.00  0.00     0.006 C 
HETATM   33  C18 UNL     1      24.389  -0.347  20.250  1.00  0.00     0.011 C 
HETATM   34  C16 UNL     1      25.386   1.382  19.036  1.00  0.00     0.006 C 
HETATM   35  C17 UNL     1      25.199  -0.108  18.995  1.00  0.00     0.000 C 
ENDBRANCH  29  30
ENDBRANCH  28  29
ENDBRANCH   2  28
BRANCH   5  36
HETATM   36  C22 UNL     1      18.047  -0.677  18.170  1.00  0.00     0.004 C 
BRANCH  36  37
HETATM   37  C23 UNL     1      17.224   0.298  18.877  1.00  0.00    -0.082 C 
HETATM   38  C24 UNL     1      17.266   1.724  18.562  1.00  0.00     0.034 C 
HETATM   39  C25 UNL     1      17.985   2.599  19.563  1.00  0.00     0.004 C 
HETATM   40  C26 UNL     1      17.512   2.320  20.959  1.00  0.00     0.001 C 
HETATM   41  C27 UNL     1      17.909   0.855  21.231  1.00  0.00     0.004 C 
HETATM   42  C28 UNL     1      17.024   0.038  20.369  1.00  0.00     0.034 C 
ENDBRANCH  36  37
ENDBRANCH   5  36
BRANCH   3  43
HETATM   43  O3  UNL     1      21.546   0.772  15.529  1.00  0.00    -0.391 OA
ATOM     44  H3  UNL     1      21.933   1.619  15.716  1.00  0.00     0.210 HD
ENDBRANCH   3  43
BRANCH   4  45
HETATM   45  O4  UNL     1      19.115   0.490  16.058  1.00  0.00    -0.391 OA
ATOM     46  H4  UNL     1      18.254   0.203  16.335  1.00  0.00     0.210 HD
ENDBRANCH   4  45
TORSDOF 14
ENDMDL
MODEL 4
REMARK VINA RESULT: -9.141243658      2.622      6.154
REMARK  14 active torsions:
REMARK  status: ('A' for Active; 'I' for Inactive)
REMARK       I    between atoms: C1_2  and  N1_3 
REMARK    1  A    between atoms: C1_2  and  C29_40 
REMARK    2  A    between atoms: N1_3  and  C2_5 
REMARK    3  A    between atoms: C2_5  and  C3_6 
REMARK    4  A    between atoms: C2_5  and  C10_13 
REMARK    5  A    between atoms: C3_6  and  C4_7 
REMARK    6  A    between atoms: C10_13  and  O2_14 
REMARK    7  A    between atoms: C10_13  and  N2_16 
REMARK    8  A    between atoms: C11_17  and  C12_18 
REMARK    9  A    between atoms: C12_18  and  S1_19 
REMARK   10  A    between atoms: S1_19  and  C13_20 
REMARK   11  A    between atoms: C19_26  and  O3_27 
REMARK   12  A    between atoms: C20_29  and  O4_30 
REMARK   13  A    between atoms: C21_32  and  C22_33 
REMARK   14  A    between atoms: C22_33  and  C23_34 
ROOT
HETATM    1  N2  UNL     1      20.676  -4.526  15.207  1.00  0.00    -0.342 N 
HETATM    2  C11 UNL     1      20.470  -5.248  13.943  1.00  0.00     0.128 C 
HETATM    3  C19 UNL     1      21.846  -5.781  13.588  1.00  0.00     0.172 C 
HETATM    4  C20 UNL     1      22.664  -4.577  14.026  1.00  0.00     0.175 C 
HETATM    5  C21 UNL     1      22.102  -4.239  15.438  1.00  0.00     0.141 C 
ENDROOT
BRANCH   1   6
HETATM    6  C10 UNL     1      19.578  -4.109  15.969  1.00  0.00     0.162 C 
BRANCH   6   7
HETATM    7  C2  UNL     1      18.529  -3.105  15.723  1.00  0.00     0.063 C 
BRANCH   7   8
HETATM    8  N1  UNL     1      17.475  -3.516  14.853  1.00  0.00    -0.325 N 
HETATM    9  C1  UNL     1      16.560  -4.538  15.101  1.00  0.00     0.253 C 
HETATM   10  O1  UNL     1      16.592  -5.230  16.176  1.00  0.00    -0.271 OA
ATOM     11  H1  UNL     1      17.383  -3.016  13.969  1.00  0.00     0.168 HD
BRANCH   9  12
HETATM   12  C29 UNL     1      15.488  -4.904  14.142  1.00  0.00     0.277 C 
HETATM   13  C30 UNL     1      15.010  -6.311  14.273  1.00  0.00     0.044 C 
HETATM   14  C31 UNL     1      13.723  -6.246  13.433  1.00  0.00     0.030 C 
HETATM   15  C32 UNL     1      13.179  -4.904  13.873  1.00  0.00     0.233 C 
HETATM   16  N3  UNL     1      14.291  -4.116  14.310  1.00  0.00    -0.062 N 
ATOM     17  H32 UNL     1      14.178  -3.768  15.262  1.00  0.00     0.278 HD
ATOM     18  H31 UNL     1      14.345  -3.213  13.840  1.00  0.00     0.278 HD
ENDBRANCH   9  12
ENDBRANCH   7   8
BRANCH   7  19
HETATM   19  C3  UNL     1      18.910  -1.697  15.822  1.00  0.00     0.066 C 
BRANCH  19  20
HETATM   20  C4  UNL     1      18.439  -0.952  17.052  1.00  0.00    -0.009 C 
HETATM   21  C5  UNL     1      17.407  -1.656  17.863  1.00  0.00     0.005 C 
HETATM   22  C6  UNL     1      17.185  -0.802  19.107  1.00  0.00     0.000 C 
HETATM   23  C7  UNL     1      18.214   0.276  19.270  1.00  0.00     0.000 C 
HETATM   24  C8  UNL     1      18.334   1.219  18.119  1.00  0.00     0.000 C 
HETATM   25  C9  UNL     1      18.019   0.456  16.819  1.00  0.00     0.005 C 
ENDBRANCH  19  20
ENDBRANCH   7  19
ENDBRANCH   6   7
BRANCH   6  26
HETATM   26  O2  UNL     1      19.452  -4.709  17.126  1.00  0.00    -0.345 OA
ATOM     27  H2  UNL     1      19.578  -5.650  17.073  1.00  0.00     0.219 HD
ENDBRANCH   6  26
ENDBRANCH   1   6
BRANCH   2  28
HETATM   28  C12 UNL     1      19.579  -6.454  14.157  1.00  0.00     0.102 C 
BRANCH  28  29
HETATM   29  S1  UNL     1      18.452  -6.847  12.848  1.00  0.00    -0.161 SA
BRANCH  29  30
HETATM   30  C13 UNL     1      18.157  -8.550  12.477  1.00  0.00     0.055 C 
HETATM   31  C14 UNL     1      18.383  -9.516  13.598  1.00  0.00     0.000 C 
HETATM   32  C15 UNL     1      18.045 -10.841  12.957  1.00  0.00     0.006 C 
HETATM   33  C18 UNL     1      16.981  -9.105  14.089  1.00  0.00     0.011 C 
HETATM   34  C16 UNL     1      16.799 -10.427  12.172  1.00  0.00     0.006 C 
HETATM   35  C17 UNL     1      16.695  -8.994  12.608  1.00  0.00     0.000 C 
ENDBRANCH  29  30
ENDBRANCH  28  29
ENDBRANCH   2  28
BRANCH   5  36
HETATM   36  C22 UNL     1      22.374  -2.796  15.637  1.00  0.00     0.004 C 
BRANCH  36  37
HETATM   37  C23 UNL     1      22.746  -2.208  16.919  1.00  0.00    -0.082 C 
HETATM   38  C24 UNL     1      22.131  -2.631  18.175  1.00  0.00     0.034 C 
HETATM   39  C25 UNL     1      21.134  -1.668  18.778  1.00  0.00     0.004 C 
HETATM   40  C26 UNL     1      21.696  -0.279  18.838  1.00  0.00     0.001 C 
HETATM   41  C27 UNL     1      21.924   0.125  17.368  1.00  0.00     0.004 C 
HETATM   42  C28 UNL     1      23.052  -0.711  16.897  1.00  0.00     0.034 C 
ENDBRANCH  36  37
ENDBRANCH   5  36
BRANCH   3  43
HETATM   43  O3  UNL     1      22.021  -5.877  12.216  1.00  0.00    -0.391 OA
ATOM     44  H3  UNL     1      21.391  -6.471  11.824  1.00  0.00     0.210 HD
ENDBRANCH   3  43
BRANCH   4  45
HETATM   45  O4  UNL     1      22.433  -3.577  13.117  1.00  0.00    -0.391 OA
ATOM     46  H4  UNL     1      21.514  -3.345  13.181  1.00  0.00     0.210 HD
ENDBRANCH   4  45
TORSDOF 14
ENDMDL
MODEL 5
REMARK VINA RESULT: -9.051927291      1.758      5.970
REMARK  14 active torsions:
REMARK  status: ('A' for Active; 'I' for Inactive)
REMARK       I    between atoms: C1_2  and  N1_3 
REMARK    1  A    between atoms: C1_2  and  C29_40 
REMARK    2  A    between atoms: N1_3  and  C2_5 
REMARK    3  A    between atoms: C2_5  and  C3_6 
REMARK    4  A    between atoms: C2_5  and  C10_13 
REMARK    5  A    between atoms: C3_6  and  C4_7 
REMARK    6  A    between atoms: C10_13  and  O2_14 
REMARK    7  A    between atoms: C10_13  and  N2_16 
REMARK    8  A    between atoms: C11_17  and  C12_18 
REMARK    9  A    between atoms: C12_18  and  S1_19 
REMARK   10  A    between atoms: S1_19  and  C13_20 
REMARK   11  A    between atoms: C19_26  and  O3_27 
REMARK   12  A    between atoms: C20_29  and  O4_30 
REMARK   13  A    between atoms: C21_32  and  C22_33 
REMARK   14  A    between atoms: C22_33  and  C23_34 
ROOT
HETATM    1  N2  UNL     1      20.071  -0.582  17.246  1.00  0.00    -0.342 N 
HETATM    2  C11 UNL     1      19.396   0.490  17.991  1.00  0.00     0.128 C 
HETATM    3  C19 UNL     1      18.136  -0.165  18.528  1.00  0.00     0.172 C 
HETATM    4  C20 UNL     1      17.801  -1.016  17.314  1.00  0.00     0.175 C 
HETATM    5  C21 UNL     1      19.153  -1.696  16.952  1.00  0.00     0.141 C 
ENDROOT
BRANCH   1   6
HETATM    6  C10 UNL     1      21.394  -0.419  16.817  1.00  0.00     0.162 C 
BRANCH   6   7
HETATM    7  C2  UNL     1      22.641  -1.116  17.173  1.00  0.00     0.063 C 
BRANCH   7   8
HETATM    8  N1  UNL     1      23.048  -2.148  16.276  1.00  0.00    -0.325 N 
HETATM    9  C1  UNL     1      22.647  -3.483  16.328  1.00  0.00     0.253 C 
HETATM   10  O1  UNL     1      21.848  -3.916  17.227  1.00  0.00    -0.271 OA
ATOM     11  H1  UNL     1      23.690  -1.886  15.528  1.00  0.00     0.168 HD
BRANCH   9  12
HETATM   12  C29 UNL     1      23.115  -4.498  15.351  1.00  0.00     0.277 C 
HETATM   13  C30 UNL     1      22.352  -5.779  15.394  1.00  0.00     0.044 C 
HETATM   14  C31 UNL     1      22.827  -6.430  14.084  1.00  0.00     0.030 C 
HETATM   15  C32 UNL     1      22.815  -5.227  13.165  1.00  0.00     0.233 C 
HETATM   16  N3  UNL     1      22.983  -4.064  13.982  1.00  0.00    -0.062 N 
ATOM     17  H32 UNL     1      22.237  -3.381  13.855  1.00  0.00     0.278 HD
ATOM     18  H31 UNL     1      23.759  -3.476  13.678  1.00  0.00     0.278 HD
ENDBRANCH   9  12
ENDBRANCH   7   8
BRANCH   7  19
HETATM   19  C3  UNL     1      22.996  -1.175  18.590  1.00  0.00     0.066 C 
BRANCH  19  20
HETATM   20  C4  UNL     1      23.816  -0.025  19.133  1.00  0.00    -0.009 C 
HETATM   21  C5  UNL     1      25.139   0.174  18.479  1.00  0.00     0.005 C 
HETATM   22  C6  UNL     1      25.723   1.450  19.077  1.00  0.00     0.000 C 
HETATM   23  C7  UNL     1      24.729   2.229  19.884  1.00  0.00     0.000 C 
HETATM   24  C8  UNL     1      24.097   1.480  21.010  1.00  0.00     0.000 C 
HETATM   25  C9  UNL     1      23.979  -0.004  20.612  1.00  0.00     0.005 C 
ENDBRANCH  19  20
ENDBRANCH   7  19
ENDBRANCH   6   7
BRANCH   6  26
HETATM   26  O2  UNL     1      21.574   0.537  15.941  1.00  0.00    -0.345 OA
ATOM     27  H2  UNL     1      22.412   0.480  15.495  1.00  0.00     0.219 HD
ENDBRANCH   6  26
ENDBRANCH   1   6
BRANCH   2  28
HETATM   28  C12 UNL     1      20.218   0.902  19.195  1.00  0.00     0.102 C 
BRANCH  28  29
HETATM   29  S1  UNL     1      19.764   2.424  19.978  1.00  0.00    -0.161 SA
BRANCH  29  30
HETATM   30  C13 UNL     1      19.226   2.375  21.661  1.00  0.00     0.055 C 
HETATM   31  C14 UNL     1      18.066   3.255  22.007  1.00  0.00     0.000 C 
HETATM   32  C15 UNL     1      17.872   2.974  23.478  1.00  0.00     0.006 C 
HETATM   33  C18 UNL     1      17.184   2.138  21.415  1.00  0.00     0.011 C 
HETATM   34  C16 UNL     1      18.064   1.456  23.468  1.00  0.00     0.006 C 
HETATM   35  C17 UNL     1      18.253   1.238  21.994  1.00  0.00     0.000 C 
ENDBRANCH  29  30
ENDBRANCH  28  29
ENDBRANCH   2  28
BRANCH   5  36
HETATM   36  C22 UNL     1      19.067  -2.004  15.506  1.00  0.00     0.004 C 
BRANCH  36  37
HETATM   37  C23 UNL     1      18.375  -3.167  14.961  1.00  0.00    -0.082 C 
HETATM   38  C24 UNL     1      16.931  -3.344  15.094  1.00  0.00     0.034 C 
HETATM   39  C25 UNL     1      16.484  -4.382  16.099  1.00  0.00     0.004 C 
HETATM   40  C26 UNL     1      17.219  -5.675  15.900  1.00  0.00     0.001 C 
HETATM   41  C27 UNL     1      18.698  -5.342  16.180  1.00  0.00     0.004 C 
HETATM   42  C28 UNL     1      19.134  -4.490  15.049  1.00  0.00     0.034 C 
ENDBRANCH  36  37
ENDBRANCH   5  36
BRANCH   3  43
HETATM   43  O3  UNL     1      17.098   0.746  18.648  1.00  0.00    -0.391 OA
ATOM     44  H3  UNL     1      16.890   0.923  19.558  1.00  0.00     0.210 HD
ENDBRANCH   3  43
BRANCH   4  45
HETATM   45  O4  UNL     1      17.361  -0.168  16.332  1.00  0.00    -0.391 OA
ATOM     46  H4  UNL     1      18.082  -0.041  15.726  1.00  0.00     0.210 HD
ENDBRANCH   4  45
TORSDOF 14
ENDMDL
