MODEL 1
REMARK VINA RESULT: -9.502172330      0.000      0.000
REMARK  11 active torsions:
REMARK  status: ('A' for Active; 'I' for Inactive)
REMARK    1  A    between atoms: C2_2  and  C4_4 
REMARK    2  A    between atoms: C4_4  and  N1_5 
REMARK    3  A    between atoms: C4_4  and  C19_26 
REMARK       I    between atoms: N1_5  and  C5_7 
REMARK    4  A    between atoms: C5_7  and  C6_9 
REMARK    5  A    between atoms: C6_9  and  N2_10 
REMARK    6  A    between atoms: C6_9  and  C12_19 
REMARK       I    between atoms: N2_10  and  C7_12 
REMARK    7  A    between atoms: C7_12  and  O3_14 
REMARK    8  A    between atoms: O3_14  and  C8_15 
REMARK    9  A    between atoms: C19_26  and  C20_28 
REMARK   10  A    between atoms: C21_29  and  C22_30 
REMARK       I    between atoms: C22_30  and  N3_32 
REMARK   11  A    between atoms: N3_32  and  C23_34 
ROOT
HETATM    1  C4  UNL     1      22.281  -2.584  15.520  1.00  0.00     0.160 C 
ENDROOT
BRANCH   1   2
HETATM    2  C2  UNL     1      23.215  -3.772  15.375  1.00  0.00     0.007 C 
HETATM    3  C1  UNL     1      23.137  -4.743  16.514  1.00  0.00     0.012 C 
HETATM    4  C3  UNL     1      23.224  -4.417  14.042  1.00  0.00     0.012 C 
ENDBRANCH   1   2
BRANCH   1   5
HETATM    5  N1  UNL     1      22.193  -2.215  16.943  1.00  0.00    -0.347 N 
HETATM    6  C5  UNL     1      21.958  -0.879  17.311  1.00  0.00     0.242 C 
HETATM    7  O1  UNL     1      21.826  -0.070  16.307  1.00  0.00    -0.271 OA
ATOM      8  H1  UNL     1      22.301  -2.930  17.663  1.00  0.00     0.163 HD
BRANCH   6   9
HETATM    9  C6  UNL     1      21.842  -0.319  18.666  1.00  0.00     0.187 C 
BRANCH   9  10
HETATM   10  N2  UNL     1      20.818   0.742  18.610  1.00  0.00    -0.323 N 
HETATM   11  C7  UNL     1      19.470   0.511  18.904  1.00  0.00     0.362 C 
HETATM   12  O2  UNL     1      18.993  -0.612  19.245  1.00  0.00    -0.238 OA
ATOM     13  H2  UNL     1      21.104   1.684  18.345  1.00  0.00     0.165 HD
BRANCH  11  14
HETATM   14  O3  UNL     1      18.571   1.561  18.827  1.00  0.00    -0.294 OA
BRANCH  14  15
HETATM   15  C8  UNL     1      18.230   2.359  19.928  1.00  0.00     0.061 C 
HETATM   16  C9  UNL     1      17.158   1.783  20.796  1.00  0.00     0.046 C 
HETATM   17  C10 UNL     1      19.432   2.677  20.797  1.00  0.00     0.046 C 
HETATM   18  C11 UNL     1      17.750   3.701  19.355  1.00  0.00     0.046 C 
ENDBRANCH  14  15
ENDBRANCH  11  14
ENDBRANCH   9  10
BRANCH   9  19
HETATM   19  C12 UNL     1      23.160   0.302  19.118  1.00  0.00    -0.015 C 
HETATM   20  C13 UNL     1      24.208  -0.113  18.111  1.00  0.00     0.018 C 
HETATM   21  C14 UNL     1      23.021   1.779  19.016  1.00  0.00     0.012 C 
HETATM   22  C15 UNL     1      23.337   2.577  20.244  1.00  0.00     0.001 C 
HETATM   23  C16 UNL     1      24.573   2.031  20.925  1.00  0.00     0.000 C 
HETATM   24  C17 UNL     1      24.152   0.678  21.438  1.00  0.00     0.001 C 
HETATM   25  C18 UNL     1      23.603  -0.247  20.434  1.00  0.00     0.012 C 
ENDBRANCH   9  19
ENDBRANCH   6   9
ENDBRANCH   1   5
BRANCH   1  26
HETATM   26  C19 UNL     1      20.934  -2.820  14.969  1.00  0.00     0.175 C 
HETATM   27  O4  UNL     1      20.556  -2.074  14.052  1.00  0.00    -0.293 OA
BRANCH  26  28
HETATM   28  C20 UNL     1      20.030  -3.868  15.429  1.00  0.00     0.192 C 
HETATM   29  C21 UNL     1      18.828  -4.033  14.495  1.00  0.00     0.208 C 
HETATM   30  N4  UNL     1      17.949  -2.932  14.880  1.00  0.00    -0.327 N 
HETATM   31  C29 UNL     1      18.143  -2.741  16.272  1.00  0.00     0.319 C 
ATOM     32  H4  UNL     1      17.321  -2.406  14.272  1.00  0.00     0.165 HD
HETATM   33  O6  UNL     1      17.365  -2.090  16.992  1.00  0.00    -0.247 OA
HETATM   34  N5  UNL     1      19.322  -3.402  16.634  1.00  0.00    -0.324 N 
HETATM   35  C30 UNL     1      19.806  -3.615  17.981  1.00  0.00     0.155 C 
BRANCH  29  36
HETATM   36  C22 UNL     1      18.105  -5.283  14.809  1.00  0.00     0.243 C 
HETATM   37  O5  UNL     1      18.598  -6.158  15.579  1.00  0.00    -0.271 OA
HETATM   38  N3  UNL     1      16.820  -5.594  14.283  1.00  0.00    -0.355 N 
ATOM     39  H3  UNL     1      16.381  -4.916  13.659  1.00  0.00     0.162 HD
BRANCH  38  40
HETATM   40  C23 UNL     1      16.102  -6.800  14.578  1.00  0.00     0.084 C 
HETATM   41  C24 UNL     1      16.656  -8.034  13.942  1.00  0.00     0.025 C 
HETATM   42  C25 UNL     1      16.549  -7.916  12.435  1.00  0.00     0.002 C 
HETATM   43  C26 UNL     1      15.079  -7.841  12.089  1.00  0.00     0.000 C 
HETATM   44  C27 UNL     1      14.416  -6.627  12.717  1.00  0.00     0.002 C 
HETATM   45  C28 UNL     1      14.637  -6.595  14.214  1.00  0.00     0.025 C 
ENDBRANCH  38  40
ENDBRANCH  29  36
ENDBRANCH  26  28
ENDBRANCH   1  26
TORSDOF 11
ENDMDL
MODEL 2
REMARK VINA RESULT: -9.233912712      2.685      6.207
REMARK  11 active torsions:
REMARK  status: ('A' for Active; 'I' for Inactive)
REMARK    1  A    between atoms: C2_2  and  C4_4 
REMARK    2  A    between atoms: C4_4  and  N1_5 
REMARK    3  A    between atoms: C4_4  and  C19_26 
REMARK       I    between atoms: N1_5  and  C5_7 
REMARK    4  A    between atoms: C5_7  and  C6_9 
REMARK    5  A    between atoms: C6_9  and  N2_10 
REMARK    6  A    between atoms: C6_9  and  C12_19 
REMARK       I    between atoms: N2_10  and  C7_12 
REMARK    7  A    between atoms: C7_12  and  O3_14 
REMARK    8  A    between atoms: O3_14  and  C8_15 
REMARK    9  A    between atoms: C19_26  and  C20_28 
REMARK   10  A    between atoms: C21_29  and  C22_30 
REMARK       I    between atoms: C22_30  and  N3_32 
REMARK   11  A    between atoms: N3_32  and  C23_34 
ROOT
HETATM    1  C4  UNL     1      21.156  -3.503  15.742  1.00  0.00     0.160 C 
ENDROOT
BRANCH   1   2
HETATM    2  C2  UNL     1      21.928  -2.895  16.899  1.00  0.00     0.007 C 
HETATM    3  C1  UNL     1      22.639  -1.624  16.548  1.00  0.00     0.012 C 
HETATM    4  C3  UNL     1      21.202  -2.836  18.188  1.00  0.00     0.012 C 
ENDBRANCH   1   2
BRANCH   1   5
HETATM    5  N1  UNL     1      19.727  -3.557  16.095  1.00  0.00    -0.347 N 
HETATM    6  C5  UNL     1      18.762  -3.051  15.206  1.00  0.00     0.242 C 
HETATM    7  O1  UNL     1      19.256  -2.575  14.105  1.00  0.00    -0.271 OA
ATOM      8  H1  UNL     1      19.437  -3.961  16.986  1.00  0.00     0.163 HD
BRANCH   6   9
HETATM    9  C6  UNL     1      17.303  -3.010  15.379  1.00  0.00     0.187 C 
BRANCH   9  10
HETATM   10  N2  UNL     1      17.043  -2.531  16.751  1.00  0.00    -0.323 N 
HETATM   11  C7  UNL     1      17.733  -1.458  17.323  1.00  0.00     0.362 C 
HETATM   12  O2  UNL     1      18.637  -0.793  16.736  1.00  0.00    -0.238 OA
ATOM     13  H2  UNL     1      16.329  -3.004  17.306  1.00  0.00     0.165 HD
BRANCH  11  14
HETATM   14  O3  UNL     1      17.429  -1.071  18.617  1.00  0.00    -0.294 OA
BRANCH  14  15
HETATM   15  C8  UNL     1      17.875   0.132  19.181  1.00  0.00     0.061 C 
HETATM   16  C9  UNL     1      19.352   0.200  19.398  1.00  0.00     0.046 C 
HETATM   17  C10 UNL     1      17.455   1.338  18.361  1.00  0.00     0.046 C 
HETATM   18  C11 UNL     1      17.159   0.266  20.533  1.00  0.00     0.046 C 
ENDBRANCH  14  15
ENDBRANCH  11  14
ENDBRANCH   9  10
BRANCH   9  19
HETATM   19  C12 UNL     1      16.692  -4.400  15.225  1.00  0.00    -0.015 C 
HETATM   20  C13 UNL     1      17.296  -5.265  16.307  1.00  0.00     0.018 C 
HETATM   21  C14 UNL     1      15.239  -4.288  15.521  1.00  0.00     0.012 C 
HETATM   22  C15 UNL     1      14.292  -4.813  14.486  1.00  0.00     0.001 C 
HETATM   23  C16 UNL     1      14.799  -6.124  13.924  1.00  0.00     0.000 C 
HETATM   24  C17 UNL     1      16.043  -5.750  13.161  1.00  0.00     0.001 C 
HETATM   25  C18 UNL     1      17.071  -5.025  13.924  1.00  0.00     0.012 C 
ENDBRANCH   9  19
ENDBRANCH   6   9
ENDBRANCH   1   5
BRANCH   1  26
HETATM   26  C19 UNL     1      21.635  -4.842  15.351  1.00  0.00     0.175 C 
HETATM   27  O4  UNL     1      22.540  -5.344  16.036  1.00  0.00    -0.293 OA
BRANCH  26  28
HETATM   28  C20 UNL     1      21.113  -5.605  14.222  1.00  0.00     0.192 C 
HETATM   29  C21 UNL     1      20.435  -6.901  14.677  1.00  0.00     0.208 C 
HETATM   30  N4  UNL     1      21.560  -7.799  14.926  1.00  0.00    -0.327 N 
HETATM   31  C29 UNL     1      22.562  -7.444  13.988  1.00  0.00     0.319 C 
ATOM     32  H4  UNL     1      21.614  -8.534  15.631  1.00  0.00     0.165 HD
HETATM   33  O6  UNL     1      23.537  -8.169  13.715  1.00  0.00    -0.247 OA
HETATM   34  N5  UNL     1      22.238  -6.186  13.469  1.00  0.00    -0.324 N 
HETATM   35  C30 UNL     1      22.888  -5.521  12.360  1.00  0.00     0.155 C 
BRANCH  29  36
HETATM   36  C22 UNL     1      19.660  -7.490  13.565  1.00  0.00     0.243 C 
HETATM   37  O5  UNL     1      19.494  -6.870  12.473  1.00  0.00    -0.271 OA
HETATM   38  N3  UNL     1      19.055  -8.775  13.631  1.00  0.00    -0.355 N 
ATOM     39  H3  UNL     1      19.164  -9.312  14.492  1.00  0.00     0.162 HD
BRANCH  38  40
HETATM   40  C23 UNL     1      18.301  -9.363  12.562  1.00  0.00     0.084 C 
HETATM   41  C24 UNL     1      16.825  -9.136  12.633  1.00  0.00     0.025 C 
HETATM   42  C25 UNL     1      16.270  -9.811  13.871  1.00  0.00     0.002 C 
HETATM   43  C26 UNL     1      16.501 -11.298  13.719  1.00  0.00     0.000 C 
HETATM   44  C27 UNL     1      17.979 -11.628  13.611  1.00  0.00     0.002 C 
HETATM   45  C28 UNL     1      18.635 -10.848  12.491  1.00  0.00     0.025 C 
ENDBRANCH  38  40
ENDBRANCH  29  36
ENDBRANCH  26  28
ENDBRANCH   1  26
TORSDOF 11
ENDMDL
MODEL 3
REMARK VINA RESULT: -9.141037084      1.819      8.800
REMARK  11 active torsions:
REMARK  status: ('A' for Active; 'I' for Inactive)
REMARK    1  A    between atoms: C2_2  and  C4_4 
REMARK    2  A    between atoms: C4_4  and  N1_5 
REMARK    3  A    between atoms: C4_4  and  C19_26 
REMARK       I    between atoms: N1_5  and  C5_7 
REMARK    4  A    between atoms: C5_7  and  C6_9 
REMARK    5  A    between atoms: C6_9  and  N2_10 
REMARK    6  A    between atoms: C6_9  and  C12_19 
REMARK       I    between atoms: N2_10  and  C7_12 
REMARK    7  A    between atoms: C7_12  and  O3_14 
REMARK    8  A    between atoms: O3_14  and  C8_15 
REMARK    9  A    between atoms: C19_26  and  C20_28 
REMARK   10  A    between atoms: C21_29  and  C22_30 
REMARK       I    between atoms: C22_30  and  N3_32 
REMARK   11  A    between atoms: N3_32  and  C23_34 
ROOT
HETATM    1  C4  UNL     1      17.324  -2.747  15.680  1.00  0.00     0.160 C 
ENDROOT
BRANCH   1   2
HETATM    2  C2  UNL     1      15.873  -3.179  15.787  1.00  0.00     0.007 C 
HETATM    3  C1  UNL     1      15.022  -2.722  14.641  1.00  0.00     0.012 C 
HETATM    4  C3  UNL     1      15.655  -4.593  16.164  1.00  0.00     0.012 C 
ENDBRANCH   1   2
BRANCH   1   5
HETATM    5  N1  UNL     1      18.163  -3.936  15.453  1.00  0.00    -0.347 N 
HETATM    6  C5  UNL     1      19.161  -3.916  14.464  1.00  0.00     0.242 C 
HETATM    7  O1  UNL     1      19.253  -2.789  13.829  1.00  0.00    -0.271 OA
ATOM      8  H1  UNL     1      18.018  -4.776  16.014  1.00  0.00     0.163 HD
BRANCH   6   9
HETATM    9  C6  UNL     1      20.088  -4.995  14.088  1.00  0.00     0.187 C 
BRANCH   9  10
HETATM   10  N2  UNL     1      19.333  -6.261  14.171  1.00  0.00    -0.323 N 
HETATM   11  C7  UNL     1      18.864  -6.939  13.042  1.00  0.00     0.362 C 
HETATM   12  O2  UNL     1      19.033  -6.549  11.850  1.00  0.00    -0.238 OA
ATOM     13  H2  UNL     1      19.147  -6.658  15.092  1.00  0.00     0.165 HD
BRANCH  11  14
HETATM   14  O3  UNL     1      18.164  -8.122  13.207  1.00  0.00    -0.294 OA
BRANCH  14  15
HETATM   15  C8  UNL     1      16.803  -8.168  13.539  1.00  0.00     0.061 C 
HETATM   16  C9  UNL     1      16.490  -7.686  14.919  1.00  0.00     0.046 C 
HETATM   17  C10 UNL     1      15.949  -7.391  12.555  1.00  0.00     0.046 C 
HETATM   18  C11 UNL     1      16.376  -9.637  13.408  1.00  0.00     0.046 C 
ENDBRANCH  14  15
ENDBRANCH  11  14
ENDBRANCH   9  10
BRANCH   9  19
HETATM   19  C12 UNL     1      21.267  -5.067  15.052  1.00  0.00    -0.015 C 
HETATM   20  C13 UNL     1      21.791  -6.484  14.998  1.00  0.00     0.018 C 
HETATM   21  C14 UNL     1      22.340  -4.187  14.518  1.00  0.00     0.012 C 
HETATM   22  C15 UNL     1      22.890  -3.146  15.444  1.00  0.00     0.001 C 
HETATM   23  C16 UNL     1      23.075  -3.721  16.833  1.00  0.00     0.000 C 
HETATM   24  C17 UNL     1      21.674  -3.977  17.323  1.00  0.00     0.001 C 
HETATM   25  C18 UNL     1      20.839  -4.831  16.463  1.00  0.00     0.012 C 
ENDBRANCH   9  19
ENDBRANCH   6   9
ENDBRANCH   1   5
BRANCH   1  26
HETATM   26  C19 UNL     1      17.807  -2.000  16.856  1.00  0.00     0.175 C 
HETATM   27  O4  UNL     1      17.226  -2.202  17.934  1.00  0.00    -0.293 OA
BRANCH  26  28
HETATM   28  C20 UNL     1      18.915  -1.052  16.832  1.00  0.00     0.192 C 
HETATM   29  C21 UNL     1      19.867  -1.259  18.013  1.00  0.00     0.208 C 
HETATM   30  N4  UNL     1      19.172  -0.609  19.122  1.00  0.00    -0.327 N 
HETATM   31  C29 UNL     1      18.464   0.482  18.558  1.00  0.00     0.319 C 
ATOM     32  H4  UNL     1      19.191  -0.884  20.104  1.00  0.00     0.165 HD
HETATM   33  O6  UNL     1      17.996   1.419  19.230  1.00  0.00    -0.247 OA
HETATM   34  N5  UNL     1      18.412   0.290  17.173  1.00  0.00    -0.324 N 
HETATM   35  C30 UNL     1      17.940   1.242  16.192  1.00  0.00     0.155 C 
BRANCH  29  36
HETATM   36  C22 UNL     1      21.120  -0.505  17.798  1.00  0.00     0.243 C 
HETATM   37  O5  UNL     1      21.452  -0.088  16.650  1.00  0.00    -0.271 OA
HETATM   38  N3  UNL     1      22.031  -0.191  18.845  1.00  0.00    -0.355 N 
ATOM     39  H3  UNL     1      21.803  -0.506  19.788  1.00  0.00     0.162 HD
BRANCH  38  40
HETATM   40  C23 UNL     1      23.250   0.540  18.655  1.00  0.00     0.084 C 
HETATM   41  C24 UNL     1      24.456  -0.069  19.293  1.00  0.00     0.025 C 
HETATM   42  C25 UNL     1      24.279  -0.080  20.798  1.00  0.00     0.002 C 
HETATM   43  C26 UNL     1      24.194   1.359  21.255  1.00  0.00     0.000 C 
HETATM   44  C27 UNL     1      23.008   2.076  20.635  1.00  0.00     0.002 C 
HETATM   45  C28 UNL     1      23.034   1.974  19.124  1.00  0.00     0.025 C 
ENDBRANCH  38  40
ENDBRANCH  29  36
ENDBRANCH  26  28
ENDBRANCH   1  26
TORSDOF 11
ENDMDL
MODEL 4
REMARK VINA RESULT: -9.079668771      2.676      9.367
REMARK  11 active torsions:
REMARK  status: ('A' for Active; 'I' for Inactive)
REMARK    1  A    between atoms: C2_2  and  C4_4 
REMARK    2  A    between atoms: C4_4  and  N1_5 
REMARK    3  A    between atoms: C4_4  and  C19_26 
REMARK       I    between atoms: N1_5  and  C5_7 
REMARK    4  A    between atoms: C5_7  and  C6_9 
REMARK    5  A    between atoms: C6_9  and  N2_10 
REMARK    6  A    between atoms: C6_9  and  C12_19 
REMARK       I    between atoms: N2_10  and  C7_12 
REMARK    7  A    between atoms: C7_12  and  O3_14 
REMARK    8  A    between atoms: O3_14  and  C8_15 
REMARK    9  A    between atoms: C19_26  and  C20_28 
REMARK   10  A    between atoms: C21_29  and  C22_30 
REMARK       I    between atoms: C22_30  and  N3_32 
REMARK   11  A    between atoms: N3_32  and  C23_34 
ROOT
HETATM    1  C4  UNL     1      17.899  -4.649  14.956  1.00  0.00     0.160 C 
ENDROOT
BRANCH   1   2
HETATM    2  C2  UNL     1      16.858  -5.088  15.970  1.00  0.00     0.007 C 
HETATM    3  C1  UNL     1      15.515  -4.453  15.769  1.00  0.00     0.012 C 
HETATM    4  C3  UNL     1      16.796  -6.544  16.231  1.00  0.00     0.012 C 
ENDBRANCH   1   2
BRANCH   1   5
HETATM    5  N1  UNL     1      18.961  -5.668  14.889  1.00  0.00    -0.347 N 
HETATM    6  C5  UNL     1      19.334  -6.216  13.650  1.00  0.00     0.242 C 
HETATM    7  O1  UNL     1      18.677  -5.735  12.641  1.00  0.00    -0.271 OA
ATOM      8  H1  UNL     1      19.426  -5.976  15.743  1.00  0.00     0.163 HD
BRANCH   6   9
HETATM    9  C6  UNL     1      20.358  -7.237  13.381  1.00  0.00     0.187 C 
BRANCH   9  10
HETATM   10  N2  UNL     1      19.928  -8.471  14.066  1.00  0.00    -0.323 N 
HETATM   11  C7  UNL     1      19.011  -9.368  13.510  1.00  0.00     0.362 C 
HETATM   12  O2  UNL     1      18.462  -9.222  12.378  1.00  0.00    -0.238 OA
ATOM     13  H2  UNL     1      20.317  -8.679  14.987  1.00  0.00     0.165 HD
BRANCH  11  14
HETATM   14  O3  UNL     1      18.661 -10.505  14.219  1.00  0.00    -0.294 OA
BRANCH  14  15
HETATM   15  C8  UNL     1      19.432 -11.675  14.221  1.00  0.00     0.061 C 
HETATM   16  C9  UNL     1      20.263 -11.866  12.993  1.00  0.00     0.046 C 
HETATM   17  C10 UNL     1      20.342 -11.757  15.432  1.00  0.00     0.046 C 
HETATM   18  C11 UNL     1      18.443 -12.843  14.349  1.00  0.00     0.046 C 
ENDBRANCH  14  15
ENDBRANCH  11  14
ENDBRANCH   9  10
BRANCH   9  19
HETATM   19  C12 UNL     1      21.713  -6.817  13.940  1.00  0.00    -0.015 C 
HETATM   20  C13 UNL     1      22.566  -8.062  14.002  1.00  0.00     0.018 C 
HETATM   21  C14 UNL     1      22.346  -5.907  12.948  1.00  0.00     0.012 C 
HETATM   22  C15 UNL     1      22.808  -4.573  13.448  1.00  0.00     0.001 C 
HETATM   23  C16 UNL     1      23.475  -4.718  14.800  1.00  0.00     0.000 C 
HETATM   24  C17 UNL     1      22.359  -5.117  15.729  1.00  0.00     0.001 C 
HETATM   25  C18 UNL     1      21.598  -6.315  15.341  1.00  0.00     0.012 C 
ENDBRANCH   9  19
ENDBRANCH   6   9
ENDBRANCH   1   5
BRANCH   1  26
HETATM   26  C19 UNL     1      18.481  -3.325  15.242  1.00  0.00     0.175 C 
HETATM   27  O4  UNL     1      18.991  -2.712  14.292  1.00  0.00    -0.293 OA
BRANCH  26  28
HETATM   28  C20 UNL     1      18.489  -2.697  16.559  1.00  0.00     0.192 C 
HETATM   29  C21 UNL     1      18.254  -1.186  16.470  1.00  0.00     0.208 C 
HETATM   30  N4  UNL     1      19.561  -0.666  16.076  1.00  0.00    -0.327 N 
HETATM   31  C29 UNL     1      20.522  -1.517  16.676  1.00  0.00     0.319 C 
ATOM     32  H4  UNL     1      19.746   0.147  15.487  1.00  0.00     0.165 HD
HETATM   33  O6  UNL     1      21.725  -1.221  16.795  1.00  0.00    -0.247 OA
HETATM   34  N5  UNL     1      19.866  -2.686  17.081  1.00  0.00    -0.324 N 
HETATM   35  C30 UNL     1      20.426  -3.746  17.891  1.00  0.00     0.155 C 
BRANCH  29  36
HETATM   36  C22 UNL     1      17.965  -0.634  17.811  1.00  0.00     0.243 C 
HETATM   37  O5  UNL     1      17.517  -1.363  18.744  1.00  0.00    -0.271 OA
HETATM   38  N3  UNL     1      18.168   0.731  18.152  1.00  0.00    -0.355 N 
ATOM     39  H3  UNL     1      18.530   1.356  17.431  1.00  0.00     0.162 HD
BRANCH  38  40
HETATM   40  C23 UNL     1      17.894   1.284  19.447  1.00  0.00     0.084 C 
HETATM   41  C24 UNL     1      17.513   2.729  19.447  1.00  0.00     0.025 C 
HETATM   42  C25 UNL     1      18.679   3.558  18.947  1.00  0.00     0.002 C 
HETATM   43  C26 UNL     1      19.816   3.382  19.928  1.00  0.00     0.000 C 
HETATM   44  C27 UNL     1      20.258   1.933  20.019  1.00  0.00     0.002 C 
HETATM   45  C28 UNL     1      19.093   1.023  20.350  1.00  0.00     0.025 C 
ENDBRANCH  38  40
ENDBRANCH  29  36
ENDBRANCH  26  28
ENDBRANCH   1  26
TORSDOF 11
ENDMDL
MODEL 5
REMARK VINA RESULT: -9.068824577      2.045      4.411
REMARK  11 active torsions:
REMARK  status: ('A' for Active; 'I' for Inactive)
REMARK    1  A    between atoms: C2_2  and  C4_4 
REMARK    2  A    between atoms: C4_4  and  N1_5 
REMARK    3  A    between atoms: C4_4  and  C19_26 
REMARK       I    between atoms: N1_5  and  C5_7 
REMARK    4  A    between atoms: C5_7  and  C6_9 
REMARK    5  A    between atoms: C6_9  and  N2_10 
REMARK    6  A    between atoms: C6_9  and  C12_19 
REMARK       I    between atoms: N2_10  and  C7_12 
REMARK    7  A    between atoms: C7_12  and  O3_14 
REMARK    8  A    between atoms: O3_14  and  C8_15 
REMARK    9  A    between atoms: C19_26  and  C20_28 
REMARK   10  A    between atoms: C21_29  and  C22_30 
REMARK       I    between atoms: C22_30  and  N3_32 
REMARK   11  A    between atoms: N3_32  and  C23_34 
ROOT
HETATM    1  C4  UNL     1      20.663  -4.113  15.701  1.00  0.00     0.160 C 
ENDROOT
BRANCH   1   2
HETATM    2  C2  UNL     1      22.042  -4.745  15.635  1.00  0.00     0.007 C 
HETATM    3  C1  UNL     1      22.702  -4.615  14.296  1.00  0.00     0.012 C 
HETATM    4  C3  UNL     1      22.938  -4.440  16.773  1.00  0.00     0.012 C 
ENDBRANCH   1   2
BRANCH   1   5
HETATM    5  N1  UNL     1      20.706  -2.964  16.622  1.00  0.00    -0.347 N 
HETATM    6  C5  UNL     1      20.349  -1.683  16.166  1.00  0.00     0.242 C 
HETATM    7  O1  UNL     1      19.990  -1.647  14.920  1.00  0.00    -0.271 OA
ATOM      8  H1  UNL     1      20.996  -3.098  17.591  1.00  0.00     0.163 HD
BRANCH   6   9
HETATM    9  C6  UNL     1      20.333  -0.423  16.924  1.00  0.00     0.187 C 
BRANCH   9  10
HETATM   10  N2  UNL     1      21.384  -0.525  17.955  1.00  0.00    -0.323 N 
HETATM   11  C7  UNL     1      22.747  -0.416  17.663  1.00  0.00     0.362 C 
HETATM   12  O2  UNL     1      23.218  -0.220  16.505  1.00  0.00    -0.238 OA
ATOM     13  H2  UNL     1      21.103  -0.682  18.924  1.00  0.00     0.165 HD
BRANCH  11  14
HETATM   14  O3  UNL     1      23.669  -0.523  18.690  1.00  0.00    -0.294 OA
BRANCH  14  15
HETATM   15  C8  UNL     1      23.975   0.533  19.559  1.00  0.00     0.061 C 
HETATM   16  C9  UNL     1      23.009   1.672  19.507  1.00  0.00     0.046 C 
HETATM   17  C10 UNL     1      24.093   0.071  21.000  1.00  0.00     0.046 C 
HETATM   18  C11 UNL     1      25.369   1.034  19.156  1.00  0.00     0.046 C 
ENDBRANCH  14  15
ENDBRANCH  11  14
ENDBRANCH   9  10
BRANCH   9  19
HETATM   19  C12 UNL     1      18.990  -0.215  17.616  1.00  0.00    -0.015 C 
HETATM   20  C13 UNL     1      18.129  -1.406  17.266  1.00  0.00     0.018 C 
HETATM   21  C14 UNL     1      19.227  -0.266  19.083  1.00  0.00     0.012 C 
HETATM   22  C15 UNL     1      18.731   0.893  19.892  1.00  0.00     0.001 C 
HETATM   23  C16 UNL     1      17.361   1.323  19.413  1.00  0.00     0.000 C 
HETATM   24  C17 UNL     1      17.604   1.885  18.037  1.00  0.00     0.001 C 
HETATM   25  C18 UNL     1      18.280   0.987  17.087  1.00  0.00     0.012 C 
ENDBRANCH   9  19
ENDBRANCH   6   9
ENDBRANCH   1   5
BRANCH   1  26
HETATM   26  C19 UNL     1      19.602  -5.053  16.108  1.00  0.00     0.175 C 
HETATM   27  O4  UNL     1      19.180  -4.963  17.272  1.00  0.00    -0.293 OA
BRANCH  26  28
HETATM   28  C20 UNL     1      19.022  -6.068  15.236  1.00  0.00     0.192 C 
HETATM   29  C21 UNL     1      19.245  -5.741  13.757  1.00  0.00     0.208 C 
HETATM   30  N4  UNL     1      18.221  -4.736  13.477  1.00  0.00    -0.327 N 
HETATM   31  C29 UNL     1      17.111  -5.067  14.295  1.00  0.00     0.319 C 
ATOM     32  H4  UNL     1      18.290  -3.955  12.824  1.00  0.00     0.165 HD
HETATM   33  O6  UNL     1      15.967  -4.609  14.119  1.00  0.00    -0.247 OA
HETATM   34  N5  UNL     1      17.554  -5.960  15.277  1.00  0.00    -0.324 N 
HETATM   35  C30 UNL     1      16.723  -6.687  16.212  1.00  0.00     0.155 C 
BRANCH  29  36
HETATM   36  C22 UNL     1      18.925  -6.916  12.920  1.00  0.00     0.243 C 
HETATM   37  O5  UNL     1      18.769  -6.814  11.667  1.00  0.00    -0.271 OA
HETATM   38  N3  UNL     1      18.774  -8.230  13.444  1.00  0.00    -0.355 N 
ATOM     39  H3  UNL     1      18.893  -8.360  14.449  1.00  0.00     0.162 HD
BRANCH  38  40
HETATM   40  C23 UNL     1      18.466  -9.382  12.647  1.00  0.00     0.084 C 
HETATM   41  C24 UNL     1      17.009  -9.689  12.522  1.00  0.00     0.025 C 
HETATM   42  C25 UNL     1      16.448 -10.040  13.885  1.00  0.00     0.002 C 
HETATM   43  C26 UNL     1      17.145 -11.298  14.352  1.00  0.00     0.000 C 
HETATM   44  C27 UNL     1      18.643 -11.093  14.485  1.00  0.00     0.002 C 
HETATM   45  C28 UNL     1      19.242 -10.573  13.194  1.00  0.00     0.025 C 
ENDBRANCH  38  40
ENDBRANCH  29  36
ENDBRANCH  26  28
ENDBRANCH   1  26
TORSDOF 11
ENDMDL
