MODEL 1
REMARK VINA RESULT: -9.097794750      0.000      0.000
REMARK  16 active torsions:
REMARK  status: ('A' for Active; 'I' for Inactive)
REMARK    1  A    between atoms: C2_2  and  C5_5 
REMARK    2  A    between atoms: C5_5  and  C6_6 
REMARK    3  A    between atoms: C6_6  and  O1_7 
REMARK    4  A    between atoms: C13_16  and  C14_17 
REMARK    5  A    between atoms: C14_17  and  O2_18 
REMARK    6  A    between atoms: C14_17  and  N2_20 
REMARK    7  A    between atoms: N2_20  and  O3_21 
REMARK    8  A    between atoms: N2_20  and  C15_23 
REMARK    9  A    between atoms: C15_23  and  C16_24 
REMARK   10  A    between atoms: N3_27  and  C19_28 
REMARK   11  A    between atoms: C19_28  and  C20_29 
REMARK   12  A    between atoms: C20_29  and  C21_30 
REMARK   13  A    between atoms: C21_30  and  C22_31 
REMARK   14  A    between atoms: C22_31  and  C23_32 
REMARK   15  A    between atoms: C23_32  and  N4_33 
REMARK   16  A    between atoms: C23_32  and  C24_37 
ROOT
HETATM    1  C16 UNL     1      18.472  -0.083  17.366  1.00  0.00     0.015 C 
HETATM    2  C17 UNL     1      19.663   0.185  16.457  1.00  0.00     0.051 C 
HETATM    3  C18 UNL     1      20.894  -0.256  17.147  1.00  0.00     0.068 C 
HETATM    4  N3  UNL     1      21.052   0.049  18.506  1.00  0.00    -0.354 N 
HETATM    5  C32 UNL     1      20.007   0.569  19.260  1.00  0.00     0.068 C 
HETATM    6  C33 UNL     1      18.693   0.750  18.595  1.00  0.00     0.051 C 
ENDROOT
BRANCH   1   7
HETATM    7  C15 UNL     1      18.333  -1.568  17.674  1.00  0.00     0.163 C 
BRANCH   7   8
HETATM    8  N2  UNL     1      18.073  -2.370  16.537  1.00  0.00    -0.241 N 
BRANCH   8   9
HETATM    9  C14 UNL     1      18.799  -2.800  15.448  1.00  0.00     0.151 C 
BRANCH   9  10
HETATM   10  C13 UNL     1      19.958  -3.661  15.374  1.00  0.00     0.085 C 
HETATM   11  C6  UNL     1      19.570  -5.023  14.729  1.00  0.00     0.081 C 
HETATM   12  C7  UNL     1      20.821  -5.789  14.541  1.00  0.00     0.050 C 
HETATM   13  C8  UNL     1      21.594  -6.009  15.825  1.00  0.00     0.015 C 
HETATM   14  C11 UNL     1      21.814  -5.036  13.642  1.00  0.00     0.280 C 
HETATM   15  C9  UNL     1      21.925  -4.709  16.464  1.00  0.00     0.016 C 
HETATM   16  C10 UNL     1      22.852  -3.945  15.505  1.00  0.00     0.277 C 
HETATM   17  C34 UNL     1      20.659  -3.864  16.669  1.00  0.00     0.029 C 
HETATM   18  N1  UNL     1      22.156  -3.787  14.239  1.00  0.00     0.090 N 
HETATM   19  C12 UNL     1      20.990  -2.997  14.456  1.00  0.00     0.293 C 
BRANCH  11  20
HETATM   20  C5  UNL     1      18.576  -5.653  15.623  1.00  0.00     0.048 C 
BRANCH  20  21
HETATM   21  C2  UNL     1      17.358  -6.262  15.120  1.00  0.00    -0.049 C 
HETATM   22  C1  UNL     1      17.462  -7.465  14.228  1.00  0.00     0.014 C 
HETATM   23  C3  UNL     1      16.537  -6.758  16.337  1.00  0.00     0.014 C 
HETATM   24  C4  UNL     1      16.386  -5.322  14.429  1.00  0.00     0.014 C 
ENDBRANCH  20  21
ENDBRANCH  11  20
BRANCH  11  25
HETATM   25  O1  UNL     1      19.058  -4.658  13.496  1.00  0.00    -0.388 OA
ATOM     26  H1  UNL     1      19.715  -4.342  12.887  1.00  0.00     0.210 HD
ENDBRANCH  11  25
ENDBRANCH   9  10
BRANCH   9  27
HETATM   27  O2  UNL     1      18.323  -2.321  14.303  1.00  0.00    -0.347 OA
ATOM     28  H2  UNL     1      18.103  -1.397  14.275  1.00  0.00     0.219 HD
ENDBRANCH   9  27
ENDBRANCH   8   9
BRANCH   8  29
HETATM   29  O3  UNL     1      16.725  -2.839  16.544  1.00  0.00    -0.286 OA
ATOM     30  H3  UNL     1      16.608  -3.651  17.024  1.00  0.00     0.244 HD
ENDBRANCH   8  29
ENDBRANCH   7   8
ENDBRANCH   1   7
BRANCH   4  31
HETATM   31  C19 UNL     1      22.316  -0.180  19.078  1.00  0.00     0.068 C 
BRANCH  31  32
HETATM   32  C20 UNL     1      23.337  -0.502  18.018  1.00  0.00     0.045 C 
BRANCH  32  33
HETATM   33  C21 UNL     1      24.761  -0.227  18.460  1.00  0.00     0.007 C 
BRANCH  33  34
HETATM   34  C22 UNL     1      24.870   0.078  19.939  1.00  0.00     0.038 C 
BRANCH  34  35
HETATM   35  C23 UNL     1      25.467   1.423  20.190  1.00  0.00     0.216 C 
BRANCH  35  36
HETATM   36  N4  UNL     1      25.680   2.084  18.907  1.00  0.00    -0.071 N 
ATOM     37  H43 UNL     1      25.334   1.532  18.121  1.00  0.00     0.275 HD
ATOM     38  H42 UNL     1      25.080   2.898  18.782  1.00  0.00     0.275 HD
ATOM     39  H41 UNL     1      26.671   2.311  18.819  1.00  0.00     0.275 HD
ENDBRANCH  35  36
BRANCH  35  40
HETATM   40  C24 UNL     1      24.444   2.268  20.890  1.00  0.00    -0.027 A 
HETATM   41  C25 UNL     1      23.320   2.735  20.269  1.00  0.00     0.011 A 
HETATM   42  C26 UNL     1      22.394   3.517  20.952  1.00  0.00     0.031 A 
HETATM   43  C27 UNL     1      22.582   3.844  22.274  1.00  0.00     0.042 A 
HETATM   44  N5  UNL     1      21.861   4.576  23.173  1.00  0.00    -0.365 N 
HETATM   45  C30 UNL     1      23.714   3.371  22.895  1.00  0.00    -0.008 A 
HETATM   46  C28 UNL     1      22.513   4.576  24.351  1.00  0.00     0.089 A 
ATOM     47  H5  UNL     1      20.974   5.045  22.984  1.00  0.00     0.165 HD
HETATM   48  C29 UNL     1      23.662   3.838  24.202  1.00  0.00     0.030 A 
HETATM   49  C31 UNL     1      24.640   2.597  22.231  1.00  0.00     0.023 A 
ENDBRANCH  35  40
ENDBRANCH  34  35
ENDBRANCH  33  34
ENDBRANCH  32  33
ENDBRANCH  31  32
ENDBRANCH   4  31
TORSDOF 16
ENDMDL
MODEL 2
REMARK VINA RESULT: -8.912959027      3.982     10.927
REMARK  16 active torsions:
REMARK  status: ('A' for Active; 'I' for Inactive)
REMARK    1  A    between atoms: C2_2  and  C5_5 
REMARK    2  A    between atoms: C5_5  and  C6_6 
REMARK    3  A    between atoms: C6_6  and  O1_7 
REMARK    4  A    between atoms: C13_16  and  C14_17 
REMARK    5  A    between atoms: C14_17  and  O2_18 
REMARK    6  A    between atoms: C14_17  and  N2_20 
REMARK    7  A    between atoms: N2_20  and  O3_21 
REMARK    8  A    between atoms: N2_20  and  C15_23 
REMARK    9  A    between atoms: C15_23  and  C16_24 
REMARK   10  A    between atoms: N3_27  and  C19_28 
REMARK   11  A    between atoms: C19_28  and  C20_29 
REMARK   12  A    between atoms: C20_29  and  C21_30 
REMARK   13  A    between atoms: C21_30  and  C22_31 
REMARK   14  A    between atoms: C22_31  and  C23_32 
REMARK   15  A    between atoms: C23_32  and  N4_33 
REMARK   16  A    between atoms: C23_32  and  C24_37 
ROOT
HETATM    1  C16 UNL     1      16.752  -3.761  15.814  1.00  0.00     0.015 C 
HETATM    2  C17 UNL     1      16.905  -5.269  15.952  1.00  0.00     0.051 C 
HETATM    3  C18 UNL     1      16.404  -5.910  14.717  1.00  0.00     0.068 C 
HETATM    4  N3  UNL     1      15.210  -5.444  14.151  1.00  0.00    -0.354 N 
HETATM    5  C32 UNL     1      14.601  -4.276  14.599  1.00  0.00     0.068 C 
HETATM    6  C33 UNL     1      15.279  -3.505  15.669  1.00  0.00     0.051 C 
ENDROOT
BRANCH   1   7
HETATM    7  C15 UNL     1      17.564  -3.225  14.642  1.00  0.00     0.163 C 
BRANCH   7   8
HETATM    8  N2  UNL     1      18.753  -2.559  15.022  1.00  0.00    -0.241 N 
BRANCH   8   9
HETATM    9  C14 UNL     1      20.060  -2.552  14.587  1.00  0.00     0.151 C 
BRANCH   9  10
HETATM   10  C13 UNL     1      21.086  -3.566  14.680  1.00  0.00     0.085 C 
HETATM   11  C6  UNL     1      21.722  -3.554  16.101  1.00  0.00     0.081 C 
HETATM   12  C7  UNL     1      22.644  -4.707  16.176  1.00  0.00     0.050 C 
HETATM   13  C8  UNL     1      23.721  -4.691  15.112  1.00  0.00     0.015 C 
HETATM   14  C11 UNL     1      21.908  -6.034  15.931  1.00  0.00     0.280 C 
HETATM   15  C9  UNL     1      23.114  -4.657  13.755  1.00  0.00     0.016 C 
HETATM   16  C10 UNL     1      22.318  -5.960  13.572  1.00  0.00     0.277 C 
HETATM   17  C34 UNL     1      22.132  -3.483  13.627  1.00  0.00     0.029 C 
HETATM   18  N1  UNL     1      21.324  -6.030  14.630  1.00  0.00     0.090 N 
HETATM   19  C12 UNL     1      20.426  -4.935  14.485  1.00  0.00     0.293 C 
BRANCH  11  20
HETATM   20  C5  UNL     1      22.356  -2.230  16.275  1.00  0.00     0.048 C 
BRANCH  20  21
HETATM   21  C2  UNL     1      22.064  -1.376  17.413  1.00  0.00    -0.049 C 
HETATM   22  C1  UNL     1      21.357  -1.963  18.600  1.00  0.00     0.014 C 
HETATM   23  C3  UNL     1      23.413  -0.869  17.983  1.00  0.00     0.014 C 
HETATM   24  C4  UNL     1      21.333  -0.082  17.098  1.00  0.00     0.014 C 
ENDBRANCH  20  21
ENDBRANCH  11  20
BRANCH  11  25
HETATM   25  O1  UNL     1      20.639  -3.768  16.936  1.00  0.00    -0.388 OA
ATOM     26  H1  UNL     1      20.833  -4.326  17.680  1.00  0.00     0.210 HD
ENDBRANCH  11  25
ENDBRANCH   9  10
BRANCH   9  27
HETATM   27  O2  UNL     1      20.387  -1.408  13.990  1.00  0.00    -0.347 OA
ATOM     28  H2  UNL     1      21.308  -1.258  13.812  1.00  0.00     0.219 HD
ENDBRANCH   9  27
ENDBRANCH   8   9
BRANCH   8  29
HETATM   29  O3  UNL     1      18.516  -1.686  16.127  1.00  0.00    -0.286 OA
ATOM     30  H3  UNL     1      18.623  -2.107  16.972  1.00  0.00     0.244 HD
ENDBRANCH   8  29
ENDBRANCH   7   8
ENDBRANCH   1   7
BRANCH   4  31
HETATM   31  C19 UNL     1      14.641  -6.208  13.117  1.00  0.00     0.068 C 
BRANCH  31  32
HETATM   32  C20 UNL     1      15.167  -7.620  13.139  1.00  0.00     0.045 C 
BRANCH  32  33
HETATM   33  C21 UNL     1      14.909  -8.371  11.848  1.00  0.00     0.007 C 
BRANCH  33  34
HETATM   34  C22 UNL     1      14.341  -9.756  12.075  1.00  0.00     0.038 C 
BRANCH  34  35
HETATM   35  C23 UNL     1      15.245 -10.824  11.555  1.00  0.00     0.216 C 
BRANCH  35  36
HETATM   36  N4  UNL     1      15.987 -10.292  10.418  1.00  0.00    -0.071 N 
ATOM     37  H43 UNL     1      16.880  -9.880  10.693  1.00  0.00     0.275 HD
ATOM     38  H42 UNL     1      16.352 -11.025   9.811  1.00  0.00     0.275 HD
ATOM     39  H41 UNL     1      15.390  -9.632   9.919  1.00  0.00     0.275 HD
ENDBRANCH  35  36
BRANCH  35  40
HETATM   40  C24 UNL     1      16.287 -11.105  12.596  1.00  0.00    -0.027 A 
HETATM   41  C25 UNL     1      16.013 -11.778  13.754  1.00  0.00     0.011 A 
HETATM   42  C26 UNL     1      17.007 -12.019  14.698  1.00  0.00     0.031 A 
HETATM   43  C27 UNL     1      18.296 -11.587  14.493  1.00  0.00     0.042 A 
HETATM   44  N5  UNL     1      19.445 -11.678  15.226  1.00  0.00    -0.365 N 
HETATM   45  C30 UNL     1      18.567 -10.911  13.327  1.00  0.00    -0.008 A 
HETATM   46  C28 UNL     1      20.438 -11.074  14.547  1.00  0.00     0.089 A 
ATOM     47  H5  UNL     1      19.536 -12.129  16.137  1.00  0.00     0.165 HD
HETATM   48  C29 UNL     1      19.918 -10.592  13.369  1.00  0.00     0.030 A 
HETATM   49  C31 UNL     1      17.593 -10.665  12.384  1.00  0.00     0.023 A 
ENDBRANCH  35  40
ENDBRANCH  34  35
ENDBRANCH  33  34
ENDBRANCH  32  33
ENDBRANCH  31  32
ENDBRANCH   4  31
TORSDOF 16
ENDMDL
MODEL 3
REMARK VINA RESULT: -8.829250625      2.946     10.932
REMARK  16 active torsions:
REMARK  status: ('A' for Active; 'I' for Inactive)
REMARK    1  A    between atoms: C2_2  and  C5_5 
REMARK    2  A    between atoms: C5_5  and  C6_6 
REMARK    3  A    between atoms: C6_6  and  O1_7 
REMARK    4  A    between atoms: C13_16  and  C14_17 
REMARK    5  A    between atoms: C14_17  and  O2_18 
REMARK    6  A    between atoms: C14_17  and  N2_20 
REMARK    7  A    between atoms: N2_20  and  O3_21 
REMARK    8  A    between atoms: N2_20  and  C15_23 
REMARK    9  A    between atoms: C15_23  and  C16_24 
REMARK   10  A    between atoms: N3_27  and  C19_28 
REMARK   11  A    between atoms: C19_28  and  C20_29 
REMARK   12  A    between atoms: C20_29  and  C21_30 
REMARK   13  A    between atoms: C21_30  and  C22_31 
REMARK   14  A    between atoms: C22_31  and  C23_32 
REMARK   15  A    between atoms: C23_32  and  N4_33 
REMARK   16  A    between atoms: C23_32  and  C24_37 
ROOT
HETATM    1  C16 UNL     1      21.346  -3.678  15.327  1.00  0.00     0.015 C 
HETATM    2  C17 UNL     1      20.323  -2.997  14.429  1.00  0.00     0.051 C 
HETATM    3  C18 UNL     1      18.998  -3.069  15.083  1.00  0.00     0.068 C 
HETATM    4  N3  UNL     1      18.609  -4.271  15.690  1.00  0.00    -0.354 N 
HETATM    5  C32 UNL     1      19.506  -5.318  15.869  1.00  0.00     0.068 C 
HETATM    6  C33 UNL     1      20.911  -5.111  15.440  1.00  0.00     0.051 C 
ENDROOT
BRANCH   1   7
HETATM    7  C15 UNL     1      21.449  -2.982  16.678  1.00  0.00     0.163 C 
BRANCH   7   8
HETATM    8  N2  UNL     1      21.802  -1.614  16.595  1.00  0.00    -0.241 N 
BRANCH   8   9
HETATM    9  C14 UNL     1      21.136  -0.415  16.728  1.00  0.00     0.151 C 
BRANCH   9  10
HETATM   10  C13 UNL     1      20.187   0.025  17.726  1.00  0.00     0.085 C 
HETATM   11  C6  UNL     1      20.901   0.908  18.790  1.00  0.00     0.081 C 
HETATM   12  C7  UNL     1      19.853   1.448  19.683  1.00  0.00     0.050 C 
HETATM   13  C8  UNL     1      19.018   0.377  20.354  1.00  0.00     0.015 C 
HETATM   14  C11 UNL     1      18.822   2.279  18.904  1.00  0.00     0.280 C 
HETATM   15  C9  UNL     1      18.372  -0.494  19.337  1.00  0.00     0.016 C 
HETATM   16  C10 UNL     1      17.409   0.383  18.522  1.00  0.00     0.277 C 
HETATM   17  C34 UNL     1      19.417  -1.071  18.370  1.00  0.00     0.029 C 
HETATM   18  N1  UNL     1      18.180   1.463  17.927  1.00  0.00     0.090 N 
HETATM   19  C12 UNL     1      19.137   0.901  17.034  1.00  0.00     0.293 C 
BRANCH  11  20
HETATM   20  C5  UNL     1      21.909   0.052  19.450  1.00  0.00     0.048 C 
BRANCH  20  21
HETATM   21  C2  UNL     1      23.240   0.532  19.773  1.00  0.00    -0.049 C 
HETATM   22  C1  UNL     1      23.423   1.975  20.144  1.00  0.00     0.014 C 
HETATM   23  C3  UNL     1      23.738  -0.248  21.017  1.00  0.00     0.014 C 
HETATM   24  C4  UNL     1      24.318   0.233  18.746  1.00  0.00     0.014 C 
ENDBRANCH  20  21
ENDBRANCH  11  20
BRANCH  11  25
HETATM   25  O1  UNL     1      21.447   1.934  18.039  1.00  0.00    -0.388 OA
ATOM     26  H1  UNL     1      21.739   1.664  17.177  1.00  0.00     0.210 HD
ENDBRANCH  11  25
ENDBRANCH   9  10
BRANCH   9  27
HETATM   27  O2  UNL     1      21.447   0.445  15.763  1.00  0.00    -0.347 OA
ATOM     28  H2  UNL     1      21.950   0.112  15.028  1.00  0.00     0.219 HD
ENDBRANCH   9  27
ENDBRANCH   8   9
BRANCH   8  29
HETATM   29  O3  UNL     1      23.192  -1.465  16.305  1.00  0.00    -0.286 OA
ATOM     30  H3  UNL     1      23.682  -2.277  16.368  1.00  0.00     0.244 HD
ENDBRANCH   8  29
ENDBRANCH   7   8
ENDBRANCH   1   7
BRANCH   4  31
HETATM   31  C19 UNL     1      17.269  -4.384  16.103  1.00  0.00     0.068 C 
BRANCH  31  32
HETATM   32  C20 UNL     1      16.516  -3.105  15.844  1.00  0.00     0.045 C 
BRANCH  32  33
HETATM   33  C21 UNL     1      15.061  -3.335  15.484  1.00  0.00     0.007 C 
BRANCH  33  34
HETATM   34  C22 UNL     1      14.887  -4.051  14.161  1.00  0.00     0.038 C 
BRANCH  34  35
HETATM   35  C23 UNL     1      14.096  -5.308  14.306  1.00  0.00     0.216 C 
BRANCH  35  36
HETATM   36  N4  UNL     1      12.836  -5.151  13.588  1.00  0.00    -0.071 N 
ATOM     37  H43 UNL     1      12.950  -4.659  12.701  1.00  0.00     0.275 HD
ATOM     38  H42 UNL     1      12.485  -6.033  13.216  1.00  0.00     0.275 HD
ATOM     39  H41 UNL     1      12.165  -4.692  14.206  1.00  0.00     0.275 HD
ENDBRANCH  35  36
BRANCH  35  40
HETATM   40  C24 UNL     1      14.817  -6.403  13.577  1.00  0.00    -0.027 A 
HETATM   41  C25 UNL     1      16.173  -6.408  13.405  1.00  0.00     0.011 A 
HETATM   42  C26 UNL     1      16.807  -7.441  12.721  1.00  0.00     0.031 A 
HETATM   43  C27 UNL     1      16.087  -8.490  12.200  1.00  0.00     0.042 A 
HETATM   44  N5  UNL     1      16.433  -9.611  11.500  1.00  0.00    -0.365 N 
HETATM   45  C30 UNL     1      14.724  -8.481  12.376  1.00  0.00    -0.008 A 
HETATM   46  C28 UNL     1      15.316 -10.313  11.231  1.00  0.00     0.089 A 
ATOM     47  H5  UNL     1      17.380  -9.874  11.227  1.00  0.00     0.165 HD
HETATM   48  C29 UNL     1      14.246  -9.632  11.763  1.00  0.00     0.030 A 
HETATM   49  C31 UNL     1      14.082  -7.465  13.049  1.00  0.00     0.023 A 
ENDBRANCH  35  40
ENDBRANCH  34  35
ENDBRANCH  33  34
ENDBRANCH  32  33
ENDBRANCH  31  32
ENDBRANCH   4  31
TORSDOF 16
ENDMDL
MODEL 4
REMARK VINA RESULT: -8.787735874      1.756      3.674
REMARK  16 active torsions:
REMARK  status: ('A' for Active; 'I' for Inactive)
REMARK    1  A    between atoms: C2_2  and  C5_5 
REMARK    2  A    between atoms: C5_5  and  C6_6 
REMARK    3  A    between atoms: C6_6  and  O1_7 
REMARK    4  A    between atoms: C13_16  and  C14_17 
REMARK    5  A    between atoms: C14_17  and  O2_18 
REMARK    6  A    between atoms: C14_17  and  N2_20 
REMARK    7  A    between atoms: N2_20  and  O3_21 
REMARK    8  A    between atoms: N2_20  and  C15_23 
REMARK    9  A    between atoms: C15_23  and  C16_24 
REMARK   10  A    between atoms: N3_27  and  C19_28 
REMARK   11  A    between atoms: C19_28  and  C20_29 
REMARK   12  A    between atoms: C20_29  and  C21_30 
REMARK   13  A    between atoms: C21_30  and  C22_31 
REMARK   14  A    between atoms: C22_31  and  C23_32 
REMARK   15  A    between atoms: C23_32  and  N4_33 
REMARK   16  A    between atoms: C23_32  and  C24_37 
ROOT
HETATM    1  C16 UNL     1      18.516  -1.022  17.334  1.00  0.00     0.015 C 
HETATM    2  C17 UNL     1      17.780   0.074  16.577  1.00  0.00     0.051 C 
HETATM    3  C18 UNL     1      18.013   1.363  17.266  1.00  0.00     0.068 C 
HETATM    4  N3  UNL     1      17.945   1.403  18.665  1.00  0.00    -0.354 N 
HETATM    5  C32 UNL     1      17.866   0.239  19.421  1.00  0.00     0.068 C 
HETATM    6  C33 UNL     1      17.905  -1.060  18.705  1.00  0.00     0.051 C 
ENDROOT
BRANCH   1   7
HETATM    7  C15 UNL     1      20.016  -0.767  17.361  1.00  0.00     0.163 C 
BRANCH   7   8
HETATM    8  N2  UNL     1      20.639  -0.862  16.093  1.00  0.00    -0.241 N 
BRANCH   8   9
HETATM    9  C14 UNL     1      20.705  -1.811  15.096  1.00  0.00     0.151 C 
BRANCH   9  10
HETATM   10  C13 UNL     1      21.244  -3.152  15.112  1.00  0.00     0.085 C 
HETATM   11  C6  UNL     1      20.132  -4.179  14.751  1.00  0.00     0.081 C 
HETATM   12  C7  UNL     1      20.782  -5.502  14.632  1.00  0.00     0.050 C 
HETATM   13  C8  UNL     1      21.516  -5.931  15.885  1.00  0.00     0.015 C 
HETATM   14  C11 UNL     1      21.875  -5.498  13.552  1.00  0.00     0.280 C 
HETATM   15  C9  UNL     1      22.548  -4.927  16.255  1.00  0.00     0.016 C 
HETATM   16  C10 UNL     1      23.582  -4.888  15.118  1.00  0.00     0.277 C 
HETATM   17  C34 UNL     1      21.928  -3.527  16.377  1.00  0.00     0.029 C 
HETATM   18  N1  UNL     1      22.884  -4.549  13.889  1.00  0.00     0.090 N 
HETATM   19  C12 UNL     1      22.323  -3.247  14.027  1.00  0.00     0.293 C 
BRANCH  11  20
HETATM   20  C5  UNL     1      19.099  -4.079  15.804  1.00  0.00     0.048 C 
BRANCH  20  21
HETATM   21  C2  UNL     1      17.737  -4.538  15.598  1.00  0.00    -0.049 C 
HETATM   22  C1  UNL     1      17.301  -4.923  14.214  1.00  0.00     0.014 C 
HETATM   23  C3  UNL     1      17.540  -5.829  16.433  1.00  0.00     0.014 C 
HETATM   24  C4  UNL     1      16.645  -3.629  16.135  1.00  0.00     0.014 C 
ENDBRANCH  20  21
ENDBRANCH  11  20
BRANCH  11  25
HETATM   25  O1  UNL     1      19.701  -3.759  13.505  1.00  0.00    -0.388 OA
ATOM     26  H1  UNL     1      19.033  -4.316  13.122  1.00  0.00     0.210 HD
ENDBRANCH  11  25
ENDBRANCH   9  10
BRANCH   9  27
HETATM   27  O2  UNL     1      20.175  -1.381  13.954  1.00  0.00    -0.347 OA
ATOM     28  H2  UNL     1      20.676  -0.747  13.454  1.00  0.00     0.219 HD
ENDBRANCH   9  27
ENDBRANCH   8   9
BRANCH   8  29
HETATM   29  O3  UNL     1      21.370   0.328  15.797  1.00  0.00    -0.286 OA
ATOM     30  H3  UNL     1      21.106   1.076  16.321  1.00  0.00     0.244 HD
ENDBRANCH   8  29
ENDBRANCH   7   8
ENDBRANCH   1   7
BRANCH   4  31
HETATM   31  C19 UNL     1      17.945   2.668  19.277  1.00  0.00     0.068 C 
BRANCH  31  32
HETATM   32  C20 UNL     1      18.051   2.541  20.775  1.00  0.00     0.045 C 
BRANCH  32  33
HETATM   33  C21 UNL     1      19.451   2.795  21.297  1.00  0.00     0.007 C 
BRANCH  33  34
HETATM   34  C22 UNL     1      20.453   3.057  20.192  1.00  0.00     0.038 C 
BRANCH  34  35
HETATM   35  C23 UNL     1      21.737   3.605  20.721  1.00  0.00     0.216 C 
BRANCH  35  36
HETATM   36  N4  UNL     1      21.755   3.433  22.169  1.00  0.00    -0.071 N 
ATOM     37  H43 UNL     1      22.025   4.285  22.661  1.00  0.00     0.275 HD
ATOM     38  H42 UNL     1      20.820   3.334  22.563  1.00  0.00     0.275 HD
ATOM     39  H41 UNL     1      22.360   2.643  22.395  1.00  0.00     0.275 HD
ENDBRANCH  35  36
BRANCH  35  40
HETATM   40  C24 UNL     1      22.857   2.743  20.218  1.00  0.00    -0.027 A 
HETATM   41  C25 UNL     1      24.173   3.037  20.440  1.00  0.00     0.011 A 
HETATM   42  C26 UNL     1      25.185   2.214  19.956  1.00  0.00     0.031 A 
HETATM   43  C27 UNL     1      24.891   1.077  19.240  1.00  0.00     0.042 A 
HETATM   44  N5  UNL     1      25.657   0.108  18.658  1.00  0.00    -0.365 N 
HETATM   45  C30 UNL     1      23.565   0.786  19.020  1.00  0.00    -0.008 A 
HETATM   46  C28 UNL     1      24.844  -0.792  18.074  1.00  0.00     0.089 A 
ATOM     47  H5  UNL     1      26.677   0.072  18.664  1.00  0.00     0.165 HD
HETATM   48  C29 UNL     1      23.545  -0.393  18.284  1.00  0.00     0.030 A 
HETATM   49  C31 UNL     1      22.553   1.592  19.491  1.00  0.00     0.023 A 
ENDBRANCH  35  40
ENDBRANCH  34  35
ENDBRANCH  33  34
ENDBRANCH  32  33
ENDBRANCH  31  32
ENDBRANCH   4  31
TORSDOF 16
ENDMDL
MODEL 5
REMARK VINA RESULT: -8.685865628      2.605      5.535
REMARK  16 active torsions:
REMARK  status: ('A' for Active; 'I' for Inactive)
REMARK    1  A    between atoms: C2_2  and  C5_5 
REMARK    2  A    between atoms: C5_5  and  C6_6 
REMARK    3  A    between atoms: C6_6  and  O1_7 
REMARK    4  A    between atoms: C13_16  and  C14_17 
REMARK    5  A    between atoms: C14_17  and  O2_18 
REMARK    6  A    between atoms: C14_17  and  N2_20 
REMARK    7  A    between atoms: N2_20  and  O3_21 
REMARK    8  A    between atoms: N2_20  and  C15_23 
REMARK    9  A    between atoms: C15_23  and  C16_24 
REMARK   10  A    between atoms: N3_27  and  C19_28 
REMARK   11  A    between atoms: C19_28  and  C20_29 
REMARK   12  A    between atoms: C20_29  and  C21_30 
REMARK   13  A    between atoms: C21_30  and  C22_31 
REMARK   14  A    between atoms: C22_31  and  C23_32 
REMARK   15  A    between atoms: C23_32  and  N4_33 
REMARK   16  A    between atoms: C23_32  and  C24_37 
ROOT
HETATM    1  C16 UNL     1      21.984  -4.731  14.534  1.00  0.00     0.015 C 
HETATM    2  C17 UNL     1      22.596  -4.525  15.913  1.00  0.00     0.051 C 
HETATM    3  C18 UNL     1      21.505  -4.301  16.886  1.00  0.00     0.068 C 
HETATM    4  N3  UNL     1      20.446  -3.455  16.530  1.00  0.00    -0.354 N 
HETATM    5  C32 UNL     1      20.294  -2.990  15.228  1.00  0.00     0.068 C 
HETATM    6  C33 UNL     1      21.264  -3.455  14.206  1.00  0.00     0.051 C 
ENDROOT
BRANCH   1   7
HETATM    7  C15 UNL     1      21.072  -5.949  14.509  1.00  0.00     0.163 C 
BRANCH   7   8
HETATM    8  N2  UNL     1      20.411  -6.147  13.273  1.00  0.00    -0.241 N 
BRANCH   8   9
HETATM    9  C14 UNL     1      19.103  -6.306  12.871  1.00  0.00     0.151 C 
BRANCH   9  10
HETATM   10  C13 UNL     1      17.875  -6.266  13.633  1.00  0.00     0.085 C 
HETATM   11  C6  UNL     1      17.376  -7.712  13.918  1.00  0.00     0.081 C 
HETATM   12  C7  UNL     1      16.214  -7.602  14.827  1.00  0.00     0.050 C 
HETATM   13  C8  UNL     1      15.091  -6.751  14.271  1.00  0.00     0.015 C 
HETATM   14  C11 UNL     1      16.590  -6.898  16.140  1.00  0.00     0.280 C 
HETATM   15  C9  UNL     1      15.578  -5.383  13.956  1.00  0.00     0.016 C 
HETATM   16  C10 UNL     1      16.023  -4.736  15.278  1.00  0.00     0.277 C 
HETATM   17  C34 UNL     1      16.799  -5.440  13.025  1.00  0.00     0.029 C 
HETATM   18  N1  UNL     1      17.052  -5.577  15.865  1.00  0.00     0.090 N 
HETATM   19  C12 UNL     1      18.172  -5.609  14.985  1.00  0.00     0.293 C 
BRANCH  11  20
HETATM   20  C5  UNL     1      17.092  -8.334  12.608  1.00  0.00     0.048 C 
BRANCH  20  21
HETATM   21  C2  UNL     1      16.807  -9.751  12.469  1.00  0.00    -0.049 C 
HETATM   22  C1  UNL     1      16.203 -10.489  13.629  1.00  0.00     0.014 C 
HETATM   23  C3  UNL     1      15.770  -9.917  11.329  1.00  0.00     0.014 C 
HETATM   24  C4  UNL     1      17.962 -10.614  11.990  1.00  0.00     0.014 C 
ENDBRANCH  20  21
ENDBRANCH  11  20
BRANCH  11  25
HETATM   25  O1  UNL     1      18.439  -8.290  14.591  1.00  0.00    -0.388 OA
ATOM     26  H1  UNL     1      18.600  -7.913  15.448  1.00  0.00     0.210 HD
ENDBRANCH  11  25
ENDBRANCH   9  10
BRANCH   9  27
HETATM   27  O2  UNL     1      19.000  -6.530  11.563  1.00  0.00    -0.347 OA
ATOM     28  H2  UNL     1      19.785  -6.418  11.040  1.00  0.00     0.219 HD
ENDBRANCH   9  27
ENDBRANCH   8   9
BRANCH   8  29
HETATM   29  O3  UNL     1      21.347  -6.186  12.196  1.00  0.00    -0.286 OA
ATOM     30  H3  UNL     1      22.168  -6.609  12.422  1.00  0.00     0.244 HD
ENDBRANCH   8  29
ENDBRANCH   7   8
ENDBRANCH   1   7
BRANCH   4  31
HETATM   31  C19 UNL     1      19.546  -3.082  17.543  1.00  0.00     0.068 C 
BRANCH  31  32
HETATM   32  C20 UNL     1      18.385  -2.307  16.975  1.00  0.00     0.045 C 
BRANCH  32  33
HETATM   33  C21 UNL     1      17.780  -1.331  17.964  1.00  0.00     0.007 C 
BRANCH  33  34
HETATM   34  C22 UNL     1      18.822  -0.603  18.787  1.00  0.00     0.038 C 
BRANCH  34  35
HETATM   35  C23 UNL     1      19.510   0.463  18.001  1.00  0.00     0.216 C 
BRANCH  35  36
HETATM   36  N4  UNL     1      19.315   1.740  18.679  1.00  0.00    -0.071 N 
ATOM     37  H43 UNL     1      19.000   2.475  18.045  1.00  0.00     0.275 HD
ATOM     38  H42 UNL     1      18.506   1.733  19.300  1.00  0.00     0.275 HD
ATOM     39  H41 UNL     1      20.178   1.986  19.164  1.00  0.00     0.275 HD
ENDBRANCH  35  36
BRANCH  35  40
HETATM   40  C24 UNL     1      20.988   0.216  18.068  1.00  0.00    -0.027 A 
HETATM   41  C25 UNL     1      21.715  -0.211  16.993  1.00  0.00     0.011 A 
HETATM   42  C26 UNL     1      23.086  -0.431  17.095  1.00  0.00     0.031 A 
HETATM   43  C27 UNL     1      23.750  -0.224  18.281  1.00  0.00     0.042 A 
HETATM   44  N5  UNL     1      25.054  -0.356  18.664  1.00  0.00    -0.365 N 
HETATM   45  C30 UNL     1      23.013   0.205  19.360  1.00  0.00    -0.008 A 
HETATM   46  C28 UNL     1      25.159  -0.017  19.962  1.00  0.00     0.089 A 
ATOM     47  H5  UNL     1      25.822  -0.661  18.064  1.00  0.00     0.165 HD
HETATM   48  C29 UNL     1      23.909   0.333  20.414  1.00  0.00     0.030 A 
HETATM   49  C31 UNL     1      21.656   0.426  19.275  1.00  0.00     0.023 A 
ENDBRANCH  35  40
ENDBRANCH  34  35
ENDBRANCH  33  34
ENDBRANCH  32  33
ENDBRANCH  31  32
ENDBRANCH   4  31
TORSDOF 16
ENDMDL
