MODEL 1
REMARK VINA RESULT: -8.847683847      0.000      0.000
REMARK  12 active torsions:
REMARK  status: ('A' for Active; 'I' for Inactive)
REMARK    1  A    between atoms: C2_2  and  C3_3 
REMARK    2  A    between atoms: C3_3  and  C5_5 
REMARK    3  A    between atoms: C17_17  and  O1_18 
REMARK    4  A    between atoms: C20_22  and  O2_23 
REMARK    5  A    between atoms: O2_23  and  C21_24 
REMARK    6  A    between atoms: C21_24  and  C22_25 
REMARK    7  A    between atoms: C22_25  and  C23_26 
REMARK    8  A    between atoms: C23_26  and  N1_27 
REMARK       I    between atoms: N1_27  and  C24_29 
REMARK       I    between atoms: C24_29  and  N4_34 
REMARK    9  A    between atoms: N4_34  and  C26_36 
REMARK   10  A    between atoms: C27_37  and  O3_38 
REMARK   11  A    between atoms: C27_37  and  N5_40 
REMARK   12  A    between atoms: C31_44  and  O4_45 
ROOT
HETATM    1  N1  UNL     1      19.274  -0.496  18.572  1.00  0.00    -0.225 N 
ATOM      2  H1  UNL     1      19.464  -1.451  18.877  1.00  0.00     0.177 HD
HETATM    3  C24 UNL     1      19.655   0.587  19.392  1.00  0.00     0.687 C 
HETATM    4  N2  UNL     1      18.815   1.266  20.042  1.00  0.00    -0.126 N 
ATOM      5  H2  UNL     1      17.822   1.039  19.985  1.00  0.00     0.197 HD
HETATM    6  C25 UNL     1      19.244   2.327  20.838  1.00  0.00     0.196 C 
HETATM    7  N3  UNL     1      19.615   3.209  21.487  1.00  0.00    -0.171 NA
HETATM    8  N4  UNL     1      21.076   0.892  19.469  1.00  0.00    -0.197 N 
ATOM      9  H4  UNL     1      21.439   1.553  20.155  1.00  0.00     0.183 HD
ENDROOT
BRANCH   1  10
HETATM   10  C23 UNL     1      18.625  -0.269  17.315  1.00  0.00     0.140 C 
BRANCH  10  11
HETATM   11  C22 UNL     1      18.885  -1.365  16.327  1.00  0.00     0.046 C 
BRANCH  11  12
HETATM   12  C21 UNL     1      19.928  -0.903  15.338  1.00  0.00     0.169 C 
BRANCH  12  13
HETATM   13  O2  UNL     1      20.014  -1.849  14.326  1.00  0.00    -0.385 OA
BRANCH  13  14
HETATM   14  C20 UNL     1      19.593  -3.097  14.693  1.00  0.00     0.129 C 
HETATM   15  C19 UNL     1      20.723  -4.059  14.634  1.00  0.00     0.026 C 
HETATM   16  C13 UNL     1      20.294  -5.288  15.397  1.00  0.00    -0.031 C 
HETATM   17  C18 UNL     1      22.062  -3.552  15.008  1.00  0.00     0.039 C 
HETATM   18  C12 UNL     1      18.871  -5.674  15.229  1.00  0.00     0.029 C 
HETATM   19  C14 UNL     1      20.579  -5.024  16.883  1.00  0.00     0.016 C 
HETATM   20  C15 UNL     1      21.286  -6.388  15.009  1.00  0.00     0.012 C 
HETATM   21  C11 UNL     1      18.098  -5.628  16.524  1.00  0.00     0.009 C 
HETATM   22  C31 UNL     1      18.166  -5.096  14.043  1.00  0.00     0.069 C 
HETATM   23  C10 UNL     1      16.689  -6.170  16.321  1.00  0.00     0.010 C 
HETATM   24  C8  UNL     1      15.961  -5.463  15.270  1.00  0.00    -0.037 C 
HETATM   25  C7  UNL     1      14.709  -6.189  14.838  1.00  0.00     0.010 C 
HETATM   26  C9  UNL     1      15.464  -4.139  15.882  1.00  0.00     0.015 C 
HETATM   27  C32 UNL     1      16.702  -5.245  13.980  1.00  0.00     0.037 C 
HETATM   28  C6  UNL     1      14.537  -5.741  13.386  1.00  0.00     0.010 C 
HETATM   29  C5  UNL     1      16.028  -5.917  12.859  1.00  0.00     0.025 C 
HETATM   30  C30 UNL     1      18.535  -3.640  13.769  1.00  0.00     0.071 C 
HETATM   31  C16 UNL     1      22.418  -5.886  14.178  1.00  0.00     0.032 C 
HETATM   32  C17 UNL     1      23.075  -4.646  14.764  1.00  0.00     0.118 C 
BRANCH  29  33
HETATM   33  C3  UNL     1      16.168  -7.290  12.491  1.00  0.00    -0.064 C 
HETATM   34  C4  UNL     1      15.359  -7.970  11.729  1.00  0.00     0.019 C 
BRANCH  33  35
HETATM   35  C2  UNL     1      17.282  -8.074  13.010  1.00  0.00    -0.004 C 
HETATM   36  C1  UNL     1      17.102  -8.969  13.942  1.00  0.00     0.012 C 
ENDBRANCH  33  35
ENDBRANCH  29  33
BRANCH  22  37
HETATM   37  O4  UNL     1      18.680  -5.809  12.923  1.00  0.00    -0.389 OA
ATOM     38  H4  UNL     1      17.942  -5.908  12.333  1.00  0.00     0.210 HD
ENDBRANCH  22  37
BRANCH  32  39
HETATM   39  O1  UNL     1      24.065  -4.264  13.846  1.00  0.00    -0.396 OA
ATOM     40  H1  UNL     1      24.588  -3.604  14.286  1.00  0.00     0.210 HD
ENDBRANCH  32  39
ENDBRANCH  13  14
ENDBRANCH  12  13
ENDBRANCH  11  12
ENDBRANCH  10  11
ENDBRANCH   1  10
BRANCH   8  41
HETATM   41  C26 UNL     1      21.924   0.245  18.569  1.00  0.00     0.161 C 
HETATM   42  C27 UNL     1      23.348   0.225  18.715  1.00  0.00     0.153 C 
BRANCH  42  43
HETATM   43  O3  UNL     1      24.002  -0.437  17.779  1.00  0.00    -0.345 OA
ATOM     44  H3  UNL     1      24.876  -0.116  17.589  1.00  0.00     0.219 HD
ENDBRANCH  42  43
BRANCH  42  45
HETATM   45  N5  UNL     1      24.165   0.792  19.688  1.00  0.00    -0.370 N 
HETATM   46  C28 UNL     1      24.108   0.197  21.069  1.00  0.00     0.151 C 
HETATM   47  C29 UNL     1      25.087   1.882  19.586  1.00  0.00     0.151 C 
ENDBRANCH  42  45
ENDBRANCH   8  41
TORSDOF 12
ENDMDL
MODEL 2
REMARK VINA RESULT: -8.791498065      1.461      2.713
REMARK  12 active torsions:
REMARK  status: ('A' for Active; 'I' for Inactive)
REMARK    1  A    between atoms: C2_2  and  C3_3 
REMARK    2  A    between atoms: C3_3  and  C5_5 
REMARK    3  A    between atoms: C17_17  and  O1_18 
REMARK    4  A    between atoms: C20_22  and  O2_23 
REMARK    5  A    between atoms: O2_23  and  C21_24 
REMARK    6  A    between atoms: C21_24  and  C22_25 
REMARK    7  A    between atoms: C22_25  and  C23_26 
REMARK    8  A    between atoms: C23_26  and  N1_27 
REMARK       I    between atoms: N1_27  and  C24_29 
REMARK       I    between atoms: C24_29  and  N4_34 
REMARK    9  A    between atoms: N4_34  and  C26_36 
REMARK   10  A    between atoms: C27_37  and  O3_38 
REMARK   11  A    between atoms: C27_37  and  N5_40 
REMARK   12  A    between atoms: C31_44  and  O4_45 
ROOT
HETATM    1  N1  UNL     1      20.066   0.709  17.433  1.00  0.00    -0.225 N 
ATOM      2  H1  UNL     1      20.213   1.367  16.667  1.00  0.00     0.177 HD
HETATM    3  C24 UNL     1      20.953   0.706  18.530  1.00  0.00     0.687 C 
HETATM    4  N2  UNL     1      21.804  -0.207  18.705  1.00  0.00    -0.126 N 
ATOM      5  H2  UNL     1      21.867  -0.979  18.040  1.00  0.00     0.197 HD
HETATM    6  C25 UNL     1      22.657  -0.162  19.805  1.00  0.00     0.196 C 
HETATM    7  N3  UNL     1      23.352  -0.115  20.729  1.00  0.00    -0.171 NA
HETATM    8  N4  UNL     1      20.855   1.819  19.463  1.00  0.00    -0.197 N 
ATOM      9  H4  UNL     1      21.559   1.967  20.186  1.00  0.00     0.183 HD
ENDROOT
BRANCH   1  10
HETATM   10  C23 UNL     1      18.960  -0.201  17.383  1.00  0.00     0.140 C 
BRANCH  10  11
HETATM   11  C22 UNL     1      19.209  -1.359  16.465  1.00  0.00     0.046 C 
BRANCH  11  12
HETATM   12  C21 UNL     1      20.136  -0.922  15.356  1.00  0.00     0.169 C 
BRANCH  12  13
HETATM   13  O2  UNL     1      20.010  -1.822  14.307  1.00  0.00    -0.385 OA
BRANCH  13  14
HETATM   14  C20 UNL     1      19.590  -3.066  14.689  1.00  0.00     0.129 C 
HETATM   15  C19 UNL     1      20.721  -4.028  14.638  1.00  0.00     0.026 C 
HETATM   16  C13 UNL     1      20.292  -5.249  15.415  1.00  0.00    -0.031 C 
HETATM   17  C18 UNL     1      22.059  -3.516  15.005  1.00  0.00     0.039 C 
HETATM   18  C12 UNL     1      18.870  -5.637  15.252  1.00  0.00     0.029 C 
HETATM   19  C14 UNL     1      20.579  -4.969  16.898  1.00  0.00     0.016 C 
HETATM   20  C15 UNL     1      21.285  -6.353  15.037  1.00  0.00     0.012 C 
HETATM   21  C11 UNL     1      18.098  -5.578  16.547  1.00  0.00     0.009 C 
HETATM   22  C31 UNL     1      18.164  -5.073  14.060  1.00  0.00     0.069 C 
HETATM   23  C10 UNL     1      16.689  -6.122  16.352  1.00  0.00     0.010 C 
HETATM   24  C8  UNL     1      15.959  -5.428  15.294  1.00  0.00    -0.037 C 
HETATM   25  C7  UNL     1      14.708  -6.158  14.871  1.00  0.00     0.010 C 
HETATM   26  C9  UNL     1      15.462  -4.097  15.892  1.00  0.00     0.015 C 
HETATM   27  C32 UNL     1      16.699  -5.222  14.001  1.00  0.00     0.037 C 
HETATM   28  C6  UNL     1      14.534  -5.726  13.414  1.00  0.00     0.010 C 
HETATM   29  C5  UNL     1      16.025  -5.907  12.888  1.00  0.00     0.025 C 
HETATM   30  C30 UNL     1      18.531  -3.620  13.771  1.00  0.00     0.071 C 
HETATM   31  C16 UNL     1      22.416  -5.859  14.200  1.00  0.00     0.032 C 
HETATM   32  C17 UNL     1      23.073  -4.612  14.773  1.00  0.00     0.118 C 
BRANCH  29  33
HETATM   33  C3  UNL     1      16.164  -7.284  12.534  1.00  0.00    -0.064 C 
HETATM   34  C4  UNL     1      15.386  -7.957  11.735  1.00  0.00     0.019 C 
BRANCH  33  35
HETATM   35  C2  UNL     1      17.240  -8.079  13.113  1.00  0.00    -0.004 C 
HETATM   36  C1  UNL     1      16.993  -9.010  13.993  1.00  0.00     0.012 C 
ENDBRANCH  33  35
ENDBRANCH  29  33
BRANCH  22  37
HETATM   37  O4  UNL     1      18.676  -5.797  12.948  1.00  0.00    -0.389 OA
ATOM     38  H4  UNL     1      18.430  -6.701  13.107  1.00  0.00     0.210 HD
ENDBRANCH  22  37
BRANCH  32  39
HETATM   39  O1  UNL     1      24.062  -4.240  13.849  1.00  0.00    -0.396 OA
ATOM     40  H1  UNL     1      24.832  -4.030  14.364  1.00  0.00     0.210 HD
ENDBRANCH  32  39
ENDBRANCH  13  14
ENDBRANCH  12  13
ENDBRANCH  11  12
ENDBRANCH  10  11
ENDBRANCH   1  10
BRANCH   8  41
HETATM   41  C26 UNL     1      19.763   2.677  19.331  1.00  0.00     0.161 C 
HETATM   42  C27 UNL     1      18.540   2.499  20.054  1.00  0.00     0.153 C 
BRANCH  42  43
HETATM   43  O3  UNL     1      17.607   3.404  19.818  1.00  0.00    -0.345 OA
ATOM     44  H3  UNL     1      16.827   3.081  19.384  1.00  0.00     0.219 HD
ENDBRANCH  42  43
BRANCH  42  45
HETATM   45  N5  UNL     1      18.165   1.523  20.972  1.00  0.00    -0.370 N 
HETATM   46  C28 UNL     1      17.408   0.334  20.444  1.00  0.00     0.151 C 
HETATM   47  C29 UNL     1      18.396   1.459  22.383  1.00  0.00     0.151 C 
ENDBRANCH  42  45
ENDBRANCH   8  41
TORSDOF 12
ENDMDL
MODEL 3
REMARK VINA RESULT: -8.449148321      1.563      2.384
REMARK  12 active torsions:
REMARK  status: ('A' for Active; 'I' for Inactive)
REMARK    1  A    between atoms: C2_2  and  C3_3 
REMARK    2  A    between atoms: C3_3  and  C5_5 
REMARK    3  A    between atoms: C17_17  and  O1_18 
REMARK    4  A    between atoms: C20_22  and  O2_23 
REMARK    5  A    between atoms: O2_23  and  C21_24 
REMARK    6  A    between atoms: C21_24  and  C22_25 
REMARK    7  A    between atoms: C22_25  and  C23_26 
REMARK    8  A    between atoms: C23_26  and  N1_27 
REMARK       I    between atoms: N1_27  and  C24_29 
REMARK       I    between atoms: C24_29  and  N4_34 
REMARK    9  A    between atoms: N4_34  and  C26_36 
REMARK   10  A    between atoms: C27_37  and  O3_38 
REMARK   11  A    between atoms: C27_37  and  N5_40 
REMARK   12  A    between atoms: C31_44  and  O4_45 
ROOT
HETATM    1  N1  UNL     1      20.750   0.264  17.454  1.00  0.00    -0.225 N 
ATOM      2  H1  UNL     1      20.416   1.029  16.867  1.00  0.00     0.177 HD
HETATM    3  C24 UNL     1      22.067   0.296  17.960  1.00  0.00     0.687 C 
HETATM    4  N2  UNL     1      22.979  -0.448  17.510  1.00  0.00    -0.126 N 
ATOM      5  H2  UNL     1      22.777  -1.101  16.754  1.00  0.00     0.197 HD
HETATM    6  C25 UNL     1      24.263  -0.376  18.046  1.00  0.00     0.196 C 
HETATM    7  N3  UNL     1      25.322  -0.310  18.508  1.00  0.00    -0.171 NA
HETATM    8  N4  UNL     1      22.340   1.242  19.033  1.00  0.00    -0.197 N 
ATOM      9  H4  UNL     1      23.293   1.432  19.341  1.00  0.00     0.183 HD
ENDROOT
BRANCH   1  10
HETATM   10  C23 UNL     1      19.877  -0.831  17.755  1.00  0.00     0.140 C 
BRANCH  10  11
HETATM   11  C22 UNL     1      19.360  -1.511  16.523  1.00  0.00     0.046 C 
BRANCH  11  12
HETATM   12  C21 UNL     1      19.966  -0.855  15.305  1.00  0.00     0.169 C 
BRANCH  12  13
HETATM   13  O2  UNL     1      20.083  -1.817  14.311  1.00  0.00    -0.385 OA
BRANCH  13  14
HETATM   14  C20 UNL     1      19.663  -3.062  14.687  1.00  0.00     0.129 C 
HETATM   15  C19 UNL     1      20.789  -4.029  14.613  1.00  0.00     0.026 C 
HETATM   16  C13 UNL     1      20.366  -5.254  15.385  1.00  0.00    -0.031 C 
HETATM   17  C18 UNL     1      22.135  -3.526  14.964  1.00  0.00     0.039 C 
HETATM   18  C12 UNL     1      18.939  -5.635  15.240  1.00  0.00     0.029 C 
HETATM   19  C14 UNL     1      20.675  -4.988  16.866  1.00  0.00     0.016 C 
HETATM   20  C15 UNL     1      21.347  -6.359  14.984  1.00  0.00     0.012 C 
HETATM   21  C11 UNL     1      18.187  -5.583  16.546  1.00  0.00     0.009 C 
HETATM   22  C31 UNL     1      18.219  -5.057  14.063  1.00  0.00     0.069 C 
HETATM   23  C10 UNL     1      16.772  -6.119  16.367  1.00  0.00     0.010 C 
HETATM   24  C8  UNL     1      16.031  -5.412  15.326  1.00  0.00    -0.037 C 
HETATM   25  C7  UNL     1      14.770  -6.133  14.915  1.00  0.00     0.010 C 
HETATM   26  C9  UNL     1      15.549  -4.084  15.942  1.00  0.00     0.015 C 
HETATM   27  C32 UNL     1      16.753  -5.199  14.024  1.00  0.00     0.037 C 
HETATM   28  C6  UNL     1      14.577  -5.687  13.464  1.00  0.00     0.010 C 
HETATM   29  C5  UNL     1      16.059  -5.871  12.915  1.00  0.00     0.025 C 
HETATM   30  C30 UNL     1      18.589  -3.603  13.781  1.00  0.00     0.071 C 
HETATM   31  C16 UNL     1      22.469  -5.864  14.134  1.00  0.00     0.032 C 
HETATM   32  C17 UNL     1      23.140  -4.625  14.708  1.00  0.00     0.118 C 
BRANCH  29  33
HETATM   33  C3  UNL     1      16.187  -7.246  12.548  1.00  0.00    -0.064 C 
HETATM   34  C4  UNL     1      15.382  -7.914  11.772  1.00  0.00     0.019 C 
BRANCH  33  35
HETATM   35  C2  UNL     1      17.282  -8.044  13.084  1.00  0.00    -0.004 C 
HETATM   36  C1  UNL     1      17.070  -8.963  13.986  1.00  0.00     0.012 C 
ENDBRANCH  33  35
ENDBRANCH  29  33
BRANCH  22  37
HETATM   37  O4  UNL     1      18.712  -5.774  12.937  1.00  0.00    -0.389 OA
ATOM     38  H4  UNL     1      19.421  -5.241  12.596  1.00  0.00     0.210 HD
ENDBRANCH  22  37
BRANCH  32  39
HETATM   39  O1  UNL     1      24.117  -4.249  13.773  1.00  0.00    -0.396 OA
ATOM     40  H1  UNL     1      24.292  -3.330  13.935  1.00  0.00     0.210 HD
ENDBRANCH  32  39
ENDBRANCH  13  14
ENDBRANCH  12  13
ENDBRANCH  11  12
ENDBRANCH  10  11
ENDBRANCH   1  10
BRANCH   8  41
HETATM   41  C26 UNL     1      21.249   1.878  19.625  1.00  0.00     0.161 C 
HETATM   42  C27 UNL     1      21.383   2.852  20.665  1.00  0.00     0.153 C 
BRANCH  42  43
HETATM   43  O3  UNL     1      20.251   3.363  21.112  1.00  0.00    -0.345 OA
ATOM     44  H3  UNL     1      19.898   2.951  21.891  1.00  0.00     0.219 HD
ENDBRANCH  42  43
BRANCH  42  45
HETATM   45  N5  UNL     1      22.520   3.356  21.291  1.00  0.00    -0.370 N 
HETATM   46  C28 UNL     1      22.329   4.056  22.609  1.00  0.00     0.151 C 
HETATM   47  C29 UNL     1      23.889   3.311  20.874  1.00  0.00     0.151 C 
ENDBRANCH  42  45
ENDBRANCH   8  41
TORSDOF 12
ENDMDL
MODEL 4
REMARK VINA RESULT: -8.437325314      0.908      1.145
REMARK  12 active torsions:
REMARK  status: ('A' for Active; 'I' for Inactive)
REMARK    1  A    between atoms: C2_2  and  C3_3 
REMARK    2  A    between atoms: C3_3  and  C5_5 
REMARK    3  A    between atoms: C17_17  and  O1_18 
REMARK    4  A    between atoms: C20_22  and  O2_23 
REMARK    5  A    between atoms: O2_23  and  C21_24 
REMARK    6  A    between atoms: C21_24  and  C22_25 
REMARK    7  A    between atoms: C22_25  and  C23_26 
REMARK    8  A    between atoms: C23_26  and  N1_27 
REMARK       I    between atoms: N1_27  and  C24_29 
REMARK       I    between atoms: C24_29  and  N4_34 
REMARK    9  A    between atoms: N4_34  and  C26_36 
REMARK   10  A    between atoms: C27_37  and  O3_38 
REMARK   11  A    between atoms: C27_37  and  N5_40 
REMARK   12  A    between atoms: C31_44  and  O4_45 
ROOT
HETATM    1  N1  UNL     1      20.988  -0.442  17.811  1.00  0.00    -0.225 N 
ATOM      2  H1  UNL     1      20.781  -1.418  18.021  1.00  0.00     0.177 HD
HETATM    3  C24 UNL     1      20.647   0.561  18.742  1.00  0.00     0.687 C 
HETATM    4  N2  UNL     1      19.682   1.351  18.558  1.00  0.00    -0.126 N 
ATOM      5  H2  UNL     1      19.118   1.277  17.711  1.00  0.00     0.197 HD
HETATM    6  C25 UNL     1      19.387   2.324  19.510  1.00  0.00     0.196 C 
HETATM    7  N3  UNL     1      19.161   3.132  20.306  1.00  0.00    -0.171 NA
HETATM    8  N4  UNL     1      21.457   0.647  19.949  1.00  0.00    -0.197 N 
ATOM      9  H4  UNL     1      21.178   1.237  20.732  1.00  0.00     0.183 HD
ENDROOT
BRANCH   1  10
HETATM   10  C23 UNL     1      21.624  -0.104  16.572  1.00  0.00     0.140 C 
BRANCH  10  11
HETATM   11  C22 UNL     1      20.640   0.143  15.468  1.00  0.00     0.046 C 
BRANCH  11  12
HETATM   12  C21 UNL     1      19.567  -0.918  15.516  1.00  0.00     0.169 C 
BRANCH  12  13
HETATM   13  O2  UNL     1      19.828  -1.842  14.513  1.00  0.00    -0.385 OA
BRANCH  13  14
HETATM   14  C20 UNL     1      19.441  -3.117  14.816  1.00  0.00     0.129 C 
HETATM   15  C19 UNL     1      20.599  -4.043  14.718  1.00  0.00     0.026 C 
HETATM   16  C13 UNL     1      20.199  -5.320  15.417  1.00  0.00    -0.031 C 
HETATM   17  C18 UNL     1      21.920  -3.517  15.126  1.00  0.00     0.039 C 
HETATM   18  C12 UNL     1      18.790  -5.736  15.219  1.00  0.00     0.029 C 
HETATM   19  C14 UNL     1      20.468  -5.121  16.916  1.00  0.00     0.016 C 
HETATM   20  C15 UNL     1      21.225  -6.371  14.983  1.00  0.00     0.012 C 
HETATM   21  C11 UNL     1      18.007  -5.776  16.508  1.00  0.00     0.009 C 
HETATM   22  C31 UNL     1      18.076  -5.121  14.057  1.00  0.00     0.069 C 
HETATM   23  C10 UNL     1      16.616  -6.347  16.269  1.00  0.00     0.010 C 
HETATM   24  C8  UNL     1      15.874  -5.610  15.248  1.00  0.00    -0.037 C 
HETATM   25  C7  UNL     1      14.647  -6.348  14.771  1.00  0.00     0.010 C 
HETATM   26  C9  UNL     1      15.336  -4.332  15.920  1.00  0.00     0.015 C 
HETATM   27  C32 UNL     1      16.617  -5.308  13.976  1.00  0.00     0.037 C 
HETATM   28  C6  UNL     1      14.471  -5.834  13.342  1.00  0.00     0.010 C 
HETATM   29  C5  UNL     1      15.970  -5.942  12.818  1.00  0.00     0.025 C 
HETATM   30  C30 UNL     1      18.405  -3.644  13.858  1.00  0.00     0.071 C 
HETATM   31  C16 UNL     1      22.348  -5.797  14.186  1.00  0.00     0.032 C 
HETATM   32  C17 UNL     1      22.966  -4.569  14.838  1.00  0.00     0.118 C 
BRANCH  29  33
HETATM   33  C3  UNL     1      16.150  -7.291  12.384  1.00  0.00    -0.064 C 
HETATM   34  C4  UNL     1      15.351  -7.964  11.606  1.00  0.00     0.019 C 
BRANCH  33  35
HETATM   35  C2  UNL     1      17.301  -8.057  12.847  1.00  0.00    -0.004 C 
HETATM   36  C1  UNL     1      17.187  -8.935  13.805  1.00  0.00     0.012 C 
ENDBRANCH  33  35
ENDBRANCH  29  33
BRANCH  22  37
HETATM   37  O4  UNL     1      18.617  -5.763  12.908  1.00  0.00    -0.389 OA
ATOM     38  H4  UNL     1      18.832  -5.058  12.309  1.00  0.00     0.210 HD
ENDBRANCH  22  37
BRANCH  32  39
HETATM   39  O1  UNL     1      23.950  -4.115  13.947  1.00  0.00    -0.396 OA
ATOM     40  H1  UNL     1      24.173  -4.862  13.403  1.00  0.00     0.210 HD
ENDBRANCH  32  39
ENDBRANCH  13  14
ENDBRANCH  12  13
ENDBRANCH  11  12
ENDBRANCH  10  11
ENDBRANCH   1  10
BRANCH   8  41
HETATM   41  C26 UNL     1      22.629  -0.109  19.994  1.00  0.00     0.161 C 
HETATM   42  C27 UNL     1      23.934   0.477  20.047  1.00  0.00     0.153 C 
BRANCH  42  43
HETATM   43  O3  UNL     1      24.937  -0.381  20.091  1.00  0.00    -0.345 OA
ATOM     44  H3  UNL     1      25.762  -0.026  20.399  1.00  0.00     0.219 HD
ENDBRANCH  42  43
BRANCH  42  45
HETATM   45  N5  UNL     1      24.326   1.812  20.059  1.00  0.00    -0.370 N 
HETATM   46  C28 UNL     1      25.593   2.166  19.328  1.00  0.00     0.151 C 
HETATM   47  C29 UNL     1      23.697   2.944  20.670  1.00  0.00     0.151 C 
ENDBRANCH  42  45
ENDBRANCH   8  41
TORSDOF 12
ENDMDL
MODEL 5
REMARK VINA RESULT: -8.327870031      4.348      9.417
REMARK  12 active torsions:
REMARK  status: ('A' for Active; 'I' for Inactive)
REMARK    1  A    between atoms: C2_2  and  C3_3 
REMARK    2  A    between atoms: C3_3  and  C5_5 
REMARK    3  A    between atoms: C17_17  and  O1_18 
REMARK    4  A    between atoms: C20_22  and  O2_23 
REMARK    5  A    between atoms: O2_23  and  C21_24 
REMARK    6  A    between atoms: C21_24  and  C22_25 
REMARK    7  A    between atoms: C22_25  and  C23_26 
REMARK    8  A    between atoms: C23_26  and  N1_27 
REMARK       I    between atoms: N1_27  and  C24_29 
REMARK       I    between atoms: C24_29  and  N4_34 
REMARK    9  A    between atoms: N4_34  and  C26_36 
REMARK   10  A    between atoms: C27_37  and  O3_38 
REMARK   11  A    between atoms: C27_37  and  N5_40 
REMARK   12  A    between atoms: C31_44  and  O4_45 
ROOT
HETATM    1  N1  UNL     1      16.306  -6.691  13.078  1.00  0.00    -0.225 N 
ATOM      2  H1  UNL     1      16.834  -6.033  12.503  1.00  0.00     0.177 HD
HETATM    3  C24 UNL     1      15.904  -7.928  12.532  1.00  0.00     0.687 C 
HETATM    4  N2  UNL     1      14.707  -8.168  12.219  1.00  0.00    -0.126 N 
ATOM      5  H2  UNL     1      13.991  -7.455  12.359  1.00  0.00     0.197 HD
HETATM    6  C25 UNL     1      14.362  -9.407  11.683  1.00  0.00     0.196 C 
HETATM    7  N3  UNL     1      14.092 -10.444  11.247  1.00  0.00    -0.171 NA
HETATM    8  N4  UNL     1      16.940  -8.930  12.331  1.00  0.00    -0.197 N 
ATOM      9  H4  UNL     1      16.756  -9.783  11.801  1.00  0.00     0.183 HD
ENDROOT
BRANCH   1  10
HETATM   10  C23 UNL     1      15.983  -6.348  14.431  1.00  0.00     0.140 C 
BRANCH  10  11
HETATM   11  C22 UNL     1      17.087  -6.680  15.389  1.00  0.00     0.046 C 
BRANCH  11  12
HETATM   12  C21 UNL     1      17.466  -5.436  16.156  1.00  0.00     0.169 C 
BRANCH  12  13
HETATM   13  O2  UNL     1      18.791  -5.558  16.549  1.00  0.00    -0.385 OA
BRANCH  13  14
HETATM   14  C20 UNL     1      19.564  -4.471  16.250  1.00  0.00     0.129 C 
HETATM   15  C19 UNL     1      20.811  -4.899  15.565  1.00  0.00     0.026 C 
HETATM   16  C13 UNL     1      21.414  -3.665  14.939  1.00  0.00    -0.031 C 
HETATM   17  C18 UNL     1      20.715  -6.057  14.649  1.00  0.00     0.039 C 
HETATM   18  C12 UNL     1      21.298  -2.425  15.745  1.00  0.00     0.029 C 
HETATM   19  C14 UNL     1      20.723  -3.460  13.582  1.00  0.00     0.016 C 
HETATM   20  C15 UNL     1      22.854  -4.041  14.580  1.00  0.00     0.012 C 
HETATM   21  C11 UNL     1      20.488  -1.356  15.054  1.00  0.00     0.009 C 
HETATM   22  C31 UNL     1      21.006  -2.608  17.200  1.00  0.00     0.069 C 
HETATM   23  C10 UNL     1      20.523  -0.061  15.856  1.00  0.00     0.010 C 
HETATM   24  C8  UNL     1      20.062  -0.238  17.230  1.00  0.00    -0.037 C 
HETATM   25  C7  UNL     1      20.398   0.938  18.116  1.00  0.00     0.010 C 
HETATM   26  C9  UNL     1      18.522  -0.277  17.185  1.00  0.00     0.015 C 
HETATM   27  C32 UNL     1      20.633  -1.413  17.977  1.00  0.00     0.037 C 
HETATM   28  C6  UNL     1      20.509   0.302  19.502  1.00  0.00     0.010 C 
HETATM   29  C5  UNL     1      21.393  -0.974  19.157  1.00  0.00     0.025 C 
HETATM   30  C30 UNL     1      20.002  -3.722  17.481  1.00  0.00     0.071 C 
HETATM   31  C16 UNL     1      23.149  -5.489  14.785  1.00  0.00     0.032 C 
HETATM   32  C17 UNL     1      22.102  -6.398  14.158  1.00  0.00     0.118 C 
BRANCH  29  33
HETATM   33  C3  UNL     1      22.754  -0.540  19.172  1.00  0.00    -0.064 C 
HETATM   34  C4  UNL     1      23.560  -0.496  18.149  1.00  0.00     0.019 C 
BRANCH  33  35
HETATM   35  C2  UNL     1      23.372  -0.122  20.424  1.00  0.00    -0.004 C 
HETATM   36  C1  UNL     1      24.394   0.688  20.436  1.00  0.00     0.012 C 
ENDBRANCH  33  35
ENDBRANCH  29  33
BRANCH  22  37
HETATM   37  O4  UNL     1      22.225  -3.077  17.766  1.00  0.00    -0.389 OA
ATOM     38  H4  UNL     1      22.191  -4.022  17.677  1.00  0.00     0.210 HD
ENDBRANCH  22  37
BRANCH  32  39
HETATM   39  O1  UNL     1      22.481  -7.707  14.490  1.00  0.00    -0.396 OA
ATOM     40  H1  UNL     1      21.687  -8.226  14.450  1.00  0.00     0.210 HD
ENDBRANCH  32  39
ENDBRANCH  13  14
ENDBRANCH  12  13
ENDBRANCH  11  12
ENDBRANCH  10  11
ENDBRANCH   1  10
BRANCH   8  41
HETATM   41  C26 UNL     1      18.194  -8.683  12.888  1.00  0.00     0.161 C 
HETATM   42  C27 UNL     1      19.038  -9.718  13.404  1.00  0.00     0.153 C 
BRANCH  42  43
HETATM   43  O3  UNL     1      20.196  -9.313  13.891  1.00  0.00    -0.345 OA
ATOM     44  H3  UNL     1      20.890  -9.963  13.885  1.00  0.00     0.219 HD
ENDBRANCH  42  43
BRANCH  42  45
HETATM   45  N5  UNL     1      18.839 -11.094  13.477  1.00  0.00    -0.370 N 
HETATM   46  C28 UNL     1      19.095 -11.895  12.230  1.00  0.00     0.151 C 
HETATM   47  C29 UNL     1      18.423 -11.899  14.585  1.00  0.00     0.151 C 
ENDBRANCH  42  45
ENDBRANCH   8  41
TORSDOF 12
ENDMDL
