MODEL 1
REMARK VINA RESULT: -9.632447991      0.000      0.000
REMARK  12 active torsions:
REMARK  status: ('A' for Active; 'I' for Inactive)
REMARK    1  A    between atoms: C2_2  and  C3_3 
REMARK    2  A    between atoms: C3_3  and  C5_5 
REMARK    3  A    between atoms: C5_5  and  N1_6 
REMARK    4  A    between atoms: C5_5  and  C11_15 
REMARK       I    between atoms: N1_6  and  C6_8 
REMARK    5  A    between atoms: C6_8  and  O2_10 
REMARK    6  A    between atoms: O2_10  and  C7_11 
REMARK       I    between atoms: C11_15  and  N2_17 
REMARK    7  A    between atoms: N2_17  and  C12_19 
REMARK    8  A    between atoms: C12_19  and  C13_20 
REMARK    9  A    between atoms: C12_19  and  C29_43 
REMARK       I    between atoms: C13_20  and  N3_22 
REMARK   10  A    between atoms: N3_22  and  C14_24 
REMARK   11  A    between atoms: N4_32  and  C21_33 
REMARK   12  A    between atoms: C25_37  and  O6_38 
ROOT
HETATM    1  C13 UNL     1      17.093  -3.668  15.632  1.00  0.00     0.241 C 
HETATM    2  O4  UNL     1      17.901  -3.500  14.689  1.00  0.00    -0.271 OA
HETATM    3  N3  UNL     1      17.255  -2.909  16.808  1.00  0.00    -0.355 N 
ATOM      4  H3  UNL     1      16.596  -3.038  17.576  1.00  0.00     0.162 HD
ENDROOT
BRANCH   1   5
HETATM    5  C12 UNL     1      15.996  -4.647  15.486  1.00  0.00     0.180 C 
BRANCH   5   6
HETATM    6  N2  UNL     1      16.379  -5.754  14.633  1.00  0.00    -0.346 N 
HETATM    7  C11 UNL     1      16.678  -7.063  15.075  1.00  0.00     0.241 C 
HETATM    8  O3  UNL     1      16.583  -7.229  16.350  1.00  0.00    -0.271 OA
ATOM      9  H2  UNL     1      16.438  -5.575  13.631  1.00  0.00     0.163 HD
BRANCH   7  10
HETATM   10  C5  UNL     1      17.068  -8.188  14.223  1.00  0.00     0.182 C 
BRANCH  10  11
HETATM   11  C3  UNL     1      16.320  -8.284  12.915  1.00  0.00     0.013 C 
HETATM   12  C4  UNL     1      14.836  -8.013  13.063  1.00  0.00     0.012 C 
BRANCH  11  13
HETATM   13  C2  UNL     1      16.624  -9.502  12.096  1.00  0.00     0.002 C 
HETATM   14  C1  UNL     1      15.337  -9.889  11.373  1.00  0.00     0.005 C 
ENDBRANCH  11  13
ENDBRANCH  10  11
BRANCH  10  15
HETATM   15  N1  UNL     1      18.508  -8.065  13.933  1.00  0.00    -0.323 N 
HETATM   16  C6  UNL     1      19.026  -7.017  13.119  1.00  0.00     0.362 C 
HETATM   17  O1  UNL     1      18.274  -6.142  12.605  1.00  0.00    -0.238 OA
ATOM     18  H1  UNL     1      19.152  -8.751  14.327  1.00  0.00     0.165 HD
BRANCH  16  19
HETATM   19  O2  UNL     1      20.362  -6.920  12.865  1.00  0.00    -0.294 OA
BRANCH  19  20
HETATM   20  C7  UNL     1      21.351  -6.592  13.811  1.00  0.00     0.061 C 
HETATM   21  C8  UNL     1      22.063  -7.797  14.374  1.00  0.00     0.046 C 
HETATM   22  C9  UNL     1      20.808  -5.779  14.953  1.00  0.00     0.046 C 
HETATM   23  C10 UNL     1      22.402  -5.763  13.102  1.00  0.00     0.046 C 
ENDBRANCH  19  20
ENDBRANCH  16  19
ENDBRANCH  10  15
ENDBRANCH   7  10
ENDBRANCH   5   6
BRANCH   5  24
HETATM   24  C29 UNL     1      14.671  -4.070  15.122  1.00  0.00     0.009 C 
HETATM   25  C30 UNL     1      14.000  -5.041  14.156  1.00  0.00     0.012 C 
HETATM   26  C31 UNL     1      14.732  -2.702  14.539  1.00  0.00     0.012 C 
ENDBRANCH   5  24
ENDBRANCH   1   5
BRANCH   3  27
HETATM   27  C14 UNL     1      18.347  -1.937  16.960  1.00  0.00     0.084 C 
HETATM   28  C15 UNL     1      19.585  -2.688  17.353  1.00  0.00     0.025 C 
HETATM   29  C16 UNL     1      20.780  -2.429  16.482  1.00  0.00     0.002 C 
HETATM   30  C17 UNL     1      22.017  -2.516  17.329  1.00  0.00     0.001 C 
HETATM   31  C18 UNL     1      22.995  -1.384  17.022  1.00  0.00     0.009 C 
HETATM   32  C19 UNL     1      22.441  -0.042  17.365  1.00  0.00     0.103 C 
HETATM   33  C20 UNL     1      22.695   0.330  18.769  1.00  0.00     0.220 C 
HETATM   34  O5  UNL     1      23.508  -0.336  19.498  1.00  0.00    -0.273 OA
HETATM   35  N4  UNL     1      22.076   1.435  19.435  1.00  0.00    -0.346 N 
HETATM   36  C24 UNL     1      20.755   1.869  18.979  1.00  0.00     0.157 C 
HETATM   37  C25 UNL     1      19.668   1.075  19.678  1.00  0.00     0.136 C 
HETATM   38  C26 UNL     1      18.372   1.318  18.948  1.00  0.00     0.033 C 
HETATM   39  C27 UNL     1      18.193   0.450  17.736  1.00  0.00     0.004 C 
HETATM   40  C28 UNL     1      17.988  -0.979  18.118  1.00  0.00     0.025 C 
BRANCH  35  41
HETATM   41  C21 UNL     1      22.669   2.133  20.523  1.00  0.00     0.079 C 
HETATM   42  C22 UNL     1      22.025   3.486  20.777  1.00  0.00     0.032 C 
HETATM   43  C23 UNL     1      24.151   2.352  20.381  1.00  0.00     0.032 C 
ENDBRANCH  35  41
BRANCH  37  44
HETATM   44  O6  UNL     1      19.508   1.518  21.011  1.00  0.00    -0.394 OA
ATOM     45  H6  UNL     1      18.752   1.105  21.412  1.00  0.00     0.210 HD
ENDBRANCH  37  44
ENDBRANCH   3  27
TORSDOF 12
ENDMDL
MODEL 2
REMARK VINA RESULT: -9.574544808      2.039      4.843
REMARK  12 active torsions:
REMARK  status: ('A' for Active; 'I' for Inactive)
REMARK    1  A    between atoms: C2_2  and  C3_3 
REMARK    2  A    between atoms: C3_3  and  C5_5 
REMARK    3  A    between atoms: C5_5  and  N1_6 
REMARK    4  A    between atoms: C5_5  and  C11_15 
REMARK       I    between atoms: N1_6  and  C6_8 
REMARK    5  A    between atoms: C6_8  and  O2_10 
REMARK    6  A    between atoms: O2_10  and  C7_11 
REMARK       I    between atoms: C11_15  and  N2_17 
REMARK    7  A    between atoms: N2_17  and  C12_19 
REMARK    8  A    between atoms: C12_19  and  C13_20 
REMARK    9  A    between atoms: C12_19  and  C29_43 
REMARK       I    between atoms: C13_20  and  N3_22 
REMARK   10  A    between atoms: N3_22  and  C14_24 
REMARK   11  A    between atoms: N4_32  and  C21_33 
REMARK   12  A    between atoms: C25_37  and  O6_38 
ROOT
HETATM    1  C13 UNL     1      20.968  -5.459  14.263  1.00  0.00     0.241 C 
HETATM    2  O4  UNL     1      21.572  -4.619  13.556  1.00  0.00    -0.271 OA
HETATM    3  N3  UNL     1      20.324  -5.020  15.437  1.00  0.00    -0.355 N 
ATOM      4  H3  UNL     1      19.825  -5.699  16.012  1.00  0.00     0.162 HD
ENDROOT
BRANCH   1   5
HETATM    5  C12 UNL     1      20.941  -6.876  13.848  1.00  0.00     0.180 C 
BRANCH   5   6
HETATM    6  N2  UNL     1      19.607  -7.435  13.944  1.00  0.00    -0.346 N 
HETATM    7  C11 UNL     1      18.591  -7.299  12.972  1.00  0.00     0.241 C 
HETATM    8  O3  UNL     1      18.933  -6.614  11.935  1.00  0.00    -0.271 OA
ATOM      9  H2  UNL     1      19.384  -7.972  14.782  1.00  0.00     0.163 HD
BRANCH   7  10
HETATM   10  C5  UNL     1      17.240  -7.857  13.059  1.00  0.00     0.182 C 
BRANCH  10  11
HETATM   11  C3  UNL     1      16.126  -6.869  12.811  1.00  0.00     0.013 C 
HETATM   12  C4  UNL     1      16.203  -5.655  13.715  1.00  0.00     0.012 C 
BRANCH  11  13
HETATM   13  C2  UNL     1      14.753  -7.466  12.730  1.00  0.00     0.002 C 
HETATM   14  C1  UNL     1      13.802  -6.497  13.427  1.00  0.00     0.005 C 
ENDBRANCH  11  13
ENDBRANCH  10  11
BRANCH  10  15
HETATM   15  N1  UNL     1      17.131  -8.946  12.072  1.00  0.00    -0.323 N 
HETATM   16  C6  UNL     1      17.152 -10.318  12.458  1.00  0.00     0.362 C 
HETATM   17  O1  UNL     1      17.266 -10.666  13.667  1.00  0.00    -0.238 OA
ATOM     18  H1  UNL     1      17.038  -8.711  11.083  1.00  0.00     0.165 HD
BRANCH  16  19
HETATM   19  O2  UNL     1      17.047 -11.311  11.529  1.00  0.00    -0.294 OA
BRANCH  19  20
HETATM   20  C7  UNL     1      15.842 -11.821  11.011  1.00  0.00     0.061 C 
HETATM   21  C8  UNL     1      14.713 -10.821  11.031  1.00  0.00     0.046 C 
HETATM   22  C9  UNL     1      15.393 -13.068  11.721  1.00  0.00     0.046 C 
HETATM   23  C10 UNL     1      16.084 -12.169   9.556  1.00  0.00     0.046 C 
ENDBRANCH  19  20
ENDBRANCH  16  19
ENDBRANCH  10  15
ENDBRANCH   7  10
ENDBRANCH   5   6
BRANCH   5  24
HETATM   24  C29 UNL     1      21.977  -7.745  14.475  1.00  0.00     0.009 C 
HETATM   25  C30 UNL     1      23.325  -7.349  13.882  1.00  0.00     0.012 C 
HETATM   26  C31 UNL     1      21.737  -9.205  14.317  1.00  0.00     0.012 C 
ENDBRANCH   5  24
ENDBRANCH   1   5
BRANCH   3  27
HETATM   27  C14 UNL     1      20.351  -3.612  15.858  1.00  0.00     0.084 C 
HETATM   28  C15 UNL     1      21.500  -3.433  16.807  1.00  0.00     0.025 C 
HETATM   29  C16 UNL     1      22.452  -2.331  16.442  1.00  0.00     0.002 C 
HETATM   30  C17 UNL     1      22.993  -1.729  17.706  1.00  0.00     0.001 C 
HETATM   31  C18 UNL     1      23.019  -0.203  17.641  1.00  0.00     0.009 C 
HETATM   32  C19 UNL     1      21.652   0.387  17.540  1.00  0.00     0.103 C 
HETATM   33  C20 UNL     1      21.037   0.610  18.861  1.00  0.00     0.220 C 
HETATM   34  O5  UNL     1      21.721   0.525  19.938  1.00  0.00    -0.273 OA
HETATM   35  N4  UNL     1      19.657   0.931  19.064  1.00  0.00    -0.346 N 
HETATM   36  C24 UNL     1      18.684   0.472  18.072  1.00  0.00     0.157 C 
HETATM   37  C25 UNL     1      18.217  -0.932  18.401  1.00  0.00     0.136 C 
HETATM   38  C26 UNL     1      17.490  -1.476  17.197  1.00  0.00     0.033 C 
HETATM   39  C27 UNL     1      18.403  -2.050  16.153  1.00  0.00     0.004 C 
HETATM   40  C28 UNL     1      19.048  -3.309  16.631  1.00  0.00     0.025 C 
BRANCH  35  41
HETATM   41  C21 UNL     1      19.174   1.666  20.181  1.00  0.00     0.079 C 
HETATM   42  C22 UNL     1      17.779   2.228  19.960  1.00  0.00     0.032 C 
HETATM   43  C23 UNL     1      20.064   2.804  20.603  1.00  0.00     0.032 C 
ENDBRANCH  35  41
BRANCH  37  44
HETATM   44  O6  UNL     1      17.310  -0.913  19.486  1.00  0.00    -0.394 OA
ATOM     45  H6  UNL     1      17.381  -1.713  19.994  1.00  0.00     0.210 HD
ENDBRANCH  37  44
ENDBRANCH   3  27
TORSDOF 12
ENDMDL
MODEL 3
REMARK VINA RESULT: -9.567049480      3.043     11.345
REMARK  12 active torsions:
REMARK  status: ('A' for Active; 'I' for Inactive)
REMARK    1  A    between atoms: C2_2  and  C3_3 
REMARK    2  A    between atoms: C3_3  and  C5_5 
REMARK    3  A    between atoms: C5_5  and  N1_6 
REMARK    4  A    between atoms: C5_5  and  C11_15 
REMARK       I    between atoms: N1_6  and  C6_8 
REMARK    5  A    between atoms: C6_8  and  O2_10 
REMARK    6  A    between atoms: O2_10  and  C7_11 
REMARK       I    between atoms: C11_15  and  N2_17 
REMARK    7  A    between atoms: N2_17  and  C12_19 
REMARK    8  A    between atoms: C12_19  and  C13_20 
REMARK    9  A    between atoms: C12_19  and  C29_43 
REMARK       I    between atoms: C13_20  and  N3_22 
REMARK   10  A    between atoms: N3_22  and  C14_24 
REMARK   11  A    between atoms: N4_32  and  C21_33 
REMARK   12  A    between atoms: C25_37  and  O6_38 
ROOT
HETATM    1  C13 UNL     1      19.260   1.802  19.076  1.00  0.00     0.241 C 
HETATM    2  O4  UNL     1      18.581   2.101  18.066  1.00  0.00    -0.271 OA
HETATM    3  N3  UNL     1      19.999   0.603  19.066  1.00  0.00    -0.355 N 
ATOM      4  H3  UNL     1      20.559   0.359  19.883  1.00  0.00     0.162 HD
ENDROOT
BRANCH   1   5
HETATM    5  C12 UNL     1      19.272   2.711  20.240  1.00  0.00     0.180 C 
BRANCH   5   6
HETATM    6  N2  UNL     1      20.446   2.507  21.065  1.00  0.00    -0.346 N 
HETATM    7  C11 UNL     1      21.744   2.979  20.772  1.00  0.00     0.241 C 
HETATM    8  O3  UNL     1      21.834   3.643  19.671  1.00  0.00    -0.271 OA
ATOM      9  H2  UNL     1      20.324   1.977  21.929  1.00  0.00     0.163 HD
BRANCH   7  10
HETATM   10  C5  UNL     1      22.937   2.777  21.597  1.00  0.00     0.182 C 
BRANCH  10  11
HETATM   11  C3  UNL     1      24.021   1.944  20.954  1.00  0.00     0.013 C 
HETATM   12  C4  UNL     1      24.845   2.723  19.949  1.00  0.00     0.012 C 
BRANCH  11  13
HETATM   13  C2  UNL     1      23.577   0.604  20.450  1.00  0.00     0.002 C 
HETATM   14  C1  UNL     1      24.635   0.124  19.461  1.00  0.00     0.005 C 
ENDBRANCH  11  13
ENDBRANCH  10  11
BRANCH  10  15
HETATM   15  N1  UNL     1      23.495   4.100  21.926  1.00  0.00    -0.323 N 
HETATM   16  C6  UNL     1      23.883   4.446  23.253  1.00  0.00     0.362 C 
HETATM   17  O1  UNL     1      23.764   3.632  24.213  1.00  0.00    -0.238 OA
ATOM     18  H1  UNL     1      23.607   4.790  21.182  1.00  0.00     0.165 HD
BRANCH  16  19
HETATM   19  O2  UNL     1      24.399   5.676  23.537  1.00  0.00    -0.294 OA
BRANCH  19  20
HETATM   20  C7  UNL     1      23.823   6.623  24.405  1.00  0.00     0.061 C 
HETATM   21  C8  UNL     1      24.347   6.538  25.816  1.00  0.00     0.046 C 
HETATM   22  C9  UNL     1      22.322   6.529  24.443  1.00  0.00     0.046 C 
HETATM   23  C10 UNL     1      24.194   7.998  23.888  1.00  0.00     0.046 C 
ENDBRANCH  19  20
ENDBRANCH  16  19
ENDBRANCH  10  15
ENDBRANCH   7  10
ENDBRANCH   5   6
BRANCH   5  24
HETATM   24  C29 UNL     1      18.010   2.749  21.033  1.00  0.00     0.009 C 
HETATM   25  C30 UNL     1      18.397   2.886  22.501  1.00  0.00     0.012 C 
HETATM   26  C31 UNL     1      17.117   1.577  20.828  1.00  0.00     0.012 C 
ENDBRANCH   5  24
ENDBRANCH   1   5
BRANCH   3  27
HETATM   27  C14 UNL     1      19.988  -0.307  17.912  1.00  0.00     0.084 C 
HETATM   28  C15 UNL     1      18.790  -1.203  18.039  1.00  0.00     0.025 C 
HETATM   29  C16 UNL     1      17.894  -1.229  16.835  1.00  0.00     0.002 C 
HETATM   30  C17 UNL     1      17.296  -2.601  16.714  1.00  0.00     0.001 C 
HETATM   31  C18 UNL     1      17.318  -3.103  15.273  1.00  0.00     0.009 C 
HETATM   32  C19 UNL     1      18.704  -3.290  14.754  1.00  0.00     0.103 C 
HETATM   33  C20 UNL     1      19.246  -4.625  15.063  1.00  0.00     0.220 C 
HETATM   34  O5  UNL     1      18.497  -5.562  15.505  1.00  0.00    -0.273 OA
HETATM   35  N4  UNL     1      20.620  -4.994  14.907  1.00  0.00    -0.346 N 
HETATM   36  C24 UNL     1      21.637  -3.947  15.015  1.00  0.00     0.157 C 
HETATM   37  C25 UNL     1      22.043  -3.754  16.463  1.00  0.00     0.136 C 
HETATM   38  C26 UNL     1      22.825  -2.468  16.560  1.00  0.00     0.033 C 
HETATM   39  C27 UNL     1      21.959  -1.245  16.665  1.00  0.00     0.004 C 
HETATM   40  C28 UNL     1      21.251  -1.194  17.978  1.00  0.00     0.025 C 
BRANCH  35  41
HETATM   41  C21 UNL     1      21.057  -6.324  14.659  1.00  0.00     0.079 C 
HETATM   42  C22 UNL     1      22.467  -6.388  14.094  1.00  0.00     0.032 C 
HETATM   43  C23 UNL     1      20.160  -7.107  13.738  1.00  0.00     0.032 C 
ENDBRANCH  35  41
BRANCH  37  44
HETATM   44  O6  UNL     1      22.884  -4.808  16.889  1.00  0.00    -0.394 OA
ATOM     45  H6  UNL     1      23.598  -4.473  17.418  1.00  0.00     0.210 HD
ENDBRANCH  37  44
ENDBRANCH   3  27
TORSDOF 12
ENDMDL
MODEL 4
REMARK VINA RESULT: -9.492786576      1.813      4.478
REMARK  12 active torsions:
REMARK  status: ('A' for Active; 'I' for Inactive)
REMARK    1  A    between atoms: C2_2  and  C3_3 
REMARK    2  A    between atoms: C3_3  and  C5_5 
REMARK    3  A    between atoms: C5_5  and  N1_6 
REMARK    4  A    between atoms: C5_5  and  C11_15 
REMARK       I    between atoms: N1_6  and  C6_8 
REMARK    5  A    between atoms: C6_8  and  O2_10 
REMARK    6  A    between atoms: O2_10  and  C7_11 
REMARK       I    between atoms: C11_15  and  N2_17 
REMARK    7  A    between atoms: N2_17  and  C12_19 
REMARK    8  A    between atoms: C12_19  and  C13_20 
REMARK    9  A    between atoms: C12_19  and  C29_43 
REMARK       I    between atoms: C13_20  and  N3_22 
REMARK   10  A    between atoms: N3_22  and  C14_24 
REMARK   11  A    between atoms: N4_32  and  C21_33 
REMARK   12  A    between atoms: C25_37  and  O6_38 
ROOT
HETATM    1  C13 UNL     1      21.025  -5.457  14.229  1.00  0.00     0.241 C 
HETATM    2  O4  UNL     1      21.554  -4.590  13.495  1.00  0.00    -0.271 OA
HETATM    3  N3  UNL     1      20.416  -5.048  15.432  1.00  0.00    -0.355 N 
ATOM      4  H3  UNL     1      19.979  -5.749  16.030  1.00  0.00     0.162 HD
ENDROOT
BRANCH   1   5
HETATM    5  C12 UNL     1      21.048  -6.875  13.815  1.00  0.00     0.180 C 
BRANCH   5   6
HETATM    6  N2  UNL     1      19.726  -7.467  13.866  1.00  0.00    -0.346 N 
HETATM    7  C11 UNL     1      18.778  -7.445  12.819  1.00  0.00     0.241 C 
HETATM    8  O3  UNL     1      19.175  -6.838  11.754  1.00  0.00    -0.271 OA
ATOM      9  H2  UNL     1      19.458  -7.940  14.730  1.00  0.00     0.163 HD
BRANCH   7  10
HETATM   10  C5  UNL     1      17.440  -8.038  12.860  1.00  0.00     0.182 C 
BRANCH  10  11
HETATM   11  C3  UNL     1      17.392  -9.464  13.355  1.00  0.00     0.013 C 
HETATM   12  C4  UNL     1      18.460 -10.340  12.733  1.00  0.00     0.012 C 
BRANCH  11  13
HETATM   13  C2  UNL     1      16.031 -10.091  13.354  1.00  0.00     0.002 C 
HETATM   14  C1  UNL     1      15.541 -10.097  11.909  1.00  0.00     0.005 C 
ENDBRANCH  11  13
ENDBRANCH  10  11
BRANCH  10  15
HETATM   15  N1  UNL     1      16.598  -7.207  13.738  1.00  0.00    -0.323 N 
HETATM   16  C6  UNL     1      15.503  -6.447  13.233  1.00  0.00     0.362 C 
HETATM   17  O1  UNL     1      15.202  -6.450  12.005  1.00  0.00    -0.238 OA
ATOM     18  H1  UNL     1      16.805  -7.173  14.737  1.00  0.00     0.165 HD
BRANCH  16  19
HETATM   19  O2  UNL     1      14.734  -5.685  14.063  1.00  0.00    -0.294 OA
BRANCH  19  20
HETATM   20  C7  UNL     1      15.148  -4.501  14.700  1.00  0.00     0.061 C 
HETATM   21  C8  UNL     1      15.179  -4.611  16.204  1.00  0.00     0.046 C 
HETATM   22  C9  UNL     1      14.300  -3.318  14.322  1.00  0.00     0.046 C 
HETATM   23  C10 UNL     1      16.569  -4.220  14.258  1.00  0.00     0.046 C 
ENDBRANCH  19  20
ENDBRANCH  16  19
ENDBRANCH  10  15
ENDBRANCH   7  10
ENDBRANCH   5   6
BRANCH   5  24
HETATM   24  C29 UNL     1      22.084  -7.717  14.479  1.00  0.00     0.009 C 
HETATM   25  C30 UNL     1      23.431  -7.350  13.868  1.00  0.00     0.012 C 
HETATM   26  C31 UNL     1      21.842  -9.182  14.385  1.00  0.00     0.012 C 
ENDBRANCH   5  24
ENDBRANCH   1   5
BRANCH   3  27
HETATM   27  C14 UNL     1      20.394  -3.639  15.851  1.00  0.00     0.084 C 
HETATM   28  C15 UNL     1      21.543  -3.417  16.792  1.00  0.00     0.025 C 
HETATM   29  C16 UNL     1      22.450  -2.281  16.418  1.00  0.00     0.002 C 
HETATM   30  C17 UNL     1      22.978  -1.657  17.677  1.00  0.00     0.001 C 
HETATM   31  C18 UNL     1      22.946  -0.131  17.610  1.00  0.00     0.009 C 
HETATM   32  C19 UNL     1      21.558   0.407  17.520  1.00  0.00     0.103 C 
HETATM   33  C20 UNL     1      20.945   0.609  18.845  1.00  0.00     0.220 C 
HETATM   34  O5  UNL     1      21.640   0.551  19.917  1.00  0.00    -0.273 OA
HETATM   35  N4  UNL     1      19.556   0.879  19.059  1.00  0.00    -0.346 N 
HETATM   36  C24 UNL     1      18.593   0.383  18.074  1.00  0.00     0.157 C 
HETATM   37  C25 UNL     1      18.181  -1.037  18.408  1.00  0.00     0.136 C 
HETATM   38  C26 UNL     1      17.466  -1.609  17.210  1.00  0.00     0.033 C 
HETATM   39  C27 UNL     1      18.391  -2.151  16.160  1.00  0.00     0.004 C 
HETATM   40  C28 UNL     1      19.087  -3.384  16.633  1.00  0.00     0.025 C 
BRANCH  35  41
HETATM   41  C21 UNL     1      19.054   1.596  20.179  1.00  0.00     0.079 C 
HETATM   42  C22 UNL     1      17.644   2.120  19.962  1.00  0.00     0.032 C 
HETATM   43  C23 UNL     1      19.912   2.758  20.602  1.00  0.00     0.032 C 
ENDBRANCH  35  41
BRANCH  37  44
HETATM   44  O6  UNL     1      17.283  -1.051  19.500  1.00  0.00    -0.394 OA
ATOM     45  H6  UNL     1      16.981  -1.935  19.674  1.00  0.00     0.210 HD
ENDBRANCH  37  44
ENDBRANCH   3  27
TORSDOF 12
ENDMDL
MODEL 5
REMARK VINA RESULT: -9.289563090      2.000     10.708
REMARK  12 active torsions:
REMARK  status: ('A' for Active; 'I' for Inactive)
REMARK    1  A    between atoms: C2_2  and  C3_3 
REMARK    2  A    between atoms: C3_3  and  C5_5 
REMARK    3  A    between atoms: C5_5  and  N1_6 
REMARK    4  A    between atoms: C5_5  and  C11_15 
REMARK       I    between atoms: N1_6  and  C6_8 
REMARK    5  A    between atoms: C6_8  and  O2_10 
REMARK    6  A    between atoms: O2_10  and  C7_11 
REMARK       I    between atoms: C11_15  and  N2_17 
REMARK    7  A    between atoms: N2_17  and  C12_19 
REMARK    8  A    between atoms: C12_19  and  C13_20 
REMARK    9  A    between atoms: C12_19  and  C29_43 
REMARK       I    between atoms: C13_20  and  N3_22 
REMARK   10  A    between atoms: N3_22  and  C14_24 
REMARK   11  A    between atoms: N4_32  and  C21_33 
REMARK   12  A    between atoms: C25_37  and  O6_38 
ROOT
HETATM    1  C13 UNL     1      20.254  -2.490  16.643  1.00  0.00     0.241 C 
HETATM    2  O4  UNL     1      20.042  -1.770  15.640  1.00  0.00    -0.271 OA
HETATM    3  N3  UNL     1      19.638  -3.756  16.712  1.00  0.00    -0.355 N 
ATOM      4  H3  UNL     1      19.813  -4.348  17.523  1.00  0.00     0.162 HD
ENDROOT
BRANCH   1   5
HETATM    5  C12 UNL     1      21.141  -2.000  17.718  1.00  0.00     0.180 C 
BRANCH   5   6
HETATM    6  N2  UNL     1      20.880  -0.610  18.032  1.00  0.00    -0.346 N 
HETATM    7  C11 UNL     1      19.778  -0.131  18.775  1.00  0.00     0.241 C 
HETATM    8  O3  UNL     1      18.972  -1.050  19.184  1.00  0.00    -0.271 OA
ATOM      9  H2  UNL     1      21.548   0.081  17.689  1.00  0.00     0.163 HD
BRANCH   7  10
HETATM   10  C5  UNL     1      19.504   1.271  19.097  1.00  0.00     0.182 C 
BRANCH  10  11
HETATM   11  C3  UNL     1      18.159   1.525  19.736  1.00  0.00     0.013 C 
HETATM   12  C4  UNL     1      17.436   2.713  19.134  1.00  0.00     0.012 C 
BRANCH  11  13
HETATM   13  C2  UNL     1      18.157   1.524  21.235  1.00  0.00     0.002 C 
HETATM   14  C1  UNL     1      17.277   2.686  21.683  1.00  0.00     0.005 C 
ENDBRANCH  11  13
ENDBRANCH  10  11
BRANCH  10  15
HETATM   15  N1  UNL     1      20.557   1.744  20.014  1.00  0.00    -0.323 N 
HETATM   16  C6  UNL     1      21.855   2.103  19.549  1.00  0.00     0.362 C 
HETATM   17  O1  UNL     1      22.166   2.032  18.326  1.00  0.00    -0.238 OA
ATOM     18  H1  UNL     1      20.350   1.816  21.010  1.00  0.00     0.165 HD
BRANCH  16  19
HETATM   19  O2  UNL     1      22.815   2.541  20.413  1.00  0.00    -0.294 OA
BRANCH  19  20
HETATM   20  C7  UNL     1      23.998   1.851  20.735  1.00  0.00     0.061 C 
HETATM   21  C8  UNL     1      25.163   2.215  19.849  1.00  0.00     0.046 C 
HETATM   22  C9  UNL     1      23.820   0.357  20.705  1.00  0.00     0.046 C 
HETATM   23  C10 UNL     1      24.387   2.249  22.144  1.00  0.00     0.046 C 
ENDBRANCH  19  20
ENDBRANCH  16  19
ENDBRANCH  10  15
ENDBRANCH   7  10
ENDBRANCH   5   6
BRANCH   5  24
HETATM   24  C29 UNL     1      22.592  -2.286  17.527  1.00  0.00     0.009 C 
HETATM   25  C30 UNL     1      23.276  -0.967  17.183  1.00  0.00     0.012 C 
HETATM   26  C31 UNL     1      22.887  -3.319  16.498  1.00  0.00     0.012 C 
ENDBRANCH   5  24
ENDBRANCH   1   5
BRANCH   3  27
HETATM   27  C14 UNL     1      18.751  -4.247  15.647  1.00  0.00     0.084 C 
HETATM   28  C15 UNL     1      17.348  -4.255  16.180  1.00  0.00     0.025 C 
HETATM   29  C16 UNL     1      16.350  -3.519  15.334  1.00  0.00     0.002 C 
HETATM   30  C17 UNL     1      15.023  -4.211  15.449  1.00  0.00     0.001 C 
HETATM   31  C18 UNL     1      14.337  -4.351  14.092  1.00  0.00     0.009 C 
HETATM   32  C19 UNL     1      15.099  -5.228  13.155  1.00  0.00     0.103 C 
HETATM   33  C20 UNL     1      14.746  -6.651  13.305  1.00  0.00     0.220 C 
HETATM   34  O5  UNL     1      13.730  -7.018  13.990  1.00  0.00    -0.273 OA
HETATM   35  N4  UNL     1      15.481  -7.730  12.719  1.00  0.00    -0.346 N 
HETATM   36  C24 UNL     1      16.910  -7.539  12.464  1.00  0.00     0.157 C 
HETATM   37  C25 UNL     1      17.718  -7.897  13.696  1.00  0.00     0.136 C 
HETATM   38  C26 UNL     1      19.120  -7.377  13.501  1.00  0.00     0.033 C 
HETATM   39  C27 UNL     1      19.276  -5.926  13.851  1.00  0.00     0.004 C 
HETATM   40  C28 UNL     1      19.142  -5.705  15.322  1.00  0.00     0.025 C 
BRANCH  35  41
HETATM   41  C21 UNL     1      14.905  -8.984  12.376  1.00  0.00     0.079 C 
HETATM   42  C22 UNL     1      15.588  -9.644  11.190  1.00  0.00     0.032 C 
HETATM   43  C23 UNL     1      13.431  -8.925  12.079  1.00  0.00     0.032 C 
ENDBRANCH  35  41
BRANCH  37  44
HETATM   44  O6  UNL     1      17.791  -9.301  13.852  1.00  0.00    -0.394 OA
ATOM     45  H6  UNL     1      17.629  -9.546  14.755  1.00  0.00     0.210 HD
ENDBRANCH  37  44
ENDBRANCH   3  27
TORSDOF 12
ENDMDL
