MODEL 1
REMARK VINA RESULT: -7.220476590      0.000      0.000
REMARK  6 active torsions:
REMARK  status: ('A' for Active; 'I' for Inactive)
REMARK    1  A    between atoms: O1_1  and  C1_3 
REMARK    2  A    between atoms: C4_6  and  S1_7 
REMARK    3  A    between atoms: S1_7  and  C5_8 
REMARK    4  A    between atoms: C5_8  and  C6_9 
REMARK    5  A    between atoms: C6_9  and  N1_10 
REMARK    6  A    between atoms: N2_13  and  C9_14 
ROOT
HETATM    1  N1  UNL     1      24.282   8.030  14.589  1.00  0.00     0.126 N 
HETATM    2  C7  UNL     1      25.240   7.019  14.880  1.00  0.00     0.295 C 
HETATM    3  C8  UNL     1      25.242   6.051  13.688  1.00  0.00     0.147 C 
HETATM    4  N2  UNL     1      23.995   5.383  13.622  1.00  0.00    -0.402 N 
HETATM    5  C14 UNL     1      22.938   5.989  14.362  1.00  0.00     0.187 C 
HETATM    6  C15 UNL     1      22.979   7.500  14.326  1.00  0.00     0.422 C 
HETATM    7  F1  UNL     1      22.011   7.950  15.234  1.00  0.00    -0.214 F 
ENDROOT
BRANCH   1   8
HETATM    8  C6  UNL     1      24.251   9.171  15.427  1.00  0.00     0.286 C 
BRANCH   8   9
HETATM    9  C5  UNL     1      24.974   9.046  16.724  1.00  0.00     0.111 C 
BRANCH   9  10
HETATM   10  S1  UNL     1      23.816   8.604  18.039  1.00  0.00    -0.111 SA
BRANCH  10  11
HETATM   11  C4  UNL     1      24.199   7.083  18.829  1.00  0.00     0.071 A 
HETATM   12  C3  UNL     1      25.318   6.308  18.608  1.00  0.00     0.041 A 
HETATM   13  C2  UNL     1      25.275   5.183  19.396  1.00  0.00     0.059 A 
HETATM   14  C1  UNL     1      24.101   5.294  20.104  1.00  0.00     0.140 A 
HETATM   15  N3  UNL     1      23.474   6.437  19.749  1.00  0.00    -0.332 N 
ATOM     16  H3  UNL     1      22.582   6.759  20.126  1.00  0.00     0.168 HD
BRANCH  14  17
HETATM   17  O1  UNL     1      23.636   4.371  21.037  1.00  0.00    -0.346 OA
ATOM     18  H1  UNL     1      23.225   3.541  20.829  1.00  0.00     0.219 HD
ENDBRANCH  14  17
ENDBRANCH  10  11
ENDBRANCH   9  10
ENDBRANCH   8   9
ENDBRANCH   1   8
BRANCH   4  19
HETATM   19  C9  UNL     1      23.575   4.926  12.349  1.00  0.00     0.079 C 
HETATM   20  C10 UNL     1      23.395   6.015  11.327  1.00  0.00     0.025 C 
HETATM   21  C11 UNL     1      22.819   5.235  10.162  1.00  0.00     0.002 C 
HETATM   22  C12 UNL     1      22.042   4.108  10.780  1.00  0.00     0.002 C 
HETATM   23  C13 UNL     1      22.267   4.209  12.293  1.00  0.00     0.025 C 
ENDBRANCH   4  19
TORSDOF 6
ENDMDL
MODEL 2
REMARK VINA RESULT: -7.183397765      3.071      3.406
REMARK  6 active torsions:
REMARK  status: ('A' for Active; 'I' for Inactive)
REMARK    1  A    between atoms: O1_1  and  C1_3 
REMARK    2  A    between atoms: C4_6  and  S1_7 
REMARK    3  A    between atoms: S1_7  and  C5_8 
REMARK    4  A    between atoms: C5_8  and  C6_9 
REMARK    5  A    between atoms: C6_9  and  N1_10 
REMARK    6  A    between atoms: N2_13  and  C9_14 
ROOT
HETATM    1  N1  UNL     1      23.960   7.136  16.503  1.00  0.00     0.126 N 
HETATM    2  C7  UNL     1      24.857   7.871  15.678  1.00  0.00     0.295 C 
HETATM    3  C8  UNL     1      24.368   7.705  14.231  1.00  0.00     0.147 C 
HETATM    4  N2  UNL     1      24.514   6.351  13.838  1.00  0.00    -0.402 N 
HETATM    5  C14 UNL     1      24.685   5.421  14.904  1.00  0.00     0.187 C 
HETATM    6  C15 UNL     1      23.860   5.760  16.125  1.00  0.00     0.422 C 
HETATM    7  F1  UNL     1      24.266   4.883  17.140  1.00  0.00    -0.214 F 
ENDROOT
BRANCH   1   8
HETATM    8  C6  UNL     1      24.056   7.316  17.904  1.00  0.00     0.286 C 
BRANCH   8   9
HETATM    9  C5  UNL     1      25.387   7.747  18.415  1.00  0.00     0.111 C 
BRANCH   9  10
HETATM   10  S1  UNL     1      25.999   6.558  19.631  1.00  0.00    -0.111 SA
BRANCH  10  11
HETATM   11  C4  UNL     1      27.167   7.240  20.752  1.00  0.00     0.071 A 
HETATM   12  C3  UNL     1      27.508   8.571  20.866  1.00  0.00     0.041 A 
HETATM   13  C2  UNL     1      28.464   8.731  21.840  1.00  0.00     0.059 A 
HETATM   14  C1  UNL     1      28.697   7.462  22.316  1.00  0.00     0.140 A 
HETATM   15  N3  UNL     1      27.912   6.586  21.651  1.00  0.00    -0.332 N 
ATOM     16  H3  UNL     1      27.889   5.579  21.811  1.00  0.00     0.168 HD
BRANCH  14  17
HETATM   17  O1  UNL     1      29.601   7.136  23.323  1.00  0.00    -0.346 OA
ATOM     18  H1  UNL     1      29.503   6.415  23.934  1.00  0.00     0.219 HD
ENDBRANCH  14  17
ENDBRANCH  10  11
ENDBRANCH   9  10
ENDBRANCH   8   9
ENDBRANCH   1   8
BRANCH   4  19
HETATM   19  C9  UNL     1      23.636   5.874  12.835  1.00  0.00     0.079 C 
HETATM   20  C10 UNL     1      23.583   4.375  12.719  1.00  0.00     0.025 C 
HETATM   21  C11 UNL     1      22.699   4.204  11.500  1.00  0.00     0.002 C 
HETATM   22  C12 UNL     1      22.963   5.408  10.642  1.00  0.00     0.002 C 
HETATM   23  C13 UNL     1      23.927   6.298  11.434  1.00  0.00     0.025 C 
ENDBRANCH   4  19
TORSDOF 6
ENDMDL
MODEL 3
REMARK VINA RESULT: -7.076595739      1.407      1.741
REMARK  6 active torsions:
REMARK  status: ('A' for Active; 'I' for Inactive)
REMARK    1  A    between atoms: O1_1  and  C1_3 
REMARK    2  A    between atoms: C4_6  and  S1_7 
REMARK    3  A    between atoms: S1_7  and  C5_8 
REMARK    4  A    between atoms: C5_8  and  C6_9 
REMARK    5  A    between atoms: C6_9  and  N1_10 
REMARK    6  A    between atoms: N2_13  and  C9_14 
ROOT
HETATM    1  N1  UNL     1      23.035   6.320  14.754  1.00  0.00     0.126 N 
HETATM    2  C7  UNL     1      24.214   5.534  14.621  1.00  0.00     0.295 C 
HETATM    3  C8  UNL     1      24.652   5.635  13.152  1.00  0.00     0.147 C 
HETATM    4  N2  UNL     1      23.684   5.009  12.328  1.00  0.00    -0.402 N 
HETATM    5  C14 UNL     1      22.413   4.794  12.935  1.00  0.00     0.187 C 
HETATM    6  C15 UNL     1      21.996   5.919  13.856  1.00  0.00     0.422 C 
HETATM    7  F1  UNL     1      20.837   5.489  14.515  1.00  0.00    -0.214 F 
ENDROOT
BRANCH   1   8
HETATM    8  C6  UNL     1      22.560   6.578  16.062  1.00  0.00     0.286 C 
BRANCH   8   9
HETATM    9  C5  UNL     1      22.434   8.014  16.438  1.00  0.00     0.111 C 
BRANCH   9  10
HETATM   10  S1  UNL     1      23.594   8.412  17.765  1.00  0.00    -0.111 SA
BRANCH  10  11
HETATM   11  C4  UNL     1      24.097   7.013  18.700  1.00  0.00     0.071 A 
HETATM   12  C3  UNL     1      25.329   6.396  18.648  1.00  0.00     0.041 A 
HETATM   13  C2  UNL     1      25.358   5.326  19.509  1.00  0.00     0.059 A 
HETATM   14  C1  UNL     1      24.111   5.308  20.089  1.00  0.00     0.140 A 
HETATM   15  N3  UNL     1      23.373   6.324  19.590  1.00  0.00    -0.332 N 
ATOM     16  H3  UNL     1      22.410   6.535  19.853  1.00  0.00     0.168 HD
BRANCH  14  17
HETATM   17  O1  UNL     1      23.680   4.385  21.038  1.00  0.00    -0.346 OA
ATOM     18  H1  UNL     1      22.813   3.999  21.073  1.00  0.00     0.219 HD
ENDBRANCH  14  17
ENDBRANCH  10  11
ENDBRANCH   9  10
ENDBRANCH   8   9
ENDBRANCH   1   8
BRANCH   4  19
HETATM   19  C9  UNL     1      23.577   5.472  10.994  1.00  0.00     0.079 C 
HETATM   20  C10 UNL     1      23.692   6.964  10.843  1.00  0.00     0.025 C 
HETATM   21  C11 UNL     1      23.396   7.136   9.367  1.00  0.00     0.002 C 
HETATM   22  C12 UNL     1      22.454   6.021   9.015  1.00  0.00     0.002 C 
HETATM   23  C13 UNL     1      22.301   5.171  10.280  1.00  0.00     0.025 C 
ENDBRANCH   4  19
TORSDOF 6
ENDMDL
MODEL 4
REMARK VINA RESULT: -7.061395243      1.624      1.993
REMARK  6 active torsions:
REMARK  status: ('A' for Active; 'I' for Inactive)
REMARK    1  A    between atoms: O1_1  and  C1_3 
REMARK    2  A    between atoms: C4_6  and  S1_7 
REMARK    3  A    between atoms: S1_7  and  C5_8 
REMARK    4  A    between atoms: C5_8  and  C6_9 
REMARK    5  A    between atoms: C6_9  and  N1_10 
REMARK    6  A    between atoms: N2_13  and  C9_14 
ROOT
HETATM    1  N1  UNL     1      24.323   8.053  14.649  1.00  0.00     0.126 N 
HETATM    2  C7  UNL     1      24.688   8.640  13.404  1.00  0.00     0.295 C 
HETATM    3  C8  UNL     1      23.774   8.020  12.336  1.00  0.00     0.147 C 
HETATM    4  N2  UNL     1      24.070   6.641  12.207  1.00  0.00    -0.402 N 
HETATM    5  C14 UNL     1      24.805   6.070  13.286  1.00  0.00     0.187 C 
HETATM    6  C15 UNL     1      24.406   6.625  14.635  1.00  0.00     0.422 C 
HETATM    7  F1  UNL     1      25.325   6.120  15.565  1.00  0.00    -0.214 F 
ENDROOT
BRANCH   1   8
HETATM    8  C6  UNL     1      24.860   8.623  15.828  1.00  0.00     0.286 C 
BRANCH   8   9
HETATM    9  C5  UNL     1      23.950   9.522  16.591  1.00  0.00     0.111 C 
BRANCH   9  10
HETATM   10  S1  UNL     1      23.198   8.621  17.966  1.00  0.00    -0.111 SA
BRANCH  10  11
HETATM   11  C4  UNL     1      24.156   7.256  18.517  1.00  0.00     0.071 A 
HETATM   12  C3  UNL     1      23.789   5.928  18.467  1.00  0.00     0.041 A 
HETATM   13  C2  UNL     1      24.784   5.143  18.998  1.00  0.00     0.059 A 
HETATM   14  C1  UNL     1      25.767   6.029  19.373  1.00  0.00     0.140 A 
HETATM   15  N3  UNL     1      25.371   7.286  19.077  1.00  0.00    -0.332 N 
ATOM     16  H3  UNL     1      25.915   8.130  19.254  1.00  0.00     0.168 HD
BRANCH  14  17
HETATM   17  O1  UNL     1      26.979   5.680  19.965  1.00  0.00    -0.346 OA
ATOM     18  H1  UNL     1      27.790   5.517  19.498  1.00  0.00     0.219 HD
ENDBRANCH  14  17
ENDBRANCH  10  11
ENDBRANCH   9  10
ENDBRANCH   8   9
ENDBRANCH   1   8
BRANCH   4  19
HETATM   19  C9  UNL     1      23.026   5.798  11.753  1.00  0.00     0.079 C 
HETATM   20  C10 UNL     1      23.174   4.356  12.156  1.00  0.00     0.025 C 
HETATM   21  C11 UNL     1      22.016   3.722  11.413  1.00  0.00     0.002 C 
HETATM   22  C12 UNL     1      21.834   4.549  10.172  1.00  0.00     0.002 C 
HETATM   23  C13 UNL     1      22.835   5.704  10.276  1.00  0.00     0.025 C 
ENDBRANCH   4  19
TORSDOF 6
ENDMDL
MODEL 5
REMARK VINA RESULT: -6.871988313      1.324      1.645
REMARK  6 active torsions:
REMARK  status: ('A' for Active; 'I' for Inactive)
REMARK    1  A    between atoms: O1_1  and  C1_3 
REMARK    2  A    between atoms: C4_6  and  S1_7 
REMARK    3  A    between atoms: S1_7  and  C5_8 
REMARK    4  A    between atoms: C5_8  and  C6_9 
REMARK    5  A    between atoms: C6_9  and  N1_10 
REMARK    6  A    between atoms: N2_13  and  C9_14 
ROOT
HETATM    1  N1  UNL     1      23.763   7.312  14.199  1.00  0.00     0.126 N 
HETATM    2  C7  UNL     1      24.260   7.951  13.029  1.00  0.00     0.295 C 
HETATM    3  C8  UNL     1      23.573   7.281  11.830  1.00  0.00     0.147 C 
HETATM    4  N2  UNL     1      24.000   5.933  11.736  1.00  0.00    -0.402 N 
HETATM    5  C14 UNL     1      24.609   5.403  12.909  1.00  0.00     0.187 C 
HETATM    6  C15 UNL     1      23.967   5.896  14.186  1.00  0.00     0.422 C 
HETATM    7  F1  UNL     1      24.774   5.449  15.241  1.00  0.00    -0.214 F 
ENDROOT
BRANCH   1   8
HETATM    8  C6  UNL     1      24.067   7.899  15.450  1.00  0.00     0.286 C 
BRANCH   8   9
HETATM    9  C5  UNL     1      22.900   8.227  16.317  1.00  0.00     0.111 C 
BRANCH   9  10
HETATM   10  S1  UNL     1      23.444   8.470  18.023  1.00  0.00    -0.111 SA
BRANCH  10  11
HETATM   11  C4  UNL     1      23.942   6.985  18.818  1.00  0.00     0.071 A 
HETATM   12  C3  UNL     1      25.082   6.258  18.549  1.00  0.00     0.041 A 
HETATM   13  C2  UNL     1      25.136   5.149  19.358  1.00  0.00     0.059 A 
HETATM   14  C1  UNL     1      23.999   5.220  20.129  1.00  0.00     0.140 A 
HETATM   15  N3  UNL     1      23.300   6.325  19.789  1.00  0.00    -0.332 N 
ATOM     16  H3  UNL     1      22.416   6.613  20.209  1.00  0.00     0.168 HD
BRANCH  14  17
HETATM   17  O1  UNL     1      23.630   4.297  21.103  1.00  0.00    -0.346 OA
ATOM     18  H1  UNL     1      22.927   3.663  21.020  1.00  0.00     0.219 HD
ENDBRANCH  14  17
ENDBRANCH  10  11
ENDBRANCH   9  10
ENDBRANCH   8   9
ENDBRANCH   1   8
BRANCH   4  19
HETATM   19  C9  UNL     1      23.111   5.017  11.123  1.00  0.00     0.079 C 
HETATM   20  C10 UNL     1      22.482   5.519   9.852  1.00  0.00     0.025 C 
HETATM   21  C11 UNL     1      21.508   4.400   9.542  1.00  0.00     0.002 C 
HETATM   22  C12 UNL     1      21.100   3.843  10.876  1.00  0.00     0.002 C 
HETATM   23  C13 UNL     1      21.926   4.594  11.926  1.00  0.00     0.025 C 
ENDBRANCH   4  19
TORSDOF 6
ENDMDL
