MODEL 1
REMARK VINA RESULT: -7.105227049      0.000      0.000
REMARK  5 active torsions:
REMARK  status: ('A' for Active; 'I' for Inactive)
REMARK    1  A    between atoms: C2_2  and  C4_4 
REMARK    2  A    between atoms: C4_4  and  O1_5 
REMARK    3  A    between atoms: C4_4  and  N1_7 
REMARK    4  A    between atoms: N1_7  and  C5_9 
REMARK    5  A    between atoms: C5_9  and  C7_12 
ROOT
HETATM    1  C5  UNL     1      24.684   7.157  18.669  1.00  0.00     0.100 C 
HETATM    2  C6  UNL     1      23.601   6.587  19.498  1.00  0.00     0.114 C 
HETATM    3  N2  UNL     1      22.763   6.120  20.166  1.00  0.00    -0.190 NA
ENDROOT
BRANCH   1   4
HETATM    4  N1  UNL     1      25.743   7.663  19.414  1.00  0.00    -0.358 N 
ATOM      5  H1  UNL     1      26.098   8.587  19.171  1.00  0.00     0.162 HD
BRANCH   4   6
HETATM    6  C4  UNL     1      26.354   6.988  20.471  1.00  0.00     0.221 C 
BRANCH   6   7
HETATM    7  C2  UNL     1      27.475   7.923  20.995  1.00  0.00     0.026 C 
HETATM    8  C1  UNL     1      28.576   7.087  21.614  1.00  0.00     0.014 C 
HETATM    9  C3  UNL     1      26.955   8.894  22.021  1.00  0.00     0.014 C 
ENDBRANCH   6   7
BRANCH   6  10
HETATM   10  O1  UNL     1      27.036   5.801  20.133  1.00  0.00    -0.377 OA
ATOM     11  H1  UNL     1      27.150   5.360  20.967  1.00  0.00     0.212 HD
ENDBRANCH   6  10
ENDBRANCH   4   6
ENDBRANCH   1   4
BRANCH   1  12
HETATM   12  C7  UNL     1      24.213   7.889  17.494  1.00  0.00     0.044 C 
HETATM   13  C8  UNL     1      24.836   9.156  17.079  1.00  0.00     0.020 C 
HETATM   14  C9  UNL     1      24.378   9.326  15.615  1.00  0.00     0.020 C 
HETATM   15  C10 UNL     1      23.640   8.074  15.307  1.00  0.00     0.039 C 
HETATM   16  C11 UNL     1      23.582   7.669  13.898  1.00  0.00     0.025 C 
HETATM   17  C12 UNL     1      22.337   8.050  16.027  1.00  0.00     0.142 C 
HETATM   18  C15 UNL     1      24.372   7.059  16.200  1.00  0.00     0.062 C 
HETATM   19  O2  UNL     1      21.265   8.008  15.472  1.00  0.00    -0.297 OA
HETATM   20  C13 UNL     1      22.704   8.092  17.469  1.00  0.00     0.069 C 
HETATM   21  C14 UNL     1      22.241   9.407  17.992  1.00  0.00     0.019 C 
HETATM   22  C16 UNL     1      25.780   6.866  15.780  1.00  0.00     0.035 C 
HETATM   23 CL1  UNL     1      23.465   5.575  16.413  1.00  0.00    -0.117 Cl
ENDBRANCH   1  12
TORSDOF 5
ENDMDL
MODEL 2
REMARK VINA RESULT: -6.950223886      3.846      6.612
REMARK  5 active torsions:
REMARK  status: ('A' for Active; 'I' for Inactive)
REMARK    1  A    between atoms: C2_2  and  C4_4 
REMARK    2  A    between atoms: C4_4  and  O1_5 
REMARK    3  A    between atoms: C4_4  and  N1_7 
REMARK    4  A    between atoms: N1_7  and  C5_9 
REMARK    5  A    between atoms: C5_9  and  C7_12 
ROOT
HETATM    1  C5  UNL     1      23.886   5.575  14.345  1.00  0.00     0.100 C 
HETATM    2  C6  UNL     1      25.305   5.363  13.987  1.00  0.00     0.114 C 
HETATM    3  N2  UNL     1      26.423   5.169  13.705  1.00  0.00    -0.190 NA
ENDROOT
BRANCH   1   4
HETATM    4  N1  UNL     1      22.998   4.935  13.490  1.00  0.00    -0.358 N 
ATOM      5  H1  UNL     1      22.049   4.769  13.825  1.00  0.00     0.162 HD
BRANCH   4   6
HETATM    6  C4  UNL     1      23.318   4.504  12.202  1.00  0.00     0.221 C 
BRANCH   6   7
HETATM    7  C2  UNL     1      22.755   5.575  11.231  1.00  0.00     0.026 C 
HETATM    8  C1  UNL     1      22.097   4.886  10.054  1.00  0.00     0.014 C 
HETATM    9  C3  UNL     1      23.836   6.492  10.728  1.00  0.00     0.014 C 
ENDBRANCH   6   7
BRANCH   6  10
HETATM   10  O1  UNL     1      22.700   3.309  11.781  1.00  0.00    -0.377 OA
ATOM     11  H1  UNL     1      23.424   2.773  11.479  1.00  0.00     0.212 HD
ENDBRANCH   6  10
ENDBRANCH   4   6
ENDBRANCH   1   4
BRANCH   1  12
HETATM   12  C7  UNL     1      23.587   6.926  14.820  1.00  0.00     0.044 C 
HETATM   13  C8  UNL     1      22.506   7.726  14.221  1.00  0.00     0.020 C 
HETATM   14  C9  UNL     1      22.240   8.823  15.273  1.00  0.00     0.020 C 
HETATM   15  C10 UNL     1      23.112   8.461  16.420  1.00  0.00     0.039 C 
HETATM   16  C11 UNL     1      22.693   8.930  17.745  1.00  0.00     0.025 C 
HETATM   17  C12 UNL     1      24.541   8.713  16.082  1.00  0.00     0.142 C 
HETATM   18  C15 UNL     1      23.153   6.929  16.303  1.00  0.00     0.062 C 
HETATM   19  O2  UNL     1      25.243   9.494  16.678  1.00  0.00    -0.297 OA
HETATM   20  C13 UNL     1      24.814   7.820  14.923  1.00  0.00     0.069 C 
HETATM   21  C14 UNL     1      25.045   8.704  13.745  1.00  0.00     0.019 C 
HETATM   22  C16 UNL     1      21.824   6.320  16.541  1.00  0.00     0.035 C 
HETATM   23 CL1  UNL     1      24.457   6.219  17.233  1.00  0.00    -0.117 Cl
ENDBRANCH   1  12
TORSDOF 5
ENDMDL
MODEL 3
REMARK VINA RESULT: -6.881501320      3.423      6.893
REMARK  5 active torsions:
REMARK  status: ('A' for Active; 'I' for Inactive)
REMARK    1  A    between atoms: C2_2  and  C4_4 
REMARK    2  A    between atoms: C4_4  and  O1_5 
REMARK    3  A    between atoms: C4_4  and  N1_7 
REMARK    4  A    between atoms: N1_7  and  C5_9 
REMARK    5  A    between atoms: C5_9  and  C7_12 
ROOT
HETATM    1  C5  UNL     1      22.567   7.791  13.715  1.00  0.00     0.100 C 
HETATM    2  C6  UNL     1      21.510   6.765  13.600  1.00  0.00     0.114 C 
HETATM    3  N2  UNL     1      20.656   5.972  13.501  1.00  0.00    -0.190 NA
ENDROOT
BRANCH   1   4
HETATM    4  N1  UNL     1      22.774   8.506  12.542  1.00  0.00    -0.358 N 
ATOM      5  H1  UNL     1      23.204   9.428  12.615  1.00  0.00     0.162 HD
BRANCH   4   6
HETATM    6  C4  UNL     1      22.432   8.046  11.270  1.00  0.00     0.221 C 
BRANCH   6   7
HETATM    7  C2  UNL     1      23.641   7.213  10.769  1.00  0.00     0.026 C 
HETATM    8  C1  UNL     1      24.148   7.800   9.468  1.00  0.00     0.014 C 
HETATM    9  C3  UNL     1      23.270   5.771  10.550  1.00  0.00     0.014 C 
ENDBRANCH   6   7
BRANCH   6  10
HETATM   10  O1  UNL     1      22.272   9.037  10.279  1.00  0.00    -0.377 OA
ATOM     11  H1  UNL     1      21.336   9.196  10.266  1.00  0.00     0.212 HD
ENDBRANCH   6  10
ENDBRANCH   4   6
ENDBRANCH   1   4
BRANCH   1  12
HETATM   12  C7  UNL     1      23.715   7.376  14.521  1.00  0.00     0.044 C 
HETATM   13  C8  UNL     1      25.085   7.785  14.170  1.00  0.00     0.020 C 
HETATM   14  C9  UNL     1      25.880   7.545  15.471  1.00  0.00     0.020 C 
HETATM   15  C10 UNL     1      24.856   7.140  16.467  1.00  0.00     0.039 C 
HETATM   16  C11 UNL     1      25.167   7.396  17.878  1.00  0.00     0.025 C 
HETATM   17  C12 UNL     1      24.355   5.770  16.167  1.00  0.00     0.142 C 
HETATM   18  C15 UNL     1      23.622   7.910  15.968  1.00  0.00     0.062 C 
HETATM   19  O2  UNL     1      24.469   4.834  16.922  1.00  0.00    -0.297 OA
HETATM   20  C13 UNL     1      23.744   5.883  14.814  1.00  0.00     0.069 C 
HETATM   21  C14 UNL     1      24.595   5.081  13.891  1.00  0.00     0.019 C 
HETATM   22  C16 UNL     1      23.803   9.376  16.080  1.00  0.00     0.035 C 
HETATM   23 CL1  UNL     1      22.129   7.305  16.656  1.00  0.00    -0.117 Cl
ENDBRANCH   1  12
TORSDOF 5
ENDMDL
MODEL 4
REMARK VINA RESULT: -6.851285228      2.852      5.098
REMARK  5 active torsions:
REMARK  status: ('A' for Active; 'I' for Inactive)
REMARK    1  A    between atoms: C2_2  and  C4_4 
REMARK    2  A    between atoms: C4_4  and  O1_5 
REMARK    3  A    between atoms: C4_4  and  N1_7 
REMARK    4  A    between atoms: N1_7  and  C5_9 
REMARK    5  A    between atoms: C5_9  and  C7_12 
ROOT
HETATM    1  C5  UNL     1      24.233   6.520  15.650  1.00  0.00     0.100 C 
HETATM    2  C6  UNL     1      24.364   5.512  16.722  1.00  0.00     0.114 C 
HETATM    3  N2  UNL     1      24.466   4.695  17.553  1.00  0.00    -0.190 NA
ENDROOT
BRANCH   1   4
HETATM    4  N1  UNL     1      25.151   6.354  14.619  1.00  0.00    -0.358 N 
ATOM      5  H1  UNL     1      25.847   7.086  14.478  1.00  0.00     0.162 HD
BRANCH   4   6
HETATM    6  C4  UNL     1      25.181   5.253  13.763  1.00  0.00     0.221 C 
BRANCH   6   7
HETATM    7  C2  UNL     1      23.864   5.300  12.946  1.00  0.00     0.026 C 
HETATM    8  C1  UNL     1      23.411   3.886  12.645  1.00  0.00     0.014 C 
HETATM    9  C3  UNL     1      24.038   6.050  11.653  1.00  0.00     0.014 C 
ENDBRANCH   6   7
BRANCH   6  10
HETATM   10  O1  UNL     1      25.146   3.988  14.386  1.00  0.00    -0.377 OA
ATOM     11  H1  UNL     1      25.806   3.487  13.920  1.00  0.00     0.212 HD
ENDBRANCH   6  10
ENDBRANCH   4   6
ENDBRANCH   1   4
BRANCH   1  12
HETATM   12  C7  UNL     1      23.922   7.866  16.131  1.00  0.00     0.044 C 
HETATM   13  C8  UNL     1      24.909   8.955  16.051  1.00  0.00     0.020 C 
HETATM   14  C9  UNL     1      24.057  10.231  16.214  1.00  0.00     0.020 C 
HETATM   15  C10 UNL     1      22.654   9.743  16.245  1.00  0.00     0.039 C 
HETATM   16  C11 UNL     1      21.615  10.686  15.819  1.00  0.00     0.025 C 
HETATM   17  C12 UNL     1      22.381   9.036  17.528  1.00  0.00     0.142 C 
HETATM   18  C15 UNL     1      22.744   8.495  15.352  1.00  0.00     0.062 C 
HETATM   19  O2  UNL     1      21.550   9.396  18.327  1.00  0.00    -0.297 OA
HETATM   20  C13 UNL     1      23.328   7.888  17.532  1.00  0.00     0.069 C 
HETATM   21  C14 UNL     1      24.310   8.145  18.623  1.00  0.00     0.019 C 
HETATM   22  C16 UNL     1      23.068   8.840  13.949  1.00  0.00     0.035 C 
HETATM   23 CL1  UNL     1      21.364   7.433  15.542  1.00  0.00    -0.117 Cl
ENDBRANCH   1  12
TORSDOF 5
ENDMDL
MODEL 5
REMARK VINA RESULT: -6.818217892      3.181      5.384
REMARK  5 active torsions:
REMARK  status: ('A' for Active; 'I' for Inactive)
REMARK    1  A    between atoms: C2_2  and  C4_4 
REMARK    2  A    between atoms: C4_4  and  O1_5 
REMARK    3  A    between atoms: C4_4  and  N1_7 
REMARK    4  A    between atoms: N1_7  and  C5_9 
REMARK    5  A    between atoms: C5_9  and  C7_12 
ROOT
HETATM    1  C5  UNL     1      24.000   6.280  15.350  1.00  0.00     0.100 C 
HETATM    2  C6  UNL     1      24.226   5.542  16.611  1.00  0.00     0.114 C 
HETATM    3  N2  UNL     1      24.406   4.935  17.594  1.00  0.00    -0.190 NA
ENDROOT
BRANCH   1   4
HETATM    4  N1  UNL     1      24.965   6.029  14.382  1.00  0.00    -0.358 N 
ATOM      5  H1  UNL     1      25.760   6.665  14.325  1.00  0.00     0.162 HD
BRANCH   4   6
HETATM    6  C4  UNL     1      24.917   4.964  13.482  1.00  0.00     0.221 C 
BRANCH   6   7
HETATM    7  C2  UNL     1      23.624   5.158  12.647  1.00  0.00     0.026 C 
HETATM    8  C1  UNL     1      23.061   3.802  12.275  1.00  0.00     0.014 C 
HETATM    9  C3  UNL     1      23.884   5.946  11.393  1.00  0.00     0.014 C 
ENDBRANCH   6   7
BRANCH   6  10
HETATM   10  O1  UNL     1      24.763   3.683  14.050  1.00  0.00    -0.377 OA
ATOM     11  H1  UNL     1      24.644   3.859  14.976  1.00  0.00     0.212 HD
ENDBRANCH   6  10
ENDBRANCH   4   6
ENDBRANCH   1   4
BRANCH   1  12
HETATM   12  C7  UNL     1      23.502   7.642  15.538  1.00  0.00     0.044 C 
HETATM   13  C8  UNL     1      23.869   8.726  14.613  1.00  0.00     0.020 C 
HETATM   14  C9  UNL     1      22.807   9.813  14.887  1.00  0.00     0.020 C 
HETATM   15  C10 UNL     1      21.870   9.185  15.853  1.00  0.00     0.039 C 
HETATM   16  C11 UNL     1      20.495   9.698  15.870  1.00  0.00     0.025 C 
HETATM   17  C12 UNL     1      22.514   9.055  17.189  1.00  0.00     0.142 C 
HETATM   18  C15 UNL     1      21.960   7.705  15.449  1.00  0.00     0.062 C 
HETATM   19  O2  UNL     1      22.101   9.593  18.188  1.00  0.00    -0.297 OA
HETATM   20  C13 UNL     1      23.686   8.167  16.955  1.00  0.00     0.069 C 
HETATM   21  C14 UNL     1      24.904   9.000  17.159  1.00  0.00     0.019 C 
HETATM   22  C16 UNL     1      21.427   7.468  14.088  1.00  0.00     0.035 C 
HETATM   23 CL1  UNL     1      21.320   6.634  16.679  1.00  0.00    -0.117 Cl
ENDBRANCH   1  12
TORSDOF 5
ENDMDL
