MODEL 1
REMARK VINA RESULT: -6.471552982      0.000      0.000
REMARK  4 active torsions:
REMARK  status: ('A' for Active; 'I' for Inactive)
REMARK    1  A    between atoms: C3_4  and  C4_5 
REMARK    2  A    between atoms: C5_9  and  S1_10 
REMARK    3  A    between atoms: S1_10  and  C6_11 
REMARK    4  A    between atoms: C11_18  and  N4_19 
ROOT
HETATM    1  N1  UNL     1      22.282   6.224  20.336  1.00  0.00    -0.191 NA
HETATM    2  C1  UNL     1      22.651   6.135  19.251  1.00  0.00     0.105 C 
HETATM    3  C2  UNL     1      23.105   6.038  17.892  1.00  0.00     0.111 A 
HETATM    4  C3  UNL     1      22.316   6.438  16.831  1.00  0.00     0.045 A 
HETATM    5  N2  UNL     1      22.775   6.333  15.565  1.00  0.00    -0.338 N 
ATOM      6  H2  UNL     1      22.174   6.637  14.798  1.00  0.00     0.168 HD
HETATM    7  C5  UNL     1      23.996   5.842  15.277  1.00  0.00     0.146 A 
HETATM    8  N3  UNL     1      24.780   5.447  16.298  1.00  0.00    -0.322 N 
ATOM      9  H3  UNL     1      25.709   5.074  16.102  1.00  0.00     0.169 HD
HETATM   10  C11 UNL     1      24.353   5.538  17.591  1.00  0.00     0.123 A 
ENDROOT
BRANCH   4  11
HETATM   11  C4  UNL     1      20.967   6.982  17.138  1.00  0.00     0.144 C 
HETATM   12 BR1  UNL     1      19.848   6.933  15.570  1.00  0.00    -0.090 Br
ENDBRANCH   4  11
BRANCH  10  13
HETATM   13  N4  UNL     1      25.117   5.152  18.566  1.00  0.00    -0.384 N 
ATOM     14  H42 UNL     1      24.904   5.416  19.528  1.00  0.00     0.157 HD
ATOM     15  H41 UNL     1      25.934   4.582  18.348  1.00  0.00     0.157 HD
ENDBRANCH  10  13
BRANCH   7  16
HETATM   16  S1  UNL     1      24.524   5.738  13.581  1.00  0.00    -0.089 SA
BRANCH  16  17
HETATM   17  C6  UNL     1      23.219   5.359  12.445  1.00  0.00     0.055 C 
HETATM   18  C7  UNL     1      22.974   3.888  12.215  1.00  0.00     0.015 C 
HETATM   19  C8  UNL     1      22.027   3.968  11.010  1.00  0.00     0.001 C 
HETATM   20  C9  UNL     1      22.504   5.175  10.223  1.00  0.00     0.001 C 
HETATM   21  C10 UNL     1      23.630   5.794  11.053  1.00  0.00     0.015 C 
ENDBRANCH  16  17
ENDBRANCH   7  16
TORSDOF 4
ENDMDL
MODEL 2
REMARK VINA RESULT: -6.451671467      1.947      2.688
REMARK  4 active torsions:
REMARK  status: ('A' for Active; 'I' for Inactive)
REMARK    1  A    between atoms: C3_4  and  C4_5 
REMARK    2  A    between atoms: C5_9  and  S1_10 
REMARK    3  A    between atoms: S1_10  and  C6_11 
REMARK    4  A    between atoms: C11_18  and  N4_19 
ROOT
HETATM    1  N1  UNL     1      22.041   6.171  20.464  1.00  0.00    -0.191 NA
HETATM    2  C1  UNL     1      22.436   6.120  19.386  1.00  0.00     0.105 C 
HETATM    3  C2  UNL     1      22.938   6.044  18.043  1.00  0.00     0.111 A 
HETATM    4  C3  UNL     1      24.210   5.581  17.766  1.00  0.00     0.045 A 
HETATM    5  N2  UNL     1      24.650   5.522  16.490  1.00  0.00    -0.338 N 
ATOM      6  H2  UNL     1      25.592   5.176  16.311  1.00  0.00     0.168 HD
HETATM    7  C5  UNL     1      23.889   5.903  15.446  1.00  0.00     0.146 A 
HETATM    8  N3  UNL     1      22.646   6.356  15.695  1.00  0.00    -0.322 N 
ATOM      9  H3  UNL     1      22.053   6.648  14.918  1.00  0.00     0.169 HD
HETATM   10  C11 UNL     1      22.165   6.430  16.969  1.00  0.00     0.123 A 
ENDROOT
BRANCH   4  11
HETATM   11  C4  UNL     1      25.057   5.158  18.913  1.00  0.00     0.144 C 
HETATM   12 BR1  UNL     1      26.075   6.650  19.584  1.00  0.00    -0.090 Br
ENDBRANCH   4  11
BRANCH  10  13
HETATM   13  N4  UNL     1      20.966   6.870  17.198  1.00  0.00    -0.384 N 
ATOM     14  H42 UNL     1      20.763   7.414  18.036  1.00  0.00     0.157 HD
ATOM     15  H41 UNL     1      20.232   6.657  16.521  1.00  0.00     0.157 HD
ENDBRANCH  10  13
BRANCH   7  16
HETATM   16  S1  UNL     1      24.545   5.792  13.796  1.00  0.00    -0.089 SA
BRANCH  16  17
HETATM   17  C6  UNL     1      23.319   5.486  12.555  1.00  0.00     0.055 C 
HETATM   18  C7  UNL     1      23.092   4.031  12.222  1.00  0.00     0.015 C 
HETATM   19  C8  UNL     1      22.227   4.186  10.963  1.00  0.00     0.001 C 
HETATM   20  C9  UNL     1      22.753   5.437  10.283  1.00  0.00     0.001 C 
HETATM   21  C10 UNL     1      23.822   6.002  11.221  1.00  0.00     0.015 C 
ENDBRANCH  16  17
ENDBRANCH   7  16
TORSDOF 4
ENDMDL
MODEL 3
REMARK VINA RESULT: -6.144838766      5.002      8.013
REMARK  4 active torsions:
REMARK  status: ('A' for Active; 'I' for Inactive)
REMARK    1  A    between atoms: C3_4  and  C4_5 
REMARK    2  A    between atoms: C5_9  and  S1_10 
REMARK    3  A    between atoms: S1_10  and  C6_11 
REMARK    4  A    between atoms: C11_18  and  N4_19 
ROOT
HETATM    1  N1  UNL     1      20.700   6.716  18.086  1.00  0.00    -0.191 NA
HETATM    2  C1  UNL     1      21.766   6.748  18.517  1.00  0.00     0.105 C 
HETATM    3  C2  UNL     1      23.096   6.805  19.054  1.00  0.00     0.111 A 
HETATM    4  C3  UNL     1      23.994   7.783  18.672  1.00  0.00     0.045 A 
HETATM    5  N2  UNL     1      25.238   7.807  19.198  1.00  0.00    -0.338 N 
ATOM      6  H2  UNL     1      25.883   8.539  18.901  1.00  0.00     0.168 HD
HETATM    7  C5  UNL     1      25.658   6.900  20.101  1.00  0.00     0.146 A 
HETATM    8  N3  UNL     1      24.797   5.940  20.487  1.00  0.00    -0.322 N 
ATOM      9  H3  UNL     1      25.095   5.244  21.171  1.00  0.00     0.169 HD
HETATM   10  C11 UNL     1      23.532   5.882  19.979  1.00  0.00     0.123 A 
ENDROOT
BRANCH   4  11
HETATM   11  C4  UNL     1      23.540   8.789  17.675  1.00  0.00     0.144 C 
HETATM   12 BR1  UNL     1      24.851   8.992  16.278  1.00  0.00    -0.090 Br
ENDBRANCH   4  11
BRANCH  10  13
HETATM   13  N4  UNL     1      22.711   4.950  20.357  1.00  0.00    -0.384 N 
ATOM     14  H42 UNL     1      22.023   4.570  19.708  1.00  0.00     0.157 HD
ATOM     15  H41 UNL     1      22.769   4.611  21.318  1.00  0.00     0.157 HD
ENDBRANCH  10  13
BRANCH   7  16
HETATM   16  S1  UNL     1      27.313   7.003  20.745  1.00  0.00    -0.089 SA
BRANCH  16  17
HETATM   17  C6  UNL     1      27.628   8.472  21.683  1.00  0.00     0.055 C 
HETATM   18  C7  UNL     1      29.084   8.758  21.959  1.00  0.00     0.015 C 
HETATM   19  C8  UNL     1      28.935   9.882  22.994  1.00  0.00     0.001 C 
HETATM   20  C9  UNL     1      27.681   9.528  23.773  1.00  0.00     0.001 C 
HETATM   21  C10 UNL     1      27.109   8.281  23.095  1.00  0.00     0.015 C 
ENDBRANCH  16  17
ENDBRANCH   7  16
TORSDOF 4
ENDMDL
MODEL 4
REMARK VINA RESULT: -6.133283161      2.132      3.008
REMARK  4 active torsions:
REMARK  status: ('A' for Active; 'I' for Inactive)
REMARK    1  A    between atoms: C3_4  and  C4_5 
REMARK    2  A    between atoms: C5_9  and  S1_10 
REMARK    3  A    between atoms: S1_10  and  C6_11 
REMARK    4  A    between atoms: C11_18  and  N4_19 
ROOT
HETATM    1  N1  UNL     1      21.965   6.059  20.374  1.00  0.00    -0.191 NA
HETATM    2  C1  UNL     1      22.492   6.148  19.356  1.00  0.00     0.105 C 
HETATM    3  C2  UNL     1      23.158   6.245  18.088  1.00  0.00     0.111 A 
HETATM    4  C3  UNL     1      24.474   5.857  17.925  1.00  0.00     0.045 A 
HETATM    5  N2  UNL     1      25.069   5.962  16.717  1.00  0.00    -0.338 N 
ATOM      6  H2  UNL     1      26.041   5.668  16.622  1.00  0.00     0.168 HD
HETATM    7  C5  UNL     1      24.427   6.440  15.634  1.00  0.00     0.146 A 
HETATM    8  N3  UNL     1      23.143   6.823  15.772  1.00  0.00    -0.322 N 
ATOM      9  H3  UNL     1      22.638   7.187  14.964  1.00  0.00     0.169 HD
HETATM   10  C11 UNL     1      22.507   6.732  16.976  1.00  0.00     0.123 A 
ENDROOT
BRANCH   4  11
HETATM   11  C4  UNL     1      25.191   5.328  19.115  1.00  0.00     0.144 C 
HETATM   12 BR1  UNL     1      26.275   6.705  19.915  1.00  0.00    -0.090 Br
ENDBRANCH   4  11
BRANCH  10  13
HETATM   13  N4  UNL     1      21.270   7.106  17.098  1.00  0.00    -0.384 N 
ATOM     14  H42 UNL     1      20.538   6.422  17.290  1.00  0.00     0.157 HD
ATOM     15  H41 UNL     1      21.048   8.096  16.995  1.00  0.00     0.157 HD
ENDBRANCH  10  13
BRANCH   7  16
HETATM   16  S1  UNL     1      25.285   6.544  14.079  1.00  0.00    -0.089 SA
BRANCH  16  17
HETATM   17  C6  UNL     1      24.585   5.533  12.804  1.00  0.00     0.055 C 
HETATM   18  C7  UNL     1      23.805   6.279  11.749  1.00  0.00     0.015 C 
HETATM   19  C8  UNL     1      23.142   5.094  11.032  1.00  0.00     0.001 C 
HETATM   20  C9  UNL     1      22.882   4.075  12.128  1.00  0.00     0.001 C 
HETATM   21  C10 UNL     1      23.493   4.668  13.399  1.00  0.00     0.015 C 
ENDBRANCH  16  17
ENDBRANCH   7  16
TORSDOF 4
ENDMDL
MODEL 5
REMARK VINA RESULT: -5.931431759      2.803      6.252
REMARK  4 active torsions:
REMARK  status: ('A' for Active; 'I' for Inactive)
REMARK    1  A    between atoms: C3_4  and  C4_5 
REMARK    2  A    between atoms: C5_9  and  S1_10 
REMARK    3  A    between atoms: S1_10  and  C6_11 
REMARK    4  A    between atoms: C11_18  and  N4_19 
ROOT
HETATM    1  N1  UNL     1      24.258   6.108  11.551  1.00  0.00    -0.191 NA
HETATM    2  C1  UNL     1      24.086   6.071  12.687  1.00  0.00     0.105 C 
HETATM    3  C2  UNL     1      23.855   6.029  14.104  1.00  0.00     0.111 A 
HETATM    4  C3  UNL     1      22.997   6.913  14.728  1.00  0.00     0.045 A 
HETATM    5  N2  UNL     1      22.802   6.845  16.063  1.00  0.00    -0.338 N 
ATOM      6  H2  UNL     1      22.162   7.508  16.500  1.00  0.00     0.168 HD
HETATM    7  C5  UNL     1      23.421   5.933  16.837  1.00  0.00     0.146 A 
HETATM    8  N3  UNL     1      24.261   5.062  16.247  1.00  0.00    -0.322 N 
ATOM      9  H3  UNL     1      24.739   4.363  16.816  1.00  0.00     0.169 HD
HETATM   10  C11 UNL     1      24.484   5.098  14.902  1.00  0.00     0.123 A 
ENDROOT
BRANCH   4  11
HETATM   11  C4  UNL     1      22.308   7.924  13.881  1.00  0.00     0.144 C 
HETATM   12 BR1  UNL     1      23.254   9.602  13.932  1.00  0.00    -0.090 Br
ENDBRANCH   4  11
BRANCH  10  13
HETATM   13  N4  UNL     1      25.297   4.254  14.344  1.00  0.00    -0.384 N 
ATOM     14  H42 UNL     1      24.938   3.443  13.841  1.00  0.00     0.157 HD
ATOM     15  H41 UNL     1      26.300   4.421  14.423  1.00  0.00     0.157 HD
ENDBRANCH  10  13
BRANCH   7  16
HETATM   16  S1  UNL     1      23.108   5.911  18.588  1.00  0.00    -0.089 SA
BRANCH  16  17
HETATM   17  C6  UNL     1      24.459   6.509  19.566  1.00  0.00     0.055 C 
HETATM   18  C7  UNL     1      25.154   7.733  19.022  1.00  0.00     0.015 C 
HETATM   19  C8  UNL     1      26.385   7.761  19.937  1.00  0.00     0.001 C 
HETATM   20  C9  UNL     1      26.703   6.300  20.203  1.00  0.00     0.001 C 
HETATM   21  C10 UNL     1      25.591   5.502  19.519  1.00  0.00     0.015 C 
ENDBRANCH  16  17
ENDBRANCH   7  16
TORSDOF 4
ENDMDL
