MODEL 1
REMARK VINA RESULT: -7.362875710      0.000      0.000
REMARK  5 active torsions:
REMARK  status: ('A' for Active; 'I' for Inactive)
REMARK    1  A    between atoms: C5_7  and  O1_8 
REMARK    2  A    between atoms: O1_8  and  C6_9 
REMARK    3  A    between atoms: C6_9  and  C7_10 
REMARK    4  A    between atoms: C7_10  and  N2_11 
REMARK    5  A    between atoms: C17_24  and  N4_25 
ROOT
HETATM    1  C1  UNL     1      23.534   4.926  20.330  1.00  0.00     0.072 C 
HETATM    2  C2  UNL     1      23.993   5.665  19.106  1.00  0.00     0.050 A 
HETATM    3  N1  UNL     1      23.123   6.107  18.187  1.00  0.00    -0.355 N 
ATOM      4  H1  UNL     1      22.119   5.956  18.291  1.00  0.00     0.166 HD
HETATM    5  C3  UNL     1      23.638   6.770  17.099  1.00  0.00     0.062 A 
HETATM    6  C4  UNL     1      22.809   7.248  16.123  1.00  0.00     0.071 A 
HETATM    7  C5  UNL     1      23.309   7.932  14.995  1.00  0.00     0.109 A 
HETATM    8  C14 UNL     1      24.685   8.135  14.859  1.00  0.00     0.151 A 
HETATM    9  F1  UNL     1      25.106   8.799  13.755  1.00  0.00    -0.203 F 
HETATM   10  C15 UNL     1      25.502   7.654  15.841  1.00  0.00     0.077 A 
HETATM   11  C16 UNL     1      24.989   6.979  16.949  1.00  0.00     0.063 A 
HETATM   12  N3  UNL     1      25.825   6.525  17.884  1.00  0.00    -0.339 N 
ATOM     13  H3  UNL     1      26.829   6.674  17.783  1.00  0.00     0.167 HD
HETATM   14  C17 UNL     1      25.350   5.873  18.958  1.00  0.00     0.122 A 
ENDROOT
BRANCH   7  15
HETATM   15  O1  UNL     1      22.446   8.344  14.123  1.00  0.00    -0.346 OA
BRANCH  15  16
HETATM   16  C6  UNL     1      21.581   8.754  13.245  1.00  0.00     0.206 C 
BRANCH  16  17
HETATM   17  C7  UNL     1      21.702   7.935  11.968  1.00  0.00     0.299 C 
BRANCH  17  18
HETATM   18  N2  UNL     1      21.819   6.510  12.194  1.00  0.00     0.094 N 
HETATM   19  C8  UNL     1      20.788   5.911  11.370  1.00  0.00     0.273 C 
HETATM   20  C9  UNL     1      20.847   4.445  11.258  1.00  0.00     0.030 C 
HETATM   21  C10 UNL     1      22.223   3.861  11.207  1.00  0.00     0.004 C 
HETATM   22  C11 UNL     1      23.210   4.553  12.089  1.00  0.00     0.035 C 
HETATM   23  C12 UNL     1      23.140   6.033  11.793  1.00  0.00     0.219 C 
HETATM   24  C13 UNL     1      23.389   6.208  10.311  1.00  0.00     0.043 C 
ENDBRANCH  17  18
ENDBRANCH  16  17
ENDBRANCH  15  16
ENDBRANCH   7  15
BRANCH  14  25
HETATM   25  N4  UNL     1      26.159   5.442  19.850  1.00  0.00    -0.384 N 
ATOM     26  H42 UNL     1      26.182   4.447  20.076  1.00  0.00     0.157 HD
ATOM     27  H41 UNL     1      26.777   6.095  20.331  1.00  0.00     0.157 HD
ENDBRANCH  14  25
TORSDOF 5
ENDMDL
MODEL 2
REMARK VINA RESULT: -7.263219004      3.150      8.249
REMARK  5 active torsions:
REMARK  status: ('A' for Active; 'I' for Inactive)
REMARK    1  A    between atoms: C5_7  and  O1_8 
REMARK    2  A    between atoms: O1_8  and  C6_9 
REMARK    3  A    between atoms: C6_9  and  C7_10 
REMARK    4  A    between atoms: C7_10  and  N2_11 
REMARK    5  A    between atoms: C17_24  and  N4_25 
ROOT
HETATM    1  C1  UNL     1      23.517   9.525   6.774  1.00  0.00     0.072 C 
HETATM    2  C2  UNL     1      23.140   8.301   7.558  1.00  0.00     0.050 A 
HETATM    3  N1  UNL     1      23.691   8.036   8.751  1.00  0.00    -0.355 N 
ATOM      4  H1  UNL     1      24.384   8.660   9.166  1.00  0.00     0.166 HD
HETATM    5  C3  UNL     1      23.286   6.890   9.393  1.00  0.00     0.062 A 
HETATM    6  C4  UNL     1      23.806   6.558  10.612  1.00  0.00     0.071 A 
HETATM    7  C5  UNL     1      23.409   5.388  11.293  1.00  0.00     0.109 A 
HETATM    8  C14 UNL     1      22.460   4.538  10.720  1.00  0.00     0.151 A 
HETATM    9  F1  UNL     1      22.118   3.429  11.421  1.00  0.00    -0.203 F 
HETATM   10  C15 UNL     1      21.948   4.881   9.502  1.00  0.00     0.077 A 
HETATM   11  C16 UNL     1      22.353   6.042   8.843  1.00  0.00     0.063 A 
HETATM   12  N3  UNL     1      21.826   6.338   7.654  1.00  0.00    -0.339 N 
ATOM     13  H3  UNL     1      21.133   5.716   7.236  1.00  0.00     0.167 HD
HETATM   14  C17 UNL     1      22.203   7.451   7.004  1.00  0.00     0.122 A 
ENDROOT
BRANCH   7  15
HETATM   15  O1  UNL     1      23.961   5.157  12.441  1.00  0.00    -0.346 OA
BRANCH  15  16
HETATM   16  C6  UNL     1      24.516   4.930  13.594  1.00  0.00     0.206 C 
BRANCH  16  17
HETATM   17  C7  UNL     1      25.321   6.143  14.035  1.00  0.00     0.299 C 
BRANCH  17  18
HETATM   18  N2  UNL     1      24.638   6.983  14.996  1.00  0.00     0.094 N 
HETATM   19  C8  UNL     1      25.693   7.661  15.723  1.00  0.00     0.273 C 
HETATM   20  C9  UNL     1      25.246   8.742  16.615  1.00  0.00     0.030 C 
HETATM   21  C10 UNL     1      24.098   9.557  16.108  1.00  0.00     0.004 C 
HETATM   22  C11 UNL     1      23.069   8.765  15.371  1.00  0.00     0.035 C 
HETATM   23  C12 UNL     1      23.780   7.949  14.316  1.00  0.00     0.219 C 
HETATM   24  C13 UNL     1      24.568   8.913  13.456  1.00  0.00     0.043 C 
ENDBRANCH  17  18
ENDBRANCH  16  17
ENDBRANCH  15  16
ENDBRANCH   7  15
BRANCH  14  25
HETATM   25  N4  UNL     1      21.692   7.727   5.864  1.00  0.00    -0.384 N 
ATOM     26  H42 UNL     1      21.923   7.154   5.052  1.00  0.00     0.157 HD
ATOM     27  H41 UNL     1      21.056   8.519   5.773  1.00  0.00     0.157 HD
ENDBRANCH  14  25
TORSDOF 5
ENDMDL
MODEL 3
REMARK VINA RESULT: -7.058576681      3.168      8.491
REMARK  5 active torsions:
REMARK  status: ('A' for Active; 'I' for Inactive)
REMARK    1  A    between atoms: C5_7  and  O1_8 
REMARK    2  A    between atoms: O1_8  and  C6_9 
REMARK    3  A    between atoms: C6_9  and  C7_10 
REMARK    4  A    between atoms: C7_10  and  N2_11 
REMARK    5  A    between atoms: C17_24  and  N4_25 
ROOT
HETATM    1  C1  UNL     1      23.135   9.562   6.395  1.00  0.00     0.072 C 
HETATM    2  C2  UNL     1      22.875   8.372   7.273  1.00  0.00     0.050 A 
HETATM    3  N1  UNL     1      23.543   8.189   8.421  1.00  0.00    -0.355 N 
ATOM      4  H1  UNL     1      24.248   8.855   8.737  1.00  0.00     0.166 HD
HETATM    5  C3  UNL     1      23.238   7.068   9.155  1.00  0.00     0.062 A 
HETATM    6  C4  UNL     1      23.879   6.818  10.336  1.00  0.00     0.071 A 
HETATM    7  C5  UNL     1      23.588   5.675  11.110  1.00  0.00     0.109 A 
HETATM    8  C14 UNL     1      22.620   4.768  10.672  1.00  0.00     0.151 A 
HETATM    9  F1  UNL     1      22.382   3.689  11.458  1.00  0.00    -0.203 F 
HETATM   10  C15 UNL     1      21.986   5.029   9.492  1.00  0.00     0.077 A 
HETATM   11  C16 UNL     1      22.289   6.164   8.740  1.00  0.00     0.063 A 
HETATM   12  N3  UNL     1      21.645   6.379   7.591  1.00  0.00    -0.339 N 
ATOM     13  H3  UNL     1      20.939   5.715   7.272  1.00  0.00     0.167 HD
HETATM   14  C17 UNL     1      21.922   7.466   6.853  1.00  0.00     0.122 A 
ENDROOT
BRANCH   7  15
HETATM   15  O1  UNL     1      24.250   5.524  12.212  1.00  0.00    -0.346 OA
BRANCH  15  16
HETATM   16  C6  UNL     1      24.911   5.375  13.320  1.00  0.00     0.206 C 
BRANCH  16  17
HETATM   17  C7  UNL     1      24.058   5.809  14.502  1.00  0.00     0.299 C 
BRANCH  17  18
HETATM   18  N2  UNL     1      24.805   6.463  15.557  1.00  0.00     0.094 N 
HETATM   19  C8  UNL     1      24.605   7.881  15.338  1.00  0.00     0.273 C 
HETATM   20  C9  UNL     1      25.090   8.756  16.417  1.00  0.00     0.030 C 
HETATM   21  C10 UNL     1      24.916   8.221  17.803  1.00  0.00     0.004 C 
HETATM   22  C11 UNL     1      25.140   6.749  17.919  1.00  0.00     0.035 C 
HETATM   23  C12 UNL     1      24.297   6.067  16.867  1.00  0.00     0.219 C 
HETATM   24  C13 UNL     1      22.865   6.505  17.084  1.00  0.00     0.043 C 
ENDBRANCH  17  18
ENDBRANCH  16  17
ENDBRANCH  15  16
ENDBRANCH   7  15
BRANCH  14  25
HETATM   25  N4  UNL     1      21.299   7.664   5.753  1.00  0.00    -0.384 N 
ATOM     26  H42 UNL     1      20.321   7.385   5.666  1.00  0.00     0.157 HD
ATOM     27  H41 UNL     1      21.784   8.101   4.969  1.00  0.00     0.157 HD
ENDBRANCH  14  25
TORSDOF 5
ENDMDL
MODEL 4
REMARK VINA RESULT: -6.992284857      4.355      9.254
REMARK  5 active torsions:
REMARK  status: ('A' for Active; 'I' for Inactive)
REMARK    1  A    between atoms: C5_7  and  O1_8 
REMARK    2  A    between atoms: O1_8  and  C6_9 
REMARK    3  A    between atoms: C6_9  and  C7_10 
REMARK    4  A    between atoms: C7_10  and  N2_11 
REMARK    5  A    between atoms: C17_24  and  N4_25 
ROOT
HETATM    1  C1  UNL     1      24.563   9.156  13.257  1.00  0.00     0.072 C 
HETATM    2  C2  UNL     1      24.494   8.193  14.406  1.00  0.00     0.050 A 
HETATM    3  N1  UNL     1      24.997   8.500  15.610  1.00  0.00    -0.355 N 
ATOM      4  H1  UNL     1      25.442   9.402  15.784  1.00  0.00     0.166 HD
HETATM    5  C3  UNL     1      24.889   7.552  16.599  1.00  0.00     0.062 A 
HETATM    6  C4  UNL     1      25.380   7.798  17.850  1.00  0.00     0.071 A 
HETATM    7  C5  UNL     1      25.285   6.844  18.885  1.00  0.00     0.109 A 
HETATM    8  C14 UNL     1      24.674   5.612  18.639  1.00  0.00     0.151 A 
HETATM    9  F1  UNL     1      24.610   4.735  19.672  1.00  0.00    -0.203 F 
HETATM   10  C15 UNL     1      24.187   5.378  17.385  1.00  0.00     0.077 A 
HETATM   11  C16 UNL     1      24.292   6.334  16.375  1.00  0.00     0.063 A 
HETATM   12  N3  UNL     1      23.802   6.063  15.164  1.00  0.00    -0.339 N 
ATOM     13  H3  UNL     1      23.357   5.162  14.986  1.00  0.00     0.167 HD
HETATM   14  C17 UNL     1      23.893   6.970  14.178  1.00  0.00     0.122 A 
ENDROOT
BRANCH   7  15
HETATM   15  O1  UNL     1      25.782   7.168  20.035  1.00  0.00    -0.346 OA
BRANCH  15  16
HETATM   16  C6  UNL     1      26.284   7.489  21.189  1.00  0.00     0.206 C 
BRANCH  16  17
HETATM   17  C7  UNL     1      27.803   7.510  21.112  1.00  0.00     0.299 C 
BRANCH  17  18
HETATM   18  N2  UNL     1      28.417   8.551  21.909  1.00  0.00     0.094 N 
HETATM   19  C8  UNL     1      27.347   9.079  22.732  1.00  0.00     0.273 C 
HETATM   20  C9  UNL     1      27.770  10.007  23.791  1.00  0.00     0.030 C 
HETATM   21  C10 UNL     1      29.073   9.678  24.449  1.00  0.00     0.004 C 
HETATM   22  C11 UNL     1      30.106   9.139  23.515  1.00  0.00     0.035 C 
HETATM   23  C12 UNL     1      29.483   8.000  22.742  1.00  0.00     0.219 C 
HETATM   24  C13 UNL     1      28.964   7.000  23.752  1.00  0.00     0.043 C 
ENDBRANCH  17  18
ENDBRANCH  16  17
ENDBRANCH  15  16
ENDBRANCH   7  15
BRANCH  14  25
HETATM   25  N4  UNL     1      23.421   6.702  13.020  1.00  0.00    -0.384 N 
ATOM     26  H42 UNL     1      23.675   7.283  12.221  1.00  0.00     0.157 HD
ATOM     27  H41 UNL     1      22.793   5.907  12.902  1.00  0.00     0.157 HD
ENDBRANCH  14  25
TORSDOF 5
ENDMDL
MODEL 5
REMARK VINA RESULT: -6.975989089      0.956      1.761
REMARK  5 active torsions:
REMARK  status: ('A' for Active; 'I' for Inactive)
REMARK    1  A    between atoms: C5_7  and  O1_8 
REMARK    2  A    between atoms: O1_8  and  C6_9 
REMARK    3  A    between atoms: C6_9  and  C7_10 
REMARK    4  A    between atoms: C7_10  and  N2_11 
REMARK    5  A    between atoms: C17_24  and  N4_25 
ROOT
HETATM    1  C1  UNL     1      23.561   4.887  20.381  1.00  0.00     0.072 C 
HETATM    2  C2  UNL     1      24.054   5.597  19.153  1.00  0.00     0.050 A 
HETATM    3  N1  UNL     1      23.213   5.987  18.185  1.00  0.00    -0.355 N 
ATOM      4  H1  UNL     1      22.210   5.816  18.252  1.00  0.00     0.166 HD
HETATM    5  C3  UNL     1      23.758   6.627  17.097  1.00  0.00     0.062 A 
HETATM    6  C4  UNL     1      22.961   7.052  16.073  1.00  0.00     0.071 A 
HETATM    7  C5  UNL     1      23.492   7.711  14.944  1.00  0.00     0.109 A 
HETATM    8  C14 UNL     1      24.867   7.943  14.858  1.00  0.00     0.151 A 
HETATM    9  F1  UNL     1      25.320   8.581  13.750  1.00  0.00    -0.203 F 
HETATM   10  C15 UNL     1      25.653   7.514  15.888  1.00  0.00     0.077 A 
HETATM   11  C16 UNL     1      25.109   6.863  16.996  1.00  0.00     0.063 A 
HETATM   12  N3  UNL     1      25.915   6.461  17.980  1.00  0.00    -0.339 N 
ATOM     13  H3  UNL     1      26.919   6.630  17.916  1.00  0.00     0.167 HD
HETATM   14  C17 UNL     1      25.411   5.833  19.054  1.00  0.00     0.122 A 
ENDROOT
BRANCH   7  15
HETATM   15  O1  UNL     1      22.657   8.073  14.023  1.00  0.00    -0.346 OA
BRANCH  15  16
HETATM   16  C6  UNL     1      21.820   8.432  13.097  1.00  0.00     0.206 C 
BRANCH  16  17
HETATM   17  C7  UNL     1      21.295   7.208  12.362  1.00  0.00     0.299 C 
BRANCH  17  18
HETATM   18  N2  UNL     1      21.560   7.220  10.939  1.00  0.00     0.094 N 
HETATM   19  C8  UNL     1      22.392   8.386  10.719  1.00  0.00     0.273 C 
HETATM   20  C9  UNL     1      22.978   8.493   9.374  1.00  0.00     0.030 C 
HETATM   21  C10 UNL     1      23.394   7.198   8.751  1.00  0.00     0.004 C 
HETATM   22  C11 UNL     1      22.472   6.060   9.042  1.00  0.00     0.035 C 
HETATM   23  C12 UNL     1      22.261   6.004  10.537  1.00  0.00     0.219 C 
HETATM   24  C13 UNL     1      23.626   5.888  11.180  1.00  0.00     0.043 C 
ENDBRANCH  17  18
ENDBRANCH  16  17
ENDBRANCH  15  16
ENDBRANCH   7  15
BRANCH  14  25
HETATM   25  N4  UNL     1      26.191   5.450  19.993  1.00  0.00    -0.384 N 
ATOM     26  H42 UNL     1      26.753   6.137  20.497  1.00  0.00     0.157 HD
ATOM     27  H41 UNL     1      26.247   4.461  20.232  1.00  0.00     0.157 HD
ENDBRANCH  14  25
TORSDOF 5
ENDMDL
