MODEL 1
REMARK VINA RESULT: -9.312577705      0.000      0.000
REMARK  13 active torsions:
REMARK  status: ('A' for Active; 'I' for Inactive)
REMARK    1  A    between atoms: C2_2  and  O1_3 
REMARK    2  A    between atoms: O1_3  and  C3_4 
REMARK    3  A    between atoms: C3_4  and  C4_6 
REMARK    4  A    between atoms: C4_6  and  N1_7 
REMARK    5  A    between atoms: C5_12  and  C6_13 
REMARK    6  A    between atoms: C6_13  and  N4_14 
REMARK    7  A    between atoms: C6_13  and  C7_18 
REMARK    8  A    between atoms: N4_14  and  N5_15 
REMARK    9  A    between atoms: C8_20  and  N6_21 
REMARK   10  A    between atoms: C9_26  and  N8_27 
REMARK   11  A    between atoms: C10_29  and  C11_30 
REMARK   12  A    between atoms: C14_33  and  C15_34 
REMARK       I    between atoms: N9_35  and  C16_37 
REMARK   13  A    between atoms: C18_41  and  N11_42 
ROOT
HETATM    1  C15 UNL     1      35.508  -1.981  46.774  1.00  0.00     0.107 C 
HETATM    2  N9  UNL     1      36.163  -2.274  47.784  1.00  0.00    -0.324 N 
ATOM      3  H9  UNL     1      35.881  -3.195  48.121  1.00  0.00     0.169 HD
HETATM    4  C16 UNL     1      37.135  -1.770  48.591  1.00  0.00     0.326 C 
HETATM    5  O3  UNL     1      36.959  -0.981  49.572  1.00  0.00    -0.256 OA
HETATM    6  C17 UNL     1      38.534  -2.119  48.379  1.00  0.00     0.162 C 
HETATM    7  N10 UNL     1      39.648  -2.403  48.208  1.00  0.00    -0.186 NA
ENDROOT
BRANCH   1   8
HETATM    8  C14 UNL     1      35.560  -0.781  45.954  1.00  0.00     0.023 A 
HETATM    9  C13 UNL     1      36.690  -0.190  45.472  1.00  0.00     0.019 A 
HETATM   10  C12 UNL     1      36.674   0.949  44.697  1.00  0.00     0.032 A 
HETATM   11  C11 UNL     1      35.494   1.543  44.373  1.00  0.00     0.049 A 
HETATM   12  N12 UNL     1      34.355   0.972  44.842  1.00  0.00    -0.341 N 
HETATM   13  C18 UNL     1      34.361  -0.137  45.598  1.00  0.00     0.111 A 
ATOM     14  H12 UNL     1      33.460   1.403  44.611  1.00  0.00     0.167 HD
BRANCH  11  15
HETATM   15  C10 UNL     1      35.391   2.736  43.576  1.00  0.00     0.119 C 
HETATM   16  N8  UNL     1      35.778   3.058  42.453  1.00  0.00    -0.349 N 
ATOM     17  H8  UNL     1      35.512   4.013  42.215  1.00  0.00     0.167 HD
BRANCH  16  18
HETATM   18  C9  UNL     1      36.505   2.427  41.406  1.00  0.00     0.122 A 
HETATM   19  C7  UNL     1      36.081   2.581  40.089  1.00  0.00     0.057 A 
HETATM   20  S1  UNL     1      37.233   1.692  39.226  1.00  0.00    -0.053 SA
HETATM   21  C8  UNL     1      38.194   1.165  40.535  1.00  0.00     0.144 A 
HETATM   22  N7  UNL     1      37.581   1.700  41.579  1.00  0.00    -0.322 N 
ATOM     23  H7  UNL     1      37.946   1.546  42.519  1.00  0.00     0.169 HD
BRANCH  19  24
HETATM   24  C6  UNL     1      34.889   3.342  39.581  1.00  0.00     0.195 C 
BRANCH  24  25
HETATM   25  C5  UNL     1      35.200   4.733  39.211  1.00  0.00     0.077 A 
HETATM   26  N3  UNL     1      36.465   5.255  39.149  1.00  0.00    -0.286 N 
HETATM   27  N2  UNL     1      36.373   6.513  38.790  1.00  0.00    -0.240 N 
ATOM     28  H3  UNL     1      37.330   4.753  39.348  1.00  0.00     0.188 HD
HETATM   29  N1  UNL     1      35.137   6.880  38.603  1.00  0.00    -0.271 N 
ATOM     30  H2  UNL     1      37.175   7.131  38.671  1.00  0.00     0.208 HD
HETATM   31  C19 UNL     1      34.376   5.772  38.863  1.00  0.00     0.052 A 
HETATM   32  C20 UNL     1      32.915   5.720  38.779  1.00  0.00     0.072 C 
BRANCH  29  33
HETATM   33  C4  UNL     1      34.585   8.157  38.211  1.00  0.00     0.261 C 
BRANCH  33  34
HETATM   34  C3  UNL     1      34.530   9.129  39.310  1.00  0.00     0.278 C 
HETATM   35  O2  UNL     1      34.741   8.707  40.475  1.00  0.00    -0.263 OA
BRANCH  34  36
HETATM   36  O1  UNL     1      34.259  10.478  39.153  1.00  0.00    -0.321 OA
BRANCH  36  37
HETATM   37  C2  UNL     1      33.033  11.000  39.628  1.00  0.00     0.174 C 
HETATM   38  C1  UNL     1      33.290  12.238  40.423  1.00  0.00     0.034 C 
ENDBRANCH  36  37
ENDBRANCH  34  36
ENDBRANCH  33  34
ENDBRANCH  29  33
ENDBRANCH  24  25
BRANCH  24  39
HETATM   39  N4  UNL     1      34.177   2.591  38.593  1.00  0.00    -0.132 NA
BRANCH  39  40
HETATM   40  N5  UNL     1      33.320   1.701  39.214  1.00  0.00    -0.347 N 
ATOM     41  H52 UNL     1      32.330   1.879  39.386  1.00  0.00     0.172 HD
ATOM     42  H51 UNL     1      33.829   0.854  39.467  1.00  0.00     0.172 HD
ENDBRANCH  39  40
ENDBRANCH  24  39
ENDBRANCH  19  24
BRANCH  21  43
HETATM   43  N6  UNL     1      39.273   0.414  40.503  1.00  0.00    -0.380 N 
ATOM     44  H62 UNL     1      40.149   0.567  40.004  1.00  0.00     0.158 HD
ATOM     45  H61 UNL     1      39.438  -0.475  40.977  1.00  0.00     0.158 HD
ENDBRANCH  21  43
ENDBRANCH  16  18
ENDBRANCH  11  15
BRANCH  13  46
HETATM   46  N11 UNL     1      33.258  -0.652  46.028  1.00  0.00    -0.385 N 
ATOM     47 2H11 UNL     1      33.227  -1.614  46.368  1.00  0.00     0.157 HD
ATOM     48 1H11 UNL     1      32.426  -0.063  46.012  1.00  0.00     0.157 HD
ENDBRANCH  13  46
ENDBRANCH   1   8
TORSDOF 13
ENDMDL
MODEL 2
REMARK VINA RESULT: -9.075924574      1.304      1.733
REMARK  13 active torsions:
REMARK  status: ('A' for Active; 'I' for Inactive)
REMARK    1  A    between atoms: C2_2  and  O1_3 
REMARK    2  A    between atoms: O1_3  and  C3_4 
REMARK    3  A    between atoms: C3_4  and  C4_6 
REMARK    4  A    between atoms: C4_6  and  N1_7 
REMARK    5  A    between atoms: C5_12  and  C6_13 
REMARK    6  A    between atoms: C6_13  and  N4_14 
REMARK    7  A    between atoms: C6_13  and  C7_18 
REMARK    8  A    between atoms: N4_14  and  N5_15 
REMARK    9  A    between atoms: C8_20  and  N6_21 
REMARK   10  A    between atoms: C9_26  and  N8_27 
REMARK   11  A    between atoms: C10_29  and  C11_30 
REMARK   12  A    between atoms: C14_33  and  C15_34 
REMARK       I    between atoms: N9_35  and  C16_37 
REMARK   13  A    between atoms: C18_41  and  N11_42 
ROOT
HETATM    1  C15 UNL     1      35.491  -1.997  46.856  1.00  0.00     0.107 C 
HETATM    2  N9  UNL     1      36.140  -2.300  47.866  1.00  0.00    -0.324 N 
ATOM      3  H9  UNL     1      35.841  -3.213  48.207  1.00  0.00     0.169 HD
HETATM    4  C16 UNL     1      37.123  -1.812  48.670  1.00  0.00     0.326 C 
HETATM    5  O3  UNL     1      36.964  -1.015  49.649  1.00  0.00    -0.256 OA
HETATM    6  C17 UNL     1      38.515  -2.189  48.458  1.00  0.00     0.162 C 
HETATM    7  N10 UNL     1      39.623  -2.495  48.287  1.00  0.00    -0.186 NA
ENDROOT
BRANCH   1   8
HETATM    8  C14 UNL     1      35.565  -0.802  46.031  1.00  0.00     0.023 A 
HETATM    9  C13 UNL     1      36.708  -0.214  45.577  1.00  0.00     0.019 A 
HETATM   10  C12 UNL     1      36.713   0.922  44.795  1.00  0.00     0.032 A 
HETATM   11  C11 UNL     1      35.543   1.515  44.437  1.00  0.00     0.049 A 
HETATM   12  N12 UNL     1      34.392   0.946  44.878  1.00  0.00    -0.341 N 
HETATM   13  C18 UNL     1      34.377  -0.160  45.639  1.00  0.00     0.111 A 
ATOM     14  H12 UNL     1      33.503   1.376  44.620  1.00  0.00     0.167 HD
BRANCH  11  15
HETATM   15  C10 UNL     1      35.462   2.703  43.631  1.00  0.00     0.119 C 
HETATM   16  N8  UNL     1      35.867   3.014  42.512  1.00  0.00    -0.349 N 
ATOM     17  H8  UNL     1      35.613   3.970  42.264  1.00  0.00     0.167 HD
BRANCH  16  18
HETATM   18  C9  UNL     1      36.600   2.369  41.478  1.00  0.00     0.122 A 
HETATM   19  C7  UNL     1      36.191   2.513  40.155  1.00  0.00     0.057 A 
HETATM   20  S1  UNL     1      37.347   1.609  39.312  1.00  0.00    -0.053 SA
HETATM   21  C8  UNL     1      38.292   1.091  40.637  1.00  0.00     0.144 A 
HETATM   22  N7  UNL     1      37.671   1.638  41.669  1.00  0.00    -0.322 N 
ATOM     23  H7  UNL     1      38.026   1.492  42.614  1.00  0.00     0.169 HD
BRANCH  19  24
HETATM   24  C6  UNL     1      35.008   3.274  39.627  1.00  0.00     0.195 C 
BRANCH  24  25
HETATM   25  C5  UNL     1      35.330   4.658  39.242  1.00  0.00     0.077 A 
HETATM   26  N3  UNL     1      36.598   5.122  39.005  1.00  0.00    -0.286 N 
HETATM   27  N2  UNL     1      36.517   6.392  38.687  1.00  0.00    -0.240 N 
ATOM     28  H3  UNL     1      37.456   4.575  39.065  1.00  0.00     0.188 HD
HETATM   29  N1  UNL     1      35.287   6.821  38.691  1.00  0.00    -0.271 N 
ATOM     30  H2  UNL     1      37.323   6.975  38.463  1.00  0.00     0.208 HD
HETATM   31  C19 UNL     1      34.518   5.743  39.039  1.00  0.00     0.052 A 
HETATM   32  C20 UNL     1      33.059   5.762  39.170  1.00  0.00     0.072 C 
BRANCH  29  33
HETATM   33  C4  UNL     1      34.749   8.132  38.408  1.00  0.00     0.261 C 
BRANCH  33  34
HETATM   34  C3  UNL     1      35.619   8.945  37.550  1.00  0.00     0.278 C 
HETATM   35  O2  UNL     1      35.240   9.161  36.370  1.00  0.00    -0.263 OA
BRANCH  34  36
HETATM   36  O1  UNL     1      36.829   9.490  37.948  1.00  0.00    -0.321 OA
BRANCH  36  37
HETATM   37  C2  UNL     1      37.912   9.512  37.038  1.00  0.00     0.174 C 
HETATM   38  C1  UNL     1      38.987  10.407  37.564  1.00  0.00     0.034 C 
ENDBRANCH  36  37
ENDBRANCH  34  36
ENDBRANCH  33  34
ENDBRANCH  29  33
ENDBRANCH  24  25
BRANCH  24  39
HETATM   39  N4  UNL     1      34.299   2.515  38.644  1.00  0.00    -0.132 NA
BRANCH  39  40
HETATM   40  N5  UNL     1      33.293   1.788  39.254  1.00  0.00    -0.347 N 
ATOM     41  H52 UNL     1      32.297   1.925  39.081  1.00  0.00     0.172 HD
ATOM     42  H51 UNL     1      33.702   1.105  39.892  1.00  0.00     0.172 HD
ENDBRANCH  39  40
ENDBRANCH  24  39
ENDBRANCH  19  24
BRANCH  21  43
HETATM   43  N6  UNL     1      39.367   0.333  40.622  1.00  0.00    -0.380 N 
ATOM     44  H62 UNL     1      40.346   0.607  40.535  1.00  0.00     0.158 HD
ATOM     45  H61 UNL     1      39.425  -0.683  40.697  1.00  0.00     0.158 HD
ENDBRANCH  21  43
ENDBRANCH  16  18
ENDBRANCH  11  15
BRANCH  13  46
HETATM   46  N11 UNL     1      33.262  -0.672  46.043  1.00  0.00    -0.385 N 
ATOM     47 2H11 UNL     1      33.158  -1.681  46.150  1.00  0.00     0.157 HD
ATOM     48 1H11 UNL     1      32.495  -0.030  46.246  1.00  0.00     0.157 HD
ENDBRANCH  13  46
ENDBRANCH   1   8
TORSDOF 13
ENDMDL
MODEL 3
REMARK VINA RESULT: -9.026352159      1.529      1.700
REMARK  13 active torsions:
REMARK  status: ('A' for Active; 'I' for Inactive)
REMARK    1  A    between atoms: C2_2  and  O1_3 
REMARK    2  A    between atoms: O1_3  and  C3_4 
REMARK    3  A    between atoms: C3_4  and  C4_6 
REMARK    4  A    between atoms: C4_6  and  N1_7 
REMARK    5  A    between atoms: C5_12  and  C6_13 
REMARK    6  A    between atoms: C6_13  and  N4_14 
REMARK    7  A    between atoms: C6_13  and  C7_18 
REMARK    8  A    between atoms: N4_14  and  N5_15 
REMARK    9  A    between atoms: C8_20  and  N6_21 
REMARK   10  A    between atoms: C9_26  and  N8_27 
REMARK   11  A    between atoms: C10_29  and  C11_30 
REMARK   12  A    between atoms: C14_33  and  C15_34 
REMARK       I    between atoms: N9_35  and  C16_37 
REMARK   13  A    between atoms: C18_41  and  N11_42 
ROOT
HETATM    1  C15 UNL     1      36.644  -0.966  47.947  1.00  0.00     0.107 C 
HETATM    2  N9  UNL     1      36.354  -0.888  49.148  1.00  0.00    -0.324 N 
ATOM      3  H9  UNL     1      36.921  -1.548  49.682  1.00  0.00     0.169 HD
HETATM    4  C16 UNL     1      35.527  -0.210  49.989  1.00  0.00     0.326 C 
HETATM    5  O3  UNL     1      34.320  -0.508  50.253  1.00  0.00    -0.256 OA
HETATM    6  C17 UNL     1      35.992   0.978  50.693  1.00  0.00     0.162 C 
HETATM    7  N10 UNL     1      36.369   1.923  51.256  1.00  0.00    -0.186 NA
ENDROOT
BRANCH   1   8
HETATM    8  C14 UNL     1      36.105  -0.229  46.815  1.00  0.00     0.023 A 
HETATM    9  C13 UNL     1      36.694   0.836  46.201  1.00  0.00     0.019 A 
HETATM   10  C12 UNL     1      36.131   1.494  45.128  1.00  0.00     0.032 A 
HETATM   11  C11 UNL     1      34.932   1.093  44.628  1.00  0.00     0.049 A 
HETATM   12  N12 UNL     1      34.327   0.034  45.224  1.00  0.00    -0.341 N 
HETATM   13  C18 UNL     1      34.868  -0.613  46.269  1.00  0.00     0.111 A 
ATOM     14  H12 UNL     1      33.427  -0.282  44.863  1.00  0.00     0.167 HD
BRANCH  11  15
HETATM   15  C10 UNL     1      34.275   1.729  43.518  1.00  0.00     0.119 C 
HETATM   16  N8  UNL     1      34.595   1.981  42.357  1.00  0.00    -0.349 N 
ATOM     17  H8  UNL     1      33.849   2.455  41.848  1.00  0.00     0.167 HD
BRANCH  16  18
HETATM   18  C9  UNL     1      35.748   1.775  41.549  1.00  0.00     0.122 A 
HETATM   19  C7  UNL     1      35.782   2.295  40.259  1.00  0.00     0.057 A 
HETATM   20  S1  UNL     1      37.313   1.824  39.713  1.00  0.00    -0.053 SA
HETATM   21  C8  UNL     1      37.848   1.001  41.110  1.00  0.00     0.144 A 
HETATM   22  N7  UNL     1      36.820   1.127  41.934  1.00  0.00    -0.322 N 
ATOM     23  H7  UNL     1      36.862   0.721  42.868  1.00  0.00     0.169 HD
BRANCH  19  24
HETATM   24  C6  UNL     1      34.712   3.068  39.541  1.00  0.00     0.195 C 
BRANCH  24  25
HETATM   25  C5  UNL     1      35.111   4.448  39.213  1.00  0.00     0.077 A 
HETATM   26  N3  UNL     1      36.393   4.926  39.300  1.00  0.00    -0.286 N 
HETATM   27  N2  UNL     1      36.386   6.185  38.935  1.00  0.00    -0.240 N 
ATOM     28  H3  UNL     1      37.211   4.395  39.597  1.00  0.00     0.188 HD
HETATM   29  N1  UNL     1      35.193   6.594  38.606  1.00  0.00    -0.271 N 
ATOM     30  H2  UNL     1      37.217   6.776  38.911  1.00  0.00     0.208 HD
HETATM   31  C19 UNL     1      34.370   5.514  38.773  1.00  0.00     0.052 A 
HETATM   32  C20 UNL     1      32.928   5.512  38.520  1.00  0.00     0.072 C 
BRANCH  29  33
HETATM   33  C4  UNL     1      34.735   7.889  38.155  1.00  0.00     0.261 C 
BRANCH  33  34
HETATM   34  C3  UNL     1      34.620   8.874  39.237  1.00  0.00     0.278 C 
HETATM   35  O2  UNL     1      34.757   8.465  40.418  1.00  0.00    -0.263 OA
BRANCH  34  36
HETATM   36  O1  UNL     1      34.369  10.224  39.047  1.00  0.00    -0.321 OA
BRANCH  36  37
HETATM   37  C2  UNL     1      33.813  10.981  40.105  1.00  0.00     0.174 C 
HETATM   38  C1  UNL     1      34.751  12.083  40.478  1.00  0.00     0.034 C 
ENDBRANCH  36  37
ENDBRANCH  34  36
ENDBRANCH  33  34
ENDBRANCH  29  33
ENDBRANCH  24  25
BRANCH  24  39
HETATM   39  N4  UNL     1      34.167   2.315  38.455  1.00  0.00    -0.132 NA
BRANCH  39  40
HETATM   40  N5  UNL     1      32.997   1.697  38.858  1.00  0.00    -0.347 N 
ATOM     41  H52 UNL     1      32.066   2.099  38.748  1.00  0.00     0.172 HD
ATOM     42  H51 UNL     1      33.214   0.792  39.276  1.00  0.00     0.172 HD
ENDBRANCH  39  40
ENDBRANCH  24  39
ENDBRANCH  19  24
BRANCH  21  43
HETATM   43  N6  UNL     1      38.999   0.395  41.307  1.00  0.00    -0.380 N 
ATOM     44  H62 UNL     1      39.902   0.795  41.558  1.00  0.00     0.158 HD
ATOM     45  H61 UNL     1      39.206  -0.603  41.246  1.00  0.00     0.158 HD
ENDBRANCH  21  43
ENDBRANCH  16  18
ENDBRANCH  11  15
BRANCH  13  46
HETATM   46  N11 UNL     1      34.262  -1.616  46.812  1.00  0.00    -0.385 N 
ATOM     47 2H11 UNL     1      34.012  -1.602  47.801  1.00  0.00     0.157 HD
ATOM     48 1H11 UNL     1      34.049  -2.416  46.217  1.00  0.00     0.157 HD
ENDBRANCH  13  46
ENDBRANCH   1   8
TORSDOF 13
ENDMDL
MODEL 4
REMARK VINA RESULT: -8.924007515      2.088      2.509
REMARK  13 active torsions:
REMARK  status: ('A' for Active; 'I' for Inactive)
REMARK    1  A    between atoms: C2_2  and  O1_3 
REMARK    2  A    between atoms: O1_3  and  C3_4 
REMARK    3  A    between atoms: C3_4  and  C4_6 
REMARK    4  A    between atoms: C4_6  and  N1_7 
REMARK    5  A    between atoms: C5_12  and  C6_13 
REMARK    6  A    between atoms: C6_13  and  N4_14 
REMARK    7  A    between atoms: C6_13  and  C7_18 
REMARK    8  A    between atoms: N4_14  and  N5_15 
REMARK    9  A    between atoms: C8_20  and  N6_21 
REMARK   10  A    between atoms: C9_26  and  N8_27 
REMARK   11  A    between atoms: C10_29  and  C11_30 
REMARK   12  A    between atoms: C14_33  and  C15_34 
REMARK       I    between atoms: N9_35  and  C16_37 
REMARK   13  A    between atoms: C18_41  and  N11_42 
ROOT
HETATM    1  C15 UNL     1      36.626  -0.746  48.188  1.00  0.00     0.107 C 
HETATM    2  N9  UNL     1      36.354  -0.573  49.384  1.00  0.00    -0.324 N 
ATOM      3  H9  UNL     1      36.944  -1.173  49.960  1.00  0.00     0.169 HD
HETATM    4  C16 UNL     1      35.526   0.155  50.180  1.00  0.00     0.326 C 
HETATM    5  O3  UNL     1      34.330  -0.145  50.490  1.00  0.00    -0.256 OA
HETATM    6  C17 UNL     1      35.975   1.409  50.773  1.00  0.00     0.162 C 
HETATM    7  N10 UNL     1      36.339   2.406  51.247  1.00  0.00    -0.186 NA
ENDROOT
BRANCH   1   8
HETATM    8  C14 UNL     1      36.052  -0.118  47.008  1.00  0.00     0.023 A 
HETATM    9  C13 UNL     1      36.478   1.041  46.431  1.00  0.00     0.019 A 
HETATM   10  C12 UNL     1      35.890   1.586  45.309  1.00  0.00     0.032 A 
HETATM   11  C11 UNL     1      34.832   0.968  44.719  1.00  0.00     0.049 A 
HETATM   12  N12 UNL     1      34.390  -0.188  45.277  1.00  0.00    -0.341 N 
HETATM   13  C18 UNL     1      34.956  -0.726  46.369  1.00  0.00     0.111 A 
ATOM     14  H12 UNL     1      33.597  -0.666  44.849  1.00  0.00     0.167 HD
BRANCH  11  15
HETATM   15  C10 UNL     1      34.158   1.474  43.553  1.00  0.00     0.119 C 
HETATM   16  N8  UNL     1      34.500   1.704  42.394  1.00  0.00    -0.349 N 
ATOM     17  H8  UNL     1      33.730   2.067  41.832  1.00  0.00     0.167 HD
BRANCH  16  18
HETATM   18  C9  UNL     1      35.703   1.589  41.643  1.00  0.00     0.122 A 
HETATM   19  C7  UNL     1      35.786   2.184  40.388  1.00  0.00     0.057 A 
HETATM   20  S1  UNL     1      37.363   1.803  39.905  1.00  0.00    -0.053 SA
HETATM   21  C8  UNL     1      37.854   0.921  41.282  1.00  0.00     0.144 A 
HETATM   22  N7  UNL     1      36.778   0.960  42.051  1.00  0.00    -0.322 N 
ATOM     23  H7  UNL     1      36.785   0.501  42.962  1.00  0.00     0.169 HD
BRANCH  19  24
HETATM   24  C6  UNL     1      34.727   2.958  39.655  1.00  0.00     0.195 C 
BRANCH  24  25
HETATM   25  C5  UNL     1      35.124   4.342  39.348  1.00  0.00     0.077 A 
HETATM   26  N3  UNL     1      36.419   4.758  39.175  1.00  0.00    -0.286 N 
HETATM   27  N2  UNL     1      36.406   6.043  38.917  1.00  0.00    -0.240 N 
ATOM     28  H3  UNL     1      37.250   4.170  39.236  1.00  0.00     0.188 HD
HETATM   29  N1  UNL     1      35.196   6.528  38.902  1.00  0.00    -0.271 N 
ATOM     30  H2  UNL     1      37.244   6.599  38.747  1.00  0.00     0.208 HD
HETATM   31  C19 UNL     1      34.369   5.472  39.171  1.00  0.00     0.052 A 
HETATM   32  C20 UNL     1      32.909   5.552  39.255  1.00  0.00     0.072 C 
BRANCH  29  33
HETATM   33  C4  UNL     1      34.727   7.875  38.665  1.00  0.00     0.261 C 
BRANCH  33  34
HETATM   34  C3  UNL     1      35.596   8.644  37.767  1.00  0.00     0.278 C 
HETATM   35  O2  UNL     1      35.118   9.011  36.663  1.00  0.00    -0.263 OA
BRANCH  34  36
HETATM   36  O1  UNL     1      36.907   8.993  38.049  1.00  0.00    -0.321 OA
BRANCH  36  37
HETATM   37  C2  UNL     1      37.772   9.354  36.989  1.00  0.00     0.174 C 
HETATM   38  C1  UNL     1      38.802  10.314  37.489  1.00  0.00     0.034 C 
ENDBRANCH  36  37
ENDBRANCH  34  36
ENDBRANCH  33  34
ENDBRANCH  29  33
ENDBRANCH  24  25
BRANCH  24  39
HETATM   39  N4  UNL     1      34.210   2.211  38.550  1.00  0.00    -0.132 NA
BRANCH  39  40
HETATM   40  N5  UNL     1      32.933   1.770  38.844  1.00  0.00    -0.347 N 
ATOM     41  H52 UNL     1      32.720   0.883  39.301  1.00  0.00     0.172 HD
ATOM     42  H51 UNL     1      32.252   2.464  38.536  1.00  0.00     0.172 HD
ENDBRANCH  39  40
ENDBRANCH  24  39
ENDBRANCH  19  24
BRANCH  21  43
HETATM   43  N6  UNL     1      39.016   0.347  41.509  1.00  0.00    -0.380 N 
ATOM     44  H62 UNL     1      39.643  -0.118  40.854  1.00  0.00     0.158 HD
ATOM     45  H61 UNL     1      39.513   0.260  42.396  1.00  0.00     0.158 HD
ENDBRANCH  21  43
ENDBRANCH  16  18
ENDBRANCH  11  15
BRANCH  13  46
HETATM   46  N11 UNL     1      34.507  -1.826  46.874  1.00  0.00    -0.385 N 
ATOM     47 2H11 UNL     1      34.819  -2.147  47.791  1.00  0.00     0.157 HD
ATOM     48 1H11 UNL     1      33.836  -2.359  46.320  1.00  0.00     0.157 HD
ENDBRANCH  13  46
ENDBRANCH   1   8
TORSDOF 13
ENDMDL
MODEL 5
REMARK VINA RESULT: -8.891395331      2.073      2.494
REMARK  13 active torsions:
REMARK  status: ('A' for Active; 'I' for Inactive)
REMARK    1  A    between atoms: C2_2  and  O1_3 
REMARK    2  A    between atoms: O1_3  and  C3_4 
REMARK    3  A    between atoms: C3_4  and  C4_6 
REMARK    4  A    between atoms: C4_6  and  N1_7 
REMARK    5  A    between atoms: C5_12  and  C6_13 
REMARK    6  A    between atoms: C6_13  and  N4_14 
REMARK    7  A    between atoms: C6_13  and  C7_18 
REMARK    8  A    between atoms: N4_14  and  N5_15 
REMARK    9  A    between atoms: C8_20  and  N6_21 
REMARK   10  A    between atoms: C9_26  and  N8_27 
REMARK   11  A    between atoms: C10_29  and  C11_30 
REMARK   12  A    between atoms: C14_33  and  C15_34 
REMARK       I    between atoms: N9_35  and  C16_37 
REMARK   13  A    between atoms: C18_41  and  N11_42 
ROOT
HETATM    1  C15 UNL     1      36.566  -0.973  48.912  1.00  0.00     0.107 C 
HETATM    2  N9  UNL     1      37.468  -1.813  49.035  1.00  0.00    -0.324 N 
ATOM      3  H9  UNL     1      37.704  -1.922  50.022  1.00  0.00     0.169 HD
HETATM    4  C16 UNL     1      38.247  -2.638  48.285  1.00  0.00     0.326 C 
HETATM    5  O3  UNL     1      39.335  -2.321  47.708  1.00  0.00    -0.256 OA
HETATM    6  C17 UNL     1      37.870  -4.030  48.075  1.00  0.00     0.162 C 
HETATM    7  N10 UNL     1      37.568  -5.141  47.913  1.00  0.00    -0.186 NA
ENDROOT
BRANCH   1   8
HETATM    8  C14 UNL     1      35.909  -0.491  47.708  1.00  0.00     0.023 A 
HETATM    9  C13 UNL     1      36.259   0.617  46.995  1.00  0.00     0.019 A 
HETATM   10  C12 UNL     1      35.595   1.022  45.857  1.00  0.00     0.032 A 
HETATM   11  C11 UNL     1      34.534   0.311  45.390  1.00  0.00     0.049 A 
HETATM   12  N12 UNL     1      34.167  -0.796  46.084  1.00  0.00    -0.341 N 
HETATM   13  C18 UNL     1      34.808  -1.199  47.193  1.00  0.00     0.111 A 
ATOM     14  H12 UNL     1      33.373  -1.343  45.751  1.00  0.00     0.167 HD
BRANCH  11  15
HETATM   15  C10 UNL     1      33.784   0.671  44.217  1.00  0.00     0.119 C 
HETATM   16  N8  UNL     1      34.084   0.986  43.066  1.00  0.00    -0.349 N 
ATOM     17  H8  UNL     1      33.261   1.177  42.494  1.00  0.00     0.167 HD
BRANCH  16  18
HETATM   18  C9  UNL     1      35.294   1.150  42.336  1.00  0.00     0.122 A 
HETATM   19  C7  UNL     1      35.265   1.777  41.094  1.00  0.00     0.057 A 
HETATM   20  S1  UNL     1      36.893   1.756  40.634  1.00  0.00    -0.053 SA
HETATM   21  C8  UNL     1      37.543   0.970  42.003  1.00  0.00     0.144 A 
HETATM   22  N7  UNL     1      36.473   0.759  42.752  1.00  0.00    -0.322 N 
ATOM     23  H7  UNL     1      36.566   0.292  43.654  1.00  0.00     0.169 HD
BRANCH  19  24
HETATM   24  C6  UNL     1      34.074   2.320  40.356  1.00  0.00     0.195 C 
BRANCH  24  25
HETATM   25  C5  UNL     1      33.787   3.730  40.670  1.00  0.00     0.077 A 
HETATM   26  N3  UNL     1      32.935   4.146  41.660  1.00  0.00    -0.286 N 
HETATM   27  N2  UNL     1      32.918   5.457  41.661  1.00  0.00    -0.240 N 
ATOM     28  H3  UNL     1      32.406   3.541  42.287  1.00  0.00     0.188 HD
HETATM   29  N1  UNL     1      33.696   5.959  40.744  1.00  0.00    -0.271 N 
ATOM     30  H2  UNL     1      32.360   6.019  42.303  1.00  0.00     0.208 HD
HETATM   31  C19 UNL     1      34.257   4.887  40.105  1.00  0.00     0.052 A 
HETATM   32  C20 UNL     1      35.207   4.977  38.994  1.00  0.00     0.072 C 
BRANCH  29  33
HETATM   33  C4  UNL     1      33.973   7.334  40.396  1.00  0.00     0.261 C 
BRANCH  33  34
HETATM   34  C3  UNL     1      32.784   8.194  40.437  1.00  0.00     0.278 C 
HETATM   35  O2  UNL     1      32.206   8.342  41.544  1.00  0.00    -0.263 OA
BRANCH  34  36
HETATM   36  O1  UNL     1      32.253   8.854  39.341  1.00  0.00    -0.321 OA
BRANCH  36  37
HETATM   37  C2  UNL     1      30.941   8.543  38.912  1.00  0.00     0.174 C 
HETATM   38  C1  UNL     1      30.532   9.486  37.828  1.00  0.00     0.034 C 
ENDBRANCH  36  37
ENDBRANCH  34  36
ENDBRANCH  33  34
ENDBRANCH  29  33
ENDBRANCH  24  25
BRANCH  24  39
HETATM   39  N4  UNL     1      34.140   2.005  38.962  1.00  0.00    -0.132 NA
BRANCH  39  40
HETATM   40  N5  UNL     1      32.890   1.620  38.513  1.00  0.00    -0.347 N 
ATOM     41  H52 UNL     1      32.055   1.580  39.097  1.00  0.00     0.172 HD
ATOM     42  H51 UNL     1      32.939   1.387  37.521  1.00  0.00     0.172 HD
ENDBRANCH  39  40
ENDBRANCH  24  39
ENDBRANCH  19  24
BRANCH  21  43
HETATM   43  N6  UNL     1      38.798   0.656  42.242  1.00  0.00    -0.380 N 
ATOM     44  H62 UNL     1      39.604   1.270  42.357  1.00  0.00     0.158 HD
ATOM     45  H61 UNL     1      39.205  -0.273  42.360  1.00  0.00     0.158 HD
ENDBRANCH  21  43
ENDBRANCH  16  18
ENDBRANCH  11  15
BRANCH  13  46
HETATM   46  N11 UNL     1      34.429  -2.256  47.830  1.00  0.00    -0.385 N 
ATOM     47 2H11 UNL     1      34.991  -3.109  47.810  1.00  0.00     0.157 HD
ATOM     48 1H11 UNL     1      33.552  -2.206  48.347  1.00  0.00     0.157 HD
ENDBRANCH  13  46
ENDBRANCH   1   8
TORSDOF 13
ENDMDL
