MODEL 1
REMARK VINA RESULT: -9.348402786      0.000      0.000
REMARK  13 active torsions:
REMARK  status: ('A' for Active; 'I' for Inactive)
REMARK    1  A    between atoms: N1_1  and  C1_4 
REMARK    2  A    between atoms: C3_8  and  N3_9 
REMARK    3  A    between atoms: C4_16  and  N6_17 
REMARK    4  A    between atoms: N6_17  and  C5_19 
REMARK    5  A    between atoms: C5_19  and  C6_20 
REMARK    6  A    between atoms: C6_20  and  N7_21 
REMARK    7  A    between atoms: N7_21  and  C7_24 
REMARK    8  A    between atoms: C7_24  and  C8_25 
REMARK    9  A    between atoms: C10_27  and  C11_28 
REMARK   10  A    between atoms: C11_28  and  O2_29 
REMARK   11  A    between atoms: O2_29  and  C12_30 
REMARK   12  A    between atoms: C12_30  and  C13_32 
REMARK   13  A    between atoms: C14_33  and  O4_34 
ROOT
HETATM    1  N7  UNL     1      31.580   3.448  43.711  1.00  0.00    -0.068 N 
ATOM      2  H71 UNL     1      31.717   2.851  42.895  1.00  0.00     0.277 HD
ATOM      3  H72 UNL     1      30.616   3.193  43.924  1.00  0.00     0.277 HD
ENDROOT
BRANCH   1   4
HETATM    4  C6  UNL     1      31.706   4.838  43.383  1.00  0.00     0.253 C 
BRANCH   4   5
HETATM    5  C5  UNL     1      32.501   5.218  42.193  1.00  0.00     0.165 C 
BRANCH   5   6
HETATM    6  N6  UNL     1      32.916   4.140  41.376  1.00  0.00    -0.222 N 
ATOM      7  H6  UNL     1      32.523   3.233  41.628  1.00  0.00     0.177 HD
BRANCH   6   8
HETATM    8  C4  UNL     1      33.701   4.124  40.379  1.00  0.00     0.723 A 
HETATM    9  N5  UNL     1      33.424   3.238  39.383  1.00  0.00    -0.004 N 
HETATM   10  C2  UNL     1      34.167   3.108  38.293  1.00  0.00     0.214 A 
HETATM   11  O1  UNL     1      32.419   2.402  39.320  1.00  0.00    -0.131 OA
HETATM   12  N2  UNL     1      35.265   3.886  38.129  1.00  0.00    -0.170 N 
HETATM   13  C3  UNL     1      33.560   2.131  37.538  1.00  0.00     0.169 A 
HETATM   14  C1  UNL     1      35.577   4.778  39.084  1.00  0.00     0.692 A 
ATOM     15  H2  UNL     1      35.844   3.795  37.295  1.00  0.00     0.186 HD
HETATM   16  N10 UNL     1      34.794   4.887  40.198  1.00  0.00    -0.020 N 
ATOM     17  H10 UNL     1      35.045   5.568  40.915  1.00  0.00     0.203 HD
HETATM   18  N4  UNL     1      32.480   1.721  38.211  1.00  0.00    -0.221 N 
ATOM     19  H4  UNL     1      31.821   1.002  37.910  1.00  0.00     0.198 HD
BRANCH  14  20
HETATM   20  N1  UNL     1      36.630   5.518  38.940  1.00  0.00    -0.234 N 
ATOM     21  H12 UNL     1      37.444   5.174  38.430  1.00  0.00     0.174 HD
ATOM     22  H11 UNL     1      36.637   6.459  39.334  1.00  0.00     0.174 HD
ENDBRANCH  14  20
BRANCH  13  23
HETATM   23  N3  UNL     1      33.944   1.676  36.390  1.00  0.00    -0.381 N 
ATOM     24  H32 UNL     1      34.415   2.221  35.666  1.00  0.00     0.157 HD
ATOM     25  H31 UNL     1      33.839   0.726  36.035  1.00  0.00     0.157 HD
ENDBRANCH  13  23
ENDBRANCH   6   8
ENDBRANCH   5   6
ENDBRANCH   4   5
ENDBRANCH   1   4
BRANCH   1  26
HETATM   26  C7  UNL     1      32.492   3.099  44.804  1.00  0.00     0.299 C 
BRANCH  26  27
HETATM   27  C8  UNL     1      33.442   2.045  44.317  1.00  0.00     0.103 A 
HETATM   28  C9  UNL     1      34.384   1.327  44.985  1.00  0.00     0.065 A 
HETATM   29  C10 UNL     1      34.987   0.465  44.101  1.00  0.00     0.059 A 
HETATM   30  N9  UNL     1      34.376   0.706  42.898  1.00  0.00    -0.263 N 
HETATM   31  O6  UNL     1      33.472   1.636  43.048  1.00  0.00    -0.240 OA
ATOM     32  H9  UNL     1      34.593   0.232  42.022  1.00  0.00     0.194 HD
BRANCH  29  33
HETATM   33  C11 UNL     1      36.044  -0.561  44.301  1.00  0.00     0.238 C 
BRANCH  33  34
HETATM   34  O2  UNL     1      37.012  -0.518  43.309  1.00  0.00    -0.311 OA
BRANCH  34  35
HETATM   35  C12 UNL     1      37.834   0.546  43.052  1.00  0.00     0.302 C 
HETATM   36  O3  UNL     1      38.270   1.253  43.979  1.00  0.00    -0.259 OA
BRANCH  35  37
HETATM   37  C13 UNL     1      38.165   0.787  41.641  1.00  0.00     0.141 A 
HETATM   38  C14 UNL     1      37.362   1.560  40.835  1.00  0.00     0.161 A 
HETATM   39  N8  UNL     1      37.614   1.719  39.523  1.00  0.00    -0.335 N 
HETATM   40  C15 UNL     1      38.672   1.122  38.940  1.00  0.00     0.048 A 
ATOM     41  H8  UNL     1      36.993   2.300  38.959  1.00  0.00     0.168 HD
HETATM   42  C16 UNL     1      38.904   1.271  37.565  1.00  0.00     0.030 A 
HETATM   43  C20 UNL     1      39.486   0.347  39.731  1.00  0.00     0.042 A 
HETATM   44  C17 UNL     1      39.983   0.616  37.036  1.00  0.00     0.002 A 
HETATM   45  C18 UNL     1      40.824  -0.168  37.793  1.00  0.00     0.001 A 
HETATM   46  C19 UNL     1      40.563  -0.290  39.124  1.00  0.00     0.018 A 
HETATM   47  C21 UNL     1      39.257   0.162  41.092  1.00  0.00     0.204 A 
HETATM   48  O5  UNL     1      40.040  -0.557  41.759  1.00  0.00    -0.286 OA
BRANCH  38  49
HETATM   49  O4  UNL     1      36.262   2.180  41.440  1.00  0.00    -0.345 OA
ATOM     50  H4  UNL     1      36.342   3.107  41.632  1.00  0.00     0.219 HD
ENDBRANCH  38  49
ENDBRANCH  35  37
ENDBRANCH  34  35
ENDBRANCH  33  34
ENDBRANCH  29  33
ENDBRANCH  26  27
ENDBRANCH   1  26
TORSDOF 13
ENDMDL
MODEL 2
REMARK VINA RESULT: -8.998641238      2.370      5.604
REMARK  13 active torsions:
REMARK  status: ('A' for Active; 'I' for Inactive)
REMARK    1  A    between atoms: N1_1  and  C1_4 
REMARK    2  A    between atoms: C3_8  and  N3_9 
REMARK    3  A    between atoms: C4_16  and  N6_17 
REMARK    4  A    between atoms: N6_17  and  C5_19 
REMARK    5  A    between atoms: C5_19  and  C6_20 
REMARK    6  A    between atoms: C6_20  and  N7_21 
REMARK    7  A    between atoms: N7_21  and  C7_24 
REMARK    8  A    between atoms: C7_24  and  C8_25 
REMARK    9  A    between atoms: C10_27  and  C11_28 
REMARK   10  A    between atoms: C11_28  and  O2_29 
REMARK   11  A    between atoms: O2_29  and  C12_30 
REMARK   12  A    between atoms: C12_30  and  C13_32 
REMARK   13  A    between atoms: C14_33  and  O4_34 
ROOT
HETATM    1  N7  UNL     1      31.697   3.719  42.640  1.00  0.00    -0.068 N 
ATOM      2  H71 UNL     1      30.787   3.962  42.247  1.00  0.00     0.277 HD
ATOM      3  H72 UNL     1      31.666   2.712  42.478  1.00  0.00     0.277 HD
ENDROOT
BRANCH   1   4
HETATM    4  C6  UNL     1      31.778   4.036  44.036  1.00  0.00     0.253 C 
BRANCH   4   5
HETATM    5  C5  UNL     1      32.513   3.115  44.932  1.00  0.00     0.165 C 
BRANCH   5   6
HETATM    6  N6  UNL     1      33.132   2.016  44.290  1.00  0.00    -0.222 N 
ATOM      7  H6  UNL     1      32.753   1.784  43.372  1.00  0.00     0.177 HD
BRANCH   6   8
HETATM    8  C4  UNL     1      34.085   1.273  44.677  1.00  0.00     0.723 A 
HETATM    9  N5  UNL     1      35.346   1.647  44.329  1.00  0.00    -0.004 N 
HETATM   10  C2  UNL     1      36.431   0.957  44.655  1.00  0.00     0.214 A 
HETATM   11  O1  UNL     1      35.702   2.708  43.650  1.00  0.00    -0.131 OA
HETATM   12  N2  UNL     1      36.310  -0.184  45.377  1.00  0.00    -0.170 N 
HETATM   13  C3  UNL     1      37.494   1.656  44.135  1.00  0.00     0.169 A 
HETATM   14  C1  UNL     1      35.085  -0.592  45.748  1.00  0.00     0.692 A 
ATOM     15  H2  UNL     1      37.136  -0.724  45.635  1.00  0.00     0.186 HD
HETATM   16  N10 UNL     1      33.986   0.139  45.393  1.00  0.00    -0.020 N 
ATOM     17  H10 UNL     1      33.062  -0.186  45.680  1.00  0.00     0.203 HD
HETATM   18  N4  UNL     1      36.998   2.735  43.520  1.00  0.00    -0.221 N 
ATOM     19  H4  UNL     1      37.539   3.453  43.035  1.00  0.00     0.198 HD
BRANCH  14  20
HETATM   20  N1  UNL     1      34.961  -1.686  46.429  1.00  0.00    -0.234 N 
ATOM     21  H12 UNL     1      35.539  -2.500  46.219  1.00  0.00     0.174 HD
ATOM     22  H11 UNL     1      34.283  -1.726  47.190  1.00  0.00     0.174 HD
ENDBRANCH  14  20
BRANCH  13  23
HETATM   23  N3  UNL     1      38.748   1.349  44.211  1.00  0.00    -0.381 N 
ATOM     24  H32 UNL     1      39.202   0.916  45.017  1.00  0.00     0.157 HD
ATOM     25  H31 UNL     1      39.463   1.487  43.498  1.00  0.00     0.157 HD
ENDBRANCH  13  23
ENDBRANCH   6   8
ENDBRANCH   5   6
ENDBRANCH   4   5
ENDBRANCH   1   4
BRANCH   1  26
HETATM   26  C7  UNL     1      32.796   4.357  41.908  1.00  0.00     0.299 C 
BRANCH  26  27
HETATM   27  C8  UNL     1      33.136   3.508  40.720  1.00  0.00     0.103 A 
HETATM   28  C9  UNL     1      33.081   3.786  39.390  1.00  0.00     0.065 A 
HETATM   29  C10 UNL     1      33.516   2.685  38.693  1.00  0.00     0.059 A 
HETATM   30  N9  UNL     1      33.817   1.754  39.653  1.00  0.00    -0.263 N 
HETATM   31  O6  UNL     1      33.588   2.258  40.835  1.00  0.00    -0.240 OA
ATOM     32  H9  UNL     1      34.167   0.813  39.472  1.00  0.00     0.194 HD
BRANCH  29  33
HETATM   33  C11 UNL     1      33.693   2.456  37.235  1.00  0.00     0.238 C 
BRANCH  33  34
HETATM   34  O2  UNL     1      34.988   2.069  36.918  1.00  0.00    -0.311 OA
BRANCH  34  35
HETATM   35  C12 UNL     1      36.108   2.835  37.098  1.00  0.00     0.302 C 
HETATM   36  O3  UNL     1      36.075   4.065  36.914  1.00  0.00    -0.259 OA
BRANCH  35  37
HETATM   37  C13 UNL     1      37.322   2.123  37.521  1.00  0.00     0.141 A 
HETATM   38  C14 UNL     1      38.258   1.692  36.609  1.00  0.00     0.161 A 
HETATM   39  N8  UNL     1      39.330   0.969  36.979  1.00  0.00    -0.335 N 
HETATM   40  C15 UNL     1      39.533   0.635  38.269  1.00  0.00     0.048 A 
ATOM     41  H8  UNL     1      40.000   0.667  36.272  1.00  0.00     0.168 HD
HETATM   42  C16 UNL     1      40.639  -0.145  38.635  1.00  0.00     0.030 A 
HETATM   43  C20 UNL     1      38.609   1.059  39.192  1.00  0.00     0.042 A 
HETATM   44  C17 UNL     1      40.768  -0.468  39.958  1.00  0.00     0.002 A 
HETATM   45  C18 UNL     1      39.867  -0.063  40.917  1.00  0.00     0.001 A 
HETATM   46  C19 UNL     1      38.804   0.692  40.520  1.00  0.00     0.018 A 
HETATM   47  C21 UNL     1      37.489   1.810  38.846  1.00  0.00     0.204 A 
HETATM   48  O5  UNL     1      36.683   2.168  39.740  1.00  0.00    -0.286 OA
BRANCH  38  49
HETATM   49  O4  UNL     1      38.047   2.038  35.269  1.00  0.00    -0.345 OA
ATOM     50  H4  UNL     1      38.620   1.640  34.625  1.00  0.00     0.219 HD
ENDBRANCH  38  49
ENDBRANCH  35  37
ENDBRANCH  34  35
ENDBRANCH  33  34
ENDBRANCH  29  33
ENDBRANCH  26  27
ENDBRANCH   1  26
TORSDOF 13
ENDMDL
MODEL 3
REMARK VINA RESULT: -8.936558617      2.520      5.852
REMARK  13 active torsions:
REMARK  status: ('A' for Active; 'I' for Inactive)
REMARK    1  A    between atoms: N1_1  and  C1_4 
REMARK    2  A    between atoms: C3_8  and  N3_9 
REMARK    3  A    between atoms: C4_16  and  N6_17 
REMARK    4  A    between atoms: N6_17  and  C5_19 
REMARK    5  A    between atoms: C5_19  and  C6_20 
REMARK    6  A    between atoms: C6_20  and  N7_21 
REMARK    7  A    between atoms: N7_21  and  C7_24 
REMARK    8  A    between atoms: C7_24  and  C8_25 
REMARK    9  A    between atoms: C10_27  and  C11_28 
REMARK   10  A    between atoms: C11_28  and  O2_29 
REMARK   11  A    between atoms: O2_29  and  C12_30 
REMARK   12  A    between atoms: C12_30  and  C13_32 
REMARK   13  A    between atoms: C14_33  and  O4_34 
ROOT
HETATM    1  N7  UNL     1      33.373   4.243  41.958  1.00  0.00    -0.068 N 
ATOM      2  H71 UNL     1      33.998   3.452  41.807  1.00  0.00     0.277 HD
ATOM      3  H72 UNL     1      34.041   4.883  42.387  1.00  0.00     0.277 HD
ENDROOT
BRANCH   1   4
HETATM    4  C6  UNL     1      32.299   3.913  42.850  1.00  0.00     0.253 C 
BRANCH   4   5
HETATM    5  C5  UNL     1      32.509   2.842  43.849  1.00  0.00     0.165 C 
BRANCH   5   6
HETATM    6  N6  UNL     1      33.479   1.872  43.499  1.00  0.00    -0.222 N 
ATOM      7  H6  UNL     1      33.261   1.327  42.665  1.00  0.00     0.177 HD
BRANCH   6   8
HETATM    8  C4  UNL     1      34.579   1.576  44.059  1.00  0.00     0.723 A 
HETATM    9  N5  UNL     1      34.557   0.576  44.981  1.00  0.00    -0.004 N 
HETATM   10  C2  UNL     1      35.630   0.174  45.650  1.00  0.00     0.214 A 
HETATM   11  O1  UNL     1      33.527  -0.143  45.351  1.00  0.00    -0.131 OA
HETATM   12  N2  UNL     1      36.826   0.769  45.423  1.00  0.00    -0.170 N 
HETATM   13  C3  UNL     1      35.204  -0.846  46.468  1.00  0.00     0.169 A 
HETATM   14  C1  UNL     1      36.898   1.760  44.518  1.00  0.00     0.692 A 
ATOM     15  H2  UNL     1      37.658   0.469  45.931  1.00  0.00     0.186 HD
HETATM   16  N10 UNL     1      35.775   2.153  43.847  1.00  0.00    -0.020 N 
ATOM     17  H10 UNL     1      35.846   2.909  43.165  1.00  0.00     0.203 HD
HETATM   18  N4  UNL     1      33.895  -1.011  46.251  1.00  0.00    -0.221 N 
ATOM     19  H4  UNL     1      33.291  -1.694  46.708  1.00  0.00     0.198 HD
BRANCH  14  20
HETATM   20  N1  UNL     1      38.036   2.339  44.303  1.00  0.00    -0.234 N 
ATOM     21  H12 UNL     1      38.173   3.323  44.535  1.00  0.00     0.174 HD
ATOM     22  H11 UNL     1      38.804   1.799  43.905  1.00  0.00     0.174 HD
ENDBRANCH  14  20
BRANCH  13  23
HETATM   23  N3  UNL     1      35.917  -1.533  47.300  1.00  0.00    -0.381 N 
ATOM     24  H32 UNL     1      36.791  -1.223  47.725  1.00  0.00     0.157 HD
ATOM     25  H31 UNL     1      35.724  -2.471  47.652  1.00  0.00     0.157 HD
ENDBRANCH  13  23
ENDBRANCH   6   8
ENDBRANCH   5   6
ENDBRANCH   4   5
ENDBRANCH   1   4
BRANCH   1  26
HETATM   26  C7  UNL     1      32.842   4.770  40.697  1.00  0.00     0.299 C 
BRANCH  26  27
HETATM   27  C8  UNL     1      33.103   3.768  39.612  1.00  0.00     0.103 A 
HETATM   28  C9  UNL     1      33.592   3.934  38.354  1.00  0.00     0.065 A 
HETATM   29  C10 UNL     1      33.665   2.704  37.747  1.00  0.00     0.059 A 
HETATM   30  N9  UNL     1      33.198   1.818  38.682  1.00  0.00    -0.263 N 
HETATM   31  O6  UNL     1      32.875   2.463  39.770  1.00  0.00    -0.240 OA
ATOM     32  H9  UNL     1      33.117   0.810  38.550  1.00  0.00     0.194 HD
BRANCH  29  33
HETATM   33  C11 UNL     1      34.157   2.304  36.402  1.00  0.00     0.238 C 
BRANCH  33  34
HETATM   34  O2  UNL     1      35.439   1.775  36.447  1.00  0.00    -0.311 OA
BRANCH  34  35
HETATM   35  C12 UNL     1      36.587   2.499  36.619  1.00  0.00     0.302 C 
HETATM   36  O3  UNL     1      36.714   3.624  36.102  1.00  0.00    -0.259 OA
BRANCH  35  37
HETATM   37  C13 UNL     1      37.632   1.876  37.443  1.00  0.00     0.141 A 
HETATM   38  C14 UNL     1      38.786   1.376  36.885  1.00  0.00     0.161 A 
HETATM   39  N8  UNL     1      39.710   0.732  37.620  1.00  0.00    -0.335 N 
HETATM   40  C15 UNL     1      39.541   0.549  38.945  1.00  0.00     0.048 A 
ATOM     41  H8  UNL     1      40.552   0.375  37.168  1.00  0.00     0.168 HD
HETATM   42  C16 UNL     1      40.499  -0.152  39.692  1.00  0.00     0.030 A 
HETATM   43  C20 UNL     1      38.395   1.043  39.518  1.00  0.00     0.042 A 
HETATM   44  C17 UNL     1      40.250  -0.322  41.027  1.00  0.00     0.002 A 
HETATM   45  C18 UNL     1      39.116   0.158  41.642  1.00  0.00     0.001 A 
HETATM   46  C19 UNL     1      38.209   0.831  40.881  1.00  0.00     0.018 A 
HETATM   47  C21 UNL     1      37.419   1.716  38.789  1.00  0.00     0.204 A 
HETATM   48  O5  UNL     1      36.394   2.145  39.375  1.00  0.00    -0.286 OA
BRANCH  38  49
HETATM   49  O4  UNL     1      38.961   1.566  35.509  1.00  0.00    -0.345 OA
ATOM     50  H4  UNL     1      39.219   0.808  34.998  1.00  0.00     0.219 HD
ENDBRANCH  38  49
ENDBRANCH  35  37
ENDBRANCH  34  35
ENDBRANCH  33  34
ENDBRANCH  29  33
ENDBRANCH  26  27
ENDBRANCH   1  26
TORSDOF 13
ENDMDL
MODEL 4
REMARK VINA RESULT: -8.870356667      2.365      5.702
REMARK  13 active torsions:
REMARK  status: ('A' for Active; 'I' for Inactive)
REMARK    1  A    between atoms: N1_1  and  C1_4 
REMARK    2  A    between atoms: C3_8  and  N3_9 
REMARK    3  A    between atoms: C4_16  and  N6_17 
REMARK    4  A    between atoms: N6_17  and  C5_19 
REMARK    5  A    between atoms: C5_19  and  C6_20 
REMARK    6  A    between atoms: C6_20  and  N7_21 
REMARK    7  A    between atoms: N7_21  and  C7_24 
REMARK    8  A    between atoms: C7_24  and  C8_25 
REMARK    9  A    between atoms: C10_27  and  C11_28 
REMARK   10  A    between atoms: C11_28  and  O2_29 
REMARK   11  A    between atoms: O2_29  and  C12_30 
REMARK   12  A    between atoms: C12_30  and  C13_32 
REMARK   13  A    between atoms: C14_33  and  O4_34 
ROOT
HETATM    1  N7  UNL     1      32.877   4.573  42.043  1.00  0.00    -0.068 N 
ATOM      2  H71 UNL     1      32.651   3.920  41.292  1.00  0.00     0.277 HD
ATOM      3  H72 UNL     1      33.824   4.250  42.243  1.00  0.00     0.277 HD
ENDROOT
BRANCH   1   4
HETATM    4  C6  UNL     1      32.006   4.411  43.172  1.00  0.00     0.253 C 
BRANCH   4   5
HETATM    5  C5  UNL     1      31.922   3.083  43.820  1.00  0.00     0.165 C 
BRANCH   5   6
HETATM    6  N6  UNL     1      32.907   2.151  43.414  1.00  0.00    -0.222 N 
ATOM      7  H6  UNL     1      32.897   1.919  42.421  1.00  0.00     0.177 HD
BRANCH   6   8
HETATM    8  C4  UNL     1      33.802   1.558  44.092  1.00  0.00     0.723 A 
HETATM    9  N5  UNL     1      35.082   1.997  43.950  1.00  0.00    -0.004 N 
HETATM   10  C2  UNL     1      36.114   1.460  44.588  1.00  0.00     0.214 A 
HETATM   11  O1  UNL     1      35.506   2.985  43.204  1.00  0.00    -0.131 OA
HETATM   12  N2  UNL     1      35.915   0.420  45.434  1.00  0.00    -0.170 N 
HETATM   13  C3  UNL     1      37.217   2.179  44.191  1.00  0.00     0.169 A 
HETATM   14  C1  UNL     1      34.667  -0.046  45.609  1.00  0.00     0.692 A 
ATOM     15  H2  UNL     1      36.700  -0.001  45.931  1.00  0.00     0.186 HD
HETATM   16  N10 UNL     1      33.625   0.526  44.936  1.00  0.00    -0.020 N 
ATOM     17  H10 UNL     1      32.683   0.159  45.078  1.00  0.00     0.203 HD
HETATM   18  N4  UNL     1      36.796   3.115  43.334  1.00  0.00    -0.221 N 
ATOM     19  H4  UNL     1      37.381   3.807  42.864  1.00  0.00     0.198 HD
BRANCH  14  20
HETATM   20  N1  UNL     1      34.470  -1.045  46.409  1.00  0.00    -0.234 N 
ATOM     21  H12 UNL     1      33.762  -0.995  47.142  1.00  0.00     0.174 HD
ATOM     22  H11 UNL     1      35.026  -1.893  46.295  1.00  0.00     0.174 HD
ENDBRANCH  14  20
BRANCH  13  23
HETATM   23  N3  UNL     1      38.443   2.001  44.563  1.00  0.00    -0.381 N 
ATOM     24  H32 UNL     1      38.745   1.764  45.508  1.00  0.00     0.157 HD
ATOM     25  H31 UNL     1      39.280   2.069  43.984  1.00  0.00     0.157 HD
ENDBRANCH  13  23
ENDBRANCH   6   8
ENDBRANCH   5   6
ENDBRANCH   4   5
ENDBRANCH   1   4
BRANCH   1  26
HETATM   26  C7  UNL     1      32.859   5.964  41.583  1.00  0.00     0.299 C 
BRANCH  26  27
HETATM   27  C8  UNL     1      33.760   6.085  40.390  1.00  0.00     0.103 A 
HETATM   28  C9  UNL     1      33.998   5.217  39.371  1.00  0.00     0.065 A 
HETATM   29  C10 UNL     1      34.894   5.795  38.504  1.00  0.00     0.059 A 
HETATM   30  N9  UNL     1      35.177   7.019  39.050  1.00  0.00    -0.263 N 
HETATM   31  O6  UNL     1      34.501   7.170  40.156  1.00  0.00    -0.240 OA
ATOM     32  H9  UNL     1      35.817   7.707  38.653  1.00  0.00     0.194 HD
BRANCH  29  33
HETATM   33  C11 UNL     1      35.465   5.309  37.220  1.00  0.00     0.238 C 
BRANCH  33  34
HETATM   34  O2  UNL     1      36.278   4.198  37.394  1.00  0.00    -0.311 OA
BRANCH  34  35
HETATM   35  C12 UNL     1      35.841   2.941  37.711  1.00  0.00     0.302 C 
HETATM   36  O3  UNL     1      34.778   2.498  37.240  1.00  0.00    -0.259 OA
BRANCH  35  37
HETATM   37  C13 UNL     1      36.697   2.164  38.619  1.00  0.00     0.141 A 
HETATM   38  C14 UNL     1      36.405   2.048  39.959  1.00  0.00     0.161 A 
HETATM   39  N8  UNL     1      37.226   1.408  40.811  1.00  0.00    -0.335 N 
HETATM   40  C15 UNL     1      38.376   0.850  40.384  1.00  0.00     0.048 A 
ATOM     41  H8  UNL     1      36.974   1.344  41.797  1.00  0.00     0.168 HD
HETATM   42  C16 UNL     1      39.235   0.213  41.290  1.00  0.00     0.030 A 
HETATM   43  C20 UNL     1      38.681   0.955  39.049  1.00  0.00     0.042 A 
HETATM   44  C17 UNL     1      40.398  -0.309  40.791  1.00  0.00     0.002 A 
HETATM   45  C18 UNL     1      40.742  -0.227  39.460  1.00  0.00     0.001 A 
HETATM   46  C19 UNL     1      39.881   0.402  38.612  1.00  0.00     0.018 A 
HETATM   47  C21 UNL     1      37.855   1.609  38.138  1.00  0.00     0.204 A 
HETATM   48  O5  UNL     1      38.192   1.668  36.929  1.00  0.00    -0.286 OA
BRANCH  38  49
HETATM   49  O4  UNL     1      35.211   2.628  40.403  1.00  0.00    -0.345 OA
ATOM     50  H4  UNL     1      35.265   3.507  40.757  1.00  0.00     0.219 HD
ENDBRANCH  38  49
ENDBRANCH  35  37
ENDBRANCH  34  35
ENDBRANCH  33  34
ENDBRANCH  29  33
ENDBRANCH  26  27
ENDBRANCH   1  26
TORSDOF 13
ENDMDL
MODEL 5
REMARK VINA RESULT: -8.861719429      1.246      2.158
REMARK  13 active torsions:
REMARK  status: ('A' for Active; 'I' for Inactive)
REMARK    1  A    between atoms: N1_1  and  C1_4 
REMARK    2  A    between atoms: C3_8  and  N3_9 
REMARK    3  A    between atoms: C4_16  and  N6_17 
REMARK    4  A    between atoms: N6_17  and  C5_19 
REMARK    5  A    between atoms: C5_19  and  C6_20 
REMARK    6  A    between atoms: C6_20  and  N7_21 
REMARK    7  A    between atoms: N7_21  and  C7_24 
REMARK    8  A    between atoms: C7_24  and  C8_25 
REMARK    9  A    between atoms: C10_27  and  C11_28 
REMARK   10  A    between atoms: C11_28  and  O2_29 
REMARK   11  A    between atoms: O2_29  and  C12_30 
REMARK   12  A    between atoms: C12_30  and  C13_32 
REMARK   13  A    between atoms: C14_33  and  O4_34 
ROOT
HETATM    1  N7  UNL     1      31.728   3.339  43.169  1.00  0.00    -0.068 N 
ATOM      2  H71 UNL     1      32.158   2.586  42.631  1.00  0.00     0.277 HD
ATOM      3  H72 UNL     1      30.754   3.159  42.926  1.00  0.00     0.277 HD
ENDROOT
BRANCH   1   4
HETATM    4  C6  UNL     1      32.162   4.631  42.722  1.00  0.00     0.253 C 
BRANCH   4   5
HETATM    5  C5  UNL     1      33.294   4.711  41.773  1.00  0.00     0.165 C 
BRANCH   5   6
HETATM    6  N6  UNL     1      32.933   4.719  40.404  1.00  0.00    -0.222 N 
ATOM      7  H6  UNL     1      32.338   5.497  40.121  1.00  0.00     0.177 HD
BRANCH   6   8
HETATM    8  C4  UNL     1      33.235   3.911  39.474  1.00  0.00     0.723 A 
HETATM    9  N5  UNL     1      34.359   4.182  38.754  1.00  0.00    -0.004 N 
HETATM   10  C2  UNL     1      34.782   3.428  37.748  1.00  0.00     0.214 A 
HETATM   11  O1  UNL     1      35.189   5.179  38.922  1.00  0.00    -0.131 OA
HETATM   12  N2  UNL     1      34.083   2.322  37.395  1.00  0.00    -0.170 N 
HETATM   13  C3  UNL     1      35.937   4.021  37.293  1.00  0.00     0.169 A 
HETATM   14  C1  UNL     1      32.969   2.012  38.078  1.00  0.00     0.692 A 
ATOM     15  H2  UNL     1      34.398   1.735  36.623  1.00  0.00     0.186 HD
HETATM   16  N10 UNL     1      32.556   2.809  39.108  1.00  0.00    -0.020 N 
ATOM     17  H10 UNL     1      31.706   2.561  39.616  1.00  0.00     0.203 HD
HETATM   18  N4  UNL     1      36.153   5.103  38.049  1.00  0.00    -0.221 N 
ATOM     19  H4  UNL     1      36.934   5.754  37.958  1.00  0.00     0.198 HD
BRANCH  14  20
HETATM   20  N1  UNL     1      32.290   0.962  37.740  1.00  0.00    -0.234 N 
ATOM     21  H12 UNL     1      32.166   0.714  36.759  1.00  0.00     0.174 HD
ATOM     22  H11 UNL     1      31.886   0.373  38.469  1.00  0.00     0.174 HD
ENDBRANCH  14  20
BRANCH  13  23
HETATM   23  N3  UNL     1      36.689   3.626  36.319  1.00  0.00    -0.381 N 
ATOM     24  H32 UNL     1      36.432   2.929  35.619  1.00  0.00     0.157 HD
ATOM     25  H31 UNL     1      37.635   3.940  36.102  1.00  0.00     0.157 HD
ENDBRANCH  13  23
ENDBRANCH   6   8
ENDBRANCH   5   6
ENDBRANCH   4   5
ENDBRANCH   1   4
BRANCH   1  26
HETATM   26  C7  UNL     1      31.969   3.191  44.607  1.00  0.00     0.299 C 
BRANCH  26  27
HETATM   27  C8  UNL     1      33.215   2.380  44.803  1.00  0.00     0.103 A 
HETATM   28  C9  UNL     1      34.515   2.766  44.895  1.00  0.00     0.065 A 
HETATM   29  C10 UNL     1      35.291   1.650  45.093  1.00  0.00     0.059 A 
HETATM   30  N9  UNL     1      34.408   0.602  45.105  1.00  0.00    -0.263 N 
HETATM   31  O6  UNL     1      33.195   1.053  44.934  1.00  0.00    -0.240 OA
ATOM     32  H9  UNL     1      34.659  -0.379  45.229  1.00  0.00     0.194 HD
BRANCH  29  33
HETATM   33  C11 UNL     1      36.756   1.499  45.297  1.00  0.00     0.238 C 
BRANCH  33  34
HETATM   34  O2  UNL     1      37.448   1.423  44.096  1.00  0.00    -0.311 OA
BRANCH  34  35
HETATM   35  C12 UNL     1      37.338   0.409  43.184  1.00  0.00     0.302 C 
HETATM   36  O3  UNL     1      36.868  -0.695  43.513  1.00  0.00    -0.259 OA
BRANCH  35  37
HETATM   37  C13 UNL     1      37.793   0.709  41.819  1.00  0.00     0.141 A 
HETATM   38  C14 UNL     1      37.059   1.510  40.975  1.00  0.00     0.161 A 
HETATM   39  N8  UNL     1      37.426   1.723  39.699  1.00  0.00    -0.335 N 
HETATM   40  C15 UNL     1      38.539   1.156  39.191  1.00  0.00     0.048 A 
ATOM     41  H8  UNL     1      36.854   2.323  39.105  1.00  0.00     0.168 HD
HETATM   42  C16 UNL     1      38.892   1.363  37.850  1.00  0.00     0.030 A 
HETATM   43  C20 UNL     1      39.285   0.355  40.021  1.00  0.00     0.042 A 
HETATM   44  C17 UNL     1      40.020   0.736  37.395  1.00  0.00     0.002 A 
HETATM   45  C18 UNL     1      40.797  -0.074  38.193  1.00  0.00     0.001 A 
HETATM   46  C19 UNL     1      40.419  -0.251  39.489  1.00  0.00     0.018 A 
HETATM   47  C21 UNL     1      38.935   0.113  41.347  1.00  0.00     0.204 A 
HETATM   48  O5  UNL     1      39.662  -0.628  42.053  1.00  0.00    -0.286 OA
BRANCH  38  49
HETATM   49  O4  UNL     1      35.903   2.098  41.502  1.00  0.00    -0.345 OA
ATOM     50  H4  UNL     1      35.878   3.047  41.533  1.00  0.00     0.219 HD
ENDBRANCH  38  49
ENDBRANCH  35  37
ENDBRANCH  34  35
ENDBRANCH  33  34
ENDBRANCH  29  33
ENDBRANCH  26  27
ENDBRANCH   1  26
TORSDOF 13
ENDMDL
