MODEL 1
REMARK VINA RESULT: -8.622556117      0.000      0.000
REMARK  17 active torsions:
REMARK  status: ('A' for Active; 'I' for Inactive)
REMARK    1  A    between atoms: C2_2  and  C3_6 
REMARK    2  A    between atoms: C3_6  and  C4_7 
REMARK    3  A    between atoms: C3_6  and  C6_10 
REMARK    4  A    between atoms: C6_10  and  C7_12 
REMARK    5  A    between atoms: C7_12  and  O4_14 
REMARK    6  A    between atoms: O4_14  and  C8_15 
REMARK    7  A    between atoms: C8_15  and  C9_16 
REMARK    8  A    between atoms: C12_20  and  O6_21 
REMARK    9  A    between atoms: C14_24  and  O7_25 
REMARK   10  A    between atoms: C15_27  and  C16_28 
REMARK   11  A    between atoms: C16_28  and  O8_29 
REMARK   12  A    between atoms: O8_29  and  C17_30 
REMARK   13  A    between atoms: C20_34  and  O10_35 
REMARK   14  A    between atoms: C20_34  and  C21_37 
REMARK   15  A    between atoms: C21_37  and  N2_38 
REMARK   16  A    between atoms: N2_38  and  O11_40 
REMARK   17  A    between atoms: C22_42  and  O12_43 
ROOT
HETATM    1  C9  UNL     1      36.823   1.037  44.047  1.00  0.00     0.070 C 
HETATM    2  C10 UNL     1      37.435   0.699  42.776  1.00  0.00     0.200 C 
HETATM    3  O5  UNL     1      38.287  -0.220  42.754  1.00  0.00    -0.286 OA
HETATM    4  C11 UNL     1      37.005   1.471  41.582  1.00  0.00     0.059 A 
HETATM    5  C12 UNL     1      37.817   1.239  40.464  1.00  0.00     0.083 A 
HETATM    6  C13 UNL     1      37.658   2.040  39.350  1.00  0.00     0.075 A 
HETATM    7  C14 UNL     1      36.749   3.011  39.337  1.00  0.00     0.081 A 
HETATM    8  C15 UNL     1      35.896   3.262  40.479  1.00  0.00     0.031 A 
HETATM    9  C19 UNL     1      36.016   2.492  41.610  1.00  0.00     0.020 A 
HETATM   10  C20 UNL     1      35.146   2.432  42.731  1.00  0.00     0.170 C 
HETATM   11  C22 UNL     1      35.881   2.107  43.965  1.00  0.00     0.104 C 
ENDROOT
BRANCH   1  12
HETATM   12  C8  UNL     1      37.108   0.415  45.201  1.00  0.00     0.164 C 
BRANCH  12  13
HETATM   13  O4  UNL     1      36.614  -0.793  45.591  1.00  0.00    -0.284 OA
BRANCH  13  14
HETATM   14  C7  UNL     1      35.401  -0.841  46.256  1.00  0.00     0.335 C 
HETATM   15  O3  UNL     1      34.338  -0.471  45.658  1.00  0.00    -0.256 OA
BRANCH  14  16
HETATM   16  C6  UNL     1      35.354  -1.311  47.624  1.00  0.00     0.240 C 
HETATM   17  O2  UNL     1      34.484  -2.149  47.949  1.00  0.00    -0.285 OA
BRANCH  16  18
HETATM   18  C3  UNL     1      36.345  -0.786  48.615  1.00  0.00     0.180 C 
BRANCH  18  19
HETATM   19  C2  UNL     1      35.657  -0.239  49.814  1.00  0.00    -0.005 C 
HETATM   20  C1  UNL     1      35.891   1.165  50.248  1.00  0.00     0.064 C 
HETATM   21  N1  UNL     1      34.838  -0.945  50.523  1.00  0.00    -0.405 N 
ATOM     22  H12 UNL     1      34.366  -0.569  51.345  1.00  0.00     0.155 HD
ATOM     23  H11 UNL     1      34.678  -1.907  50.225  1.00  0.00     0.155 HD
ENDBRANCH  18  19
BRANCH  18  24
HETATM   24  C4  UNL     1      37.340  -1.810  48.970  1.00  0.00     0.140 C 
HETATM   25  C5  UNL     1      38.540  -2.123  48.178  1.00  0.00     0.092 C 
HETATM   26  O1  UNL     1      37.169  -2.466  50.009  1.00  0.00    -0.297 OA
ENDBRANCH  18  24
ENDBRANCH  16  18
ENDBRANCH  14  16
ENDBRANCH  13  14
ENDBRANCH  12  13
ENDBRANCH   1  12
BRANCH  11  27
HETATM   27  O12 UNL     1      35.698   2.802  45.058  1.00  0.00    -0.360 OA
ATOM     28  H12 UNL     1      36.470   3.212  45.429  1.00  0.00     0.217 HD
ENDBRANCH  11  27
BRANCH  10  29
HETATM   29  O10 UNL     1      34.513   1.113  42.350  1.00  0.00    -0.373 OA
ATOM     30  H10 UNL     1      34.212   1.401  41.496  1.00  0.00     0.212 HD
ENDBRANCH  10  29
BRANCH  10  31
HETATM   31  C21 UNL     1      33.970   3.061  43.233  1.00  0.00     0.136 C 
BRANCH  31  32
HETATM   32  N2  UNL     1      32.853   2.261  43.673  1.00  0.00    -0.281 N 
ATOM     33  H2  UNL     1      32.093   2.038  43.030  1.00  0.00     0.193 HD
BRANCH  32  34
HETATM   34  O11 UNL     1      32.824   1.826  44.898  1.00  0.00    -0.290 OA
ATOM     35  H11 UNL     1      32.016   1.467  45.246  1.00  0.00     0.244 HD
ENDBRANCH  32  34
ENDBRANCH  31  32
ENDBRANCH  10  31
BRANCH   5  36
HETATM   36  O6  UNL     1      38.766   0.274  40.379  1.00  0.00    -0.360 OA
ATOM     37  H6  UNL     1      39.184  -0.010  39.574  1.00  0.00     0.217 HD
ENDBRANCH   5  36
BRANCH   8  38
HETATM   38  C16 UNL     1      34.974   4.318  40.231  1.00  0.00     0.160 C 
BRANCH  38  39
HETATM   39  O8  UNL     1      33.828   4.370  39.579  1.00  0.00    -0.290 OA
BRANCH  39  40
HETATM   40  C17 UNL     1      32.916   3.327  39.606  1.00  0.00     0.259 C 
HETATM   41  C18 UNL     1      32.842   2.305  38.536  1.00  0.00     0.126 C 
HETATM   42  O9  UNL     1      32.140   3.265  40.576  1.00  0.00    -0.265 OA
ENDBRANCH  39  40
ENDBRANCH  38  39
ENDBRANCH   8  38
BRANCH   7  43
HETATM   43  O7  UNL     1      36.540   3.861  38.244  1.00  0.00    -0.360 OA
ATOM     44  H7  UNL     1      36.127   3.584  37.434  1.00  0.00     0.217 HD
ENDBRANCH   7  43
TORSDOF 17
ENDMDL
MODEL 2
REMARK VINA RESULT: -8.618137756      1.003      1.102
REMARK  17 active torsions:
REMARK  status: ('A' for Active; 'I' for Inactive)
REMARK    1  A    between atoms: C2_2  and  C3_6 
REMARK    2  A    between atoms: C3_6  and  C4_7 
REMARK    3  A    between atoms: C3_6  and  C6_10 
REMARK    4  A    between atoms: C6_10  and  C7_12 
REMARK    5  A    between atoms: C7_12  and  O4_14 
REMARK    6  A    between atoms: O4_14  and  C8_15 
REMARK    7  A    between atoms: C8_15  and  C9_16 
REMARK    8  A    between atoms: C12_20  and  O6_21 
REMARK    9  A    between atoms: C14_24  and  O7_25 
REMARK   10  A    between atoms: C15_27  and  C16_28 
REMARK   11  A    between atoms: C16_28  and  O8_29 
REMARK   12  A    between atoms: O8_29  and  C17_30 
REMARK   13  A    between atoms: C20_34  and  O10_35 
REMARK   14  A    between atoms: C20_34  and  C21_37 
REMARK   15  A    between atoms: C21_37  and  N2_38 
REMARK   16  A    between atoms: N2_38  and  O11_40 
REMARK   17  A    between atoms: C22_42  and  O12_43 
ROOT
HETATM    1  C9  UNL     1      37.425   1.268  44.000  1.00  0.00     0.070 C 
HETATM    2  C10 UNL     1      38.147   0.641  42.909  1.00  0.00     0.200 C 
HETATM    3  O5  UNL     1      39.035  -0.198  43.191  1.00  0.00    -0.286 OA
HETATM    4  C11 UNL     1      37.779   1.037  41.526  1.00  0.00     0.059 A 
HETATM    5  C12 UNL     1      38.684   0.565  40.567  1.00  0.00     0.083 A 
HETATM    6  C13 UNL     1      38.579   1.027  39.269  1.00  0.00     0.075 A 
HETATM    7  C14 UNL     1      37.634   1.903  38.936  1.00  0.00     0.081 A 
HETATM    8  C15 UNL     1      36.686   2.398  39.911  1.00  0.00     0.031 A 
HETATM    9  C19 UNL     1      36.749   1.967  41.214  1.00  0.00     0.020 A 
HETATM   10  C20 UNL     1      35.799   2.156  42.251  1.00  0.00     0.170 C 
HETATM   11  C22 UNL     1      36.449   2.218  43.571  1.00  0.00     0.104 C 
ENDROOT
BRANCH   1  12
HETATM   12  C8  UNL     1      37.645   0.996  45.294  1.00  0.00     0.164 C 
BRANCH  12  13
HETATM   13  O4  UNL     1      36.704   1.022  46.279  1.00  0.00    -0.284 OA
BRANCH  13  14
HETATM   14  C7  UNL     1      35.717   0.052  46.292  1.00  0.00     0.335 C 
HETATM   15  O3  UNL     1      34.905  -0.035  45.314  1.00  0.00    -0.256 OA
BRANCH  14  16
HETATM   16  C6  UNL     1      35.618  -0.852  47.418  1.00  0.00     0.240 C 
HETATM   17  O2  UNL     1      34.870  -1.851  47.331  1.00  0.00    -0.285 OA
BRANCH  16  18
HETATM   18  C3  UNL     1      36.410  -0.571  48.656  1.00  0.00     0.180 C 
BRANCH  18  19
HETATM   19  C2  UNL     1      35.523  -0.132  49.765  1.00  0.00    -0.005 C 
HETATM   20  C1  UNL     1      35.812   1.120  50.518  1.00  0.00     0.064 C 
HETATM   21  N1  UNL     1      34.478  -0.803  50.122  1.00  0.00    -0.405 N 
ATOM     22  H12 UNL     1      33.869  -0.501  50.883  1.00  0.00     0.155 HD
ATOM     23  H11 UNL     1      34.280  -1.661  49.606  1.00  0.00     0.155 HD
ENDBRANCH  18  19
BRANCH  18  24
HETATM   24  C4  UNL     1      37.235  -1.729  49.036  1.00  0.00     0.140 C 
HETATM   25  C5  UNL     1      38.401  -2.212  48.279  1.00  0.00     0.092 C 
HETATM   26  O1  UNL     1      36.940  -2.353  50.066  1.00  0.00    -0.297 OA
ENDBRANCH  18  24
ENDBRANCH  16  18
ENDBRANCH  14  16
ENDBRANCH  13  14
ENDBRANCH  12  13
ENDBRANCH   1  12
BRANCH  11  27
HETATM   27  O12 UNL     1      36.153   3.167  44.421  1.00  0.00    -0.360 OA
ATOM     28  H12 UNL     1      36.884   3.559  44.884  1.00  0.00     0.217 HD
ENDBRANCH  11  27
BRANCH  10  29
HETATM   29  O10 UNL     1      35.253   0.747  42.203  1.00  0.00    -0.373 OA
ATOM     30  H10 UNL     1      35.954   0.361  42.714  1.00  0.00     0.212 HD
ENDBRANCH  10  29
BRANCH  10  31
HETATM   31  C21 UNL     1      34.562   2.824  42.489  1.00  0.00     0.136 C 
BRANCH  31  32
HETATM   32  N2  UNL     1      33.464   2.116  43.100  1.00  0.00    -0.281 N 
ATOM     33  H2  UNL     1      32.814   1.578  42.526  1.00  0.00     0.193 HD
BRANCH  32  34
HETATM   34  O11 UNL     1      33.310   2.171  44.390  1.00  0.00    -0.290 OA
ATOM     35  H11 UNL     1      32.680   1.596  44.809  1.00  0.00     0.244 HD
ENDBRANCH  32  34
ENDBRANCH  31  32
ENDBRANCH  10  31
BRANCH   5  36
HETATM   36  O6  UNL     1      39.676  -0.328  40.807  1.00  0.00    -0.360 OA
ATOM     37  H6  UNL     1      40.297  -0.641  40.159  1.00  0.00     0.217 HD
ENDBRANCH   5  36
BRANCH   8  38
HETATM   38  C16 UNL     1      35.743   3.291  39.329  1.00  0.00     0.160 C 
BRANCH  38  39
HETATM   39  O8  UNL     1      34.669   3.098  38.585  1.00  0.00    -0.290 OA
BRANCH  39  40
HETATM   40  C17 UNL     1      33.458   2.701  39.128  1.00  0.00     0.259 C 
HETATM   41  C18 UNL     1      32.449   3.667  39.619  1.00  0.00     0.126 C 
HETATM   42  O9  UNL     1      33.230   1.479  39.194  1.00  0.00    -0.265 OA
ENDBRANCH  39  40
ENDBRANCH  38  39
ENDBRANCH   8  38
BRANCH   7  43
HETATM   43  O7  UNL     1      37.475   2.415  37.643  1.00  0.00    -0.360 OA
ATOM     44  H7  UNL     1      36.630   2.603  37.252  1.00  0.00     0.217 HD
ENDBRANCH   7  43
TORSDOF 17
ENDMDL
MODEL 3
REMARK VINA RESULT: -8.537188292      2.905      8.504
REMARK  17 active torsions:
REMARK  status: ('A' for Active; 'I' for Inactive)
REMARK    1  A    between atoms: C2_2  and  C3_6 
REMARK    2  A    between atoms: C3_6  and  C4_7 
REMARK    3  A    between atoms: C3_6  and  C6_10 
REMARK    4  A    between atoms: C6_10  and  C7_12 
REMARK    5  A    between atoms: C7_12  and  O4_14 
REMARK    6  A    between atoms: O4_14  and  C8_15 
REMARK    7  A    between atoms: C8_15  and  C9_16 
REMARK    8  A    between atoms: C12_20  and  O6_21 
REMARK    9  A    between atoms: C14_24  and  O7_25 
REMARK   10  A    between atoms: C15_27  and  C16_28 
REMARK   11  A    between atoms: C16_28  and  O8_29 
REMARK   12  A    between atoms: O8_29  and  C17_30 
REMARK   13  A    between atoms: C20_34  and  O10_35 
REMARK   14  A    between atoms: C20_34  and  C21_37 
REMARK   15  A    between atoms: C21_37  and  N2_38 
REMARK   16  A    between atoms: N2_38  and  O11_40 
REMARK   17  A    between atoms: C22_42  and  O12_43 
ROOT
HETATM    1  C9  UNL     1      34.986   2.908  38.905  1.00  0.00     0.070 C 
HETATM    2  C10 UNL     1      36.349   2.472  38.669  1.00  0.00     0.200 C 
HETATM    3  O5  UNL     1      36.830   2.628  37.522  1.00  0.00    -0.286 OA
HETATM    4  C11 UNL     1      37.084   1.870  39.810  1.00  0.00     0.059 A 
HETATM    5  C12 UNL     1      38.288   1.268  39.424  1.00  0.00     0.083 A 
HETATM    6  C13 UNL     1      38.971   0.496  40.344  1.00  0.00     0.075 A 
HETATM    7  C14 UNL     1      38.494   0.328  41.575  1.00  0.00     0.081 A 
HETATM    8  C15 UNL     1      37.255   0.946  41.995  1.00  0.00     0.031 A 
HETATM    9  C19 UNL     1      36.540   1.724  41.117  1.00  0.00     0.020 A 
HETATM   10  C20 UNL     1      35.441   2.579  41.391  1.00  0.00     0.170 C 
HETATM   11  C22 UNL     1      34.530   2.670  40.238  1.00  0.00     0.104 C 
ENDROOT
BRANCH   1  12
HETATM   12  C8  UNL     1      34.212   3.478  37.971  1.00  0.00     0.164 C 
BRANCH  12  13
HETATM   13  O4  UNL     1      33.165   4.316  38.214  1.00  0.00    -0.284 OA
BRANCH  13  14
HETATM   14  C7  UNL     1      33.353   5.682  38.088  1.00  0.00     0.335 C 
HETATM   15  O3  UNL     1      34.470   6.129  37.669  1.00  0.00    -0.256 OA
BRANCH  14  16
HETATM   16  C6  UNL     1      32.276   6.585  38.434  1.00  0.00     0.240 C 
HETATM   17  O2  UNL     1      31.126   6.356  37.996  1.00  0.00    -0.285 OA
BRANCH  16  18
HETATM   18  C3  UNL     1      32.562   7.768  39.304  1.00  0.00     0.180 C 
BRANCH  18  19
HETATM   19  C2  UNL     1      31.573   8.853  39.066  1.00  0.00    -0.005 C 
HETATM   20  C1  UNL     1      32.009  10.177  38.545  1.00  0.00     0.064 C 
HETATM   21  N1  UNL     1      30.310   8.699  39.297  1.00  0.00    -0.405 N 
ATOM     22  H12 UNL     1      29.632   9.442  39.134  1.00  0.00     0.155 HD
ATOM     23  H11 UNL     1      30.012   7.791  39.654  1.00  0.00     0.155 HD
ENDBRANCH  18  19
BRANCH  18  24
HETATM   24  C4  UNL     1      32.630   7.385  40.723  1.00  0.00     0.140 C 
HETATM   25  C5  UNL     1      33.127   6.092  41.219  1.00  0.00     0.092 C 
HETATM   26  O1  UNL     1      32.244   8.200  41.574  1.00  0.00    -0.297 OA
ENDBRANCH  18  24
ENDBRANCH  16  18
ENDBRANCH  14  16
ENDBRANCH  13  14
ENDBRANCH  12  13
ENDBRANCH   1  12
BRANCH  11  27
HETATM   27  O12 UNL     1      33.238   2.531  40.391  1.00  0.00    -0.360 OA
ATOM     28  H12 UNL     1      32.883   1.670  40.202  1.00  0.00     0.217 HD
ENDBRANCH  11  27
BRANCH  10  29
HETATM   29  O10 UNL     1      36.234   3.864  41.303  1.00  0.00    -0.373 OA
ATOM     30  H10 UNL     1      35.523   4.428  41.583  1.00  0.00     0.212 HD
ENDBRANCH  10  29
BRANCH  10  31
HETATM   31  C21 UNL     1      34.598   2.959  42.476  1.00  0.00     0.136 C 
BRANCH  31  32
HETATM   32  N2  UNL     1      33.745   1.982  43.106  1.00  0.00    -0.281 N 
ATOM     33  H2  UNL     1      34.100   1.050  43.323  1.00  0.00     0.193 HD
BRANCH  32  34
HETATM   34  O11 UNL     1      32.517   2.299  43.394  1.00  0.00    -0.290 OA
ATOM     35  H11 UNL     1      31.809   1.951  42.864  1.00  0.00     0.244 HD
ENDBRANCH  32  34
ENDBRANCH  31  32
ENDBRANCH  10  31
BRANCH   5  36
HETATM   36  O6  UNL     1      38.856   1.383  38.198  1.00  0.00    -0.360 OA
ATOM     37  H6  UNL     1      39.397   0.720  37.784  1.00  0.00     0.217 HD
ENDBRANCH   5  36
BRANCH   8  38
HETATM   38  C16 UNL     1      36.957   0.666  43.358  1.00  0.00     0.160 C 
BRANCH  38  39
HETATM   39  O8  UNL     1      37.339   1.227  44.491  1.00  0.00    -0.290 OA
BRANCH  39  40
HETATM   40  C17 UNL     1      36.515   1.275  45.604  1.00  0.00     0.259 C 
HETATM   41  C18 UNL     1      36.563   0.255  46.677  1.00  0.00     0.126 C 
HETATM   42  O9  UNL     1      35.711   2.222  45.686  1.00  0.00    -0.265 OA
ENDBRANCH  39  40
ENDBRANCH  38  39
ENDBRANCH   8  38
BRANCH   7  43
HETATM   43  O7  UNL     1      39.131  -0.444  42.553  1.00  0.00    -0.360 OA
ATOM     44  H7  UNL     1      38.684  -1.093  43.084  1.00  0.00     0.217 HD
ENDBRANCH   7  43
TORSDOF 17
ENDMDL
MODEL 4
REMARK VINA RESULT: -8.361536577      1.360      2.014
REMARK  17 active torsions:
REMARK  status: ('A' for Active; 'I' for Inactive)
REMARK    1  A    between atoms: C2_2  and  C3_6 
REMARK    2  A    between atoms: C3_6  and  C4_7 
REMARK    3  A    between atoms: C3_6  and  C6_10 
REMARK    4  A    between atoms: C6_10  and  C7_12 
REMARK    5  A    between atoms: C7_12  and  O4_14 
REMARK    6  A    between atoms: O4_14  and  C8_15 
REMARK    7  A    between atoms: C8_15  and  C9_16 
REMARK    8  A    between atoms: C12_20  and  O6_21 
REMARK    9  A    between atoms: C14_24  and  O7_25 
REMARK   10  A    between atoms: C15_27  and  C16_28 
REMARK   11  A    between atoms: C16_28  and  O8_29 
REMARK   12  A    between atoms: O8_29  and  C17_30 
REMARK   13  A    between atoms: C20_34  and  O10_35 
REMARK   14  A    between atoms: C20_34  and  C21_37 
REMARK   15  A    between atoms: C21_37  and  N2_38 
REMARK   16  A    between atoms: N2_38  and  O11_40 
REMARK   17  A    between atoms: C22_42  and  O12_43 
ROOT
HETATM    1  C9  UNL     1      36.881   0.915  44.030  1.00  0.00     0.070 C 
HETATM    2  C10 UNL     1      37.489   0.612  42.748  1.00  0.00     0.200 C 
HETATM    3  O5  UNL     1      38.352  -0.296  42.702  1.00  0.00    -0.286 OA
HETATM    4  C11 UNL     1      37.043   1.403  41.573  1.00  0.00     0.059 A 
HETATM    5  C12 UNL     1      37.851   1.206  40.446  1.00  0.00     0.083 A 
HETATM    6  C13 UNL     1      37.675   2.028  39.350  1.00  0.00     0.075 A 
HETATM    7  C14 UNL     1      36.754   2.988  39.363  1.00  0.00     0.081 A 
HETATM    8  C15 UNL     1      35.906   3.204  40.515  1.00  0.00     0.031 A 
HETATM    9  C19 UNL     1      36.041   2.411  41.629  1.00  0.00     0.020 A 
HETATM   10  C20 UNL     1      35.180   2.317  42.753  1.00  0.00     0.170 C 
HETATM   11  C22 UNL     1      35.925   1.975  43.975  1.00  0.00     0.104 C 
ENDROOT
BRANCH   1  12
HETATM   12  C8  UNL     1      37.180   0.273  45.168  1.00  0.00     0.164 C 
BRANCH  12  13
HETATM   13  O4  UNL     1      36.277  -0.285  46.022  1.00  0.00    -0.284 OA
BRANCH  13  14
HETATM   14  C7  UNL     1      36.251   0.132  47.341  1.00  0.00     0.335 C 
HETATM   15  O3  UNL     1      36.194   1.377  47.608  1.00  0.00    -0.256 OA
BRANCH  14  16
HETATM   16  C6  UNL     1      36.289  -0.851  48.402  1.00  0.00     0.240 C 
HETATM   17  O2  UNL     1      36.604  -0.486  49.558  1.00  0.00    -0.285 OA
BRANCH  16  18
HETATM   18  C3  UNL     1      35.951  -2.276  48.096  1.00  0.00     0.180 C 
BRANCH  18  19
HETATM   19  C2  UNL     1      37.120  -3.162  48.335  1.00  0.00    -0.005 C 
HETATM   20  C1  UNL     1      37.071  -4.602  47.962  1.00  0.00     0.064 C 
HETATM   21  N1  UNL     1      38.216  -2.731  48.870  1.00  0.00    -0.405 N 
ATOM     22  H12 UNL     1      39.018  -3.339  49.034  1.00  0.00     0.155 HD
ATOM     23  H11 UNL     1      38.249  -1.744  49.126  1.00  0.00     0.155 HD
ENDBRANCH  18  19
BRANCH  18  24
HETATM   24  C4  UNL     1      34.763  -2.717  48.844  1.00  0.00     0.140 C 
HETATM   25  C5  UNL     1      34.800  -3.457  50.115  1.00  0.00     0.092 C 
HETATM   26  O1  UNL     1      33.642  -2.452  48.383  1.00  0.00    -0.297 OA
ENDBRANCH  18  24
ENDBRANCH  16  18
ENDBRANCH  14  16
ENDBRANCH  13  14
ENDBRANCH  12  13
ENDBRANCH   1  12
BRANCH  11  27
HETATM   27  O12 UNL     1      35.740   2.644  45.084  1.00  0.00    -0.360 OA
ATOM     28  H12 UNL     1      35.590   3.578  44.991  1.00  0.00     0.217 HD
ENDBRANCH  11  27
BRANCH  10  29
HETATM   29  O10 UNL     1      34.560   0.999  42.348  1.00  0.00    -0.373 OA
ATOM     30  H10 UNL     1      34.143   0.835  43.185  1.00  0.00     0.212 HD
ENDBRANCH  10  29
BRANCH  10  31
HETATM   31  C21 UNL     1      33.998   2.921  43.275  1.00  0.00     0.136 C 
BRANCH  31  32
HETATM   32  N2  UNL     1      32.787   2.149  43.403  1.00  0.00    -0.281 N 
ATOM     33  H2  UNL     1      32.827   1.170  43.691  1.00  0.00     0.193 HD
BRANCH  32  34
HETATM   34  O11 UNL     1      31.643   2.712  43.149  1.00  0.00    -0.290 OA
ATOM     35  H11 UNL     1      30.907   2.172  42.884  1.00  0.00     0.244 HD
ENDBRANCH  32  34
ENDBRANCH  31  32
ENDBRANCH  10  31
BRANCH   5  36
HETATM   36  O6  UNL     1      38.812   0.255  40.336  1.00  0.00    -0.360 OA
ATOM     37  H6  UNL     1      39.696   0.407  40.022  1.00  0.00     0.217 HD
ENDBRANCH   5  36
BRANCH   8  38
HETATM   38  C16 UNL     1      34.970   4.253  40.295  1.00  0.00     0.160 C 
BRANCH  38  39
HETATM   39  O8  UNL     1      33.870   4.334  39.568  1.00  0.00    -0.290 OA
BRANCH  39  40
HETATM   40  C17 UNL     1      32.921   3.324  39.552  1.00  0.00     0.259 C 
HETATM   41  C18 UNL     1      32.861   2.303  38.480  1.00  0.00     0.126 C 
HETATM   42  O9  UNL     1      32.098   3.291  40.485  1.00  0.00    -0.265 OA
ENDBRANCH  39  40
ENDBRANCH  38  39
ENDBRANCH   8  38
BRANCH   7  43
HETATM   43  O7  UNL     1      36.528   3.858  38.289  1.00  0.00    -0.360 OA
ATOM     44  H7  UNL     1      35.858   4.531  38.292  1.00  0.00     0.217 HD
ENDBRANCH   7  43
TORSDOF 17
ENDMDL
MODEL 5
REMARK VINA RESULT: -8.335438329      3.250      9.015
REMARK  17 active torsions:
REMARK  status: ('A' for Active; 'I' for Inactive)
REMARK    1  A    between atoms: C2_2  and  C3_6 
REMARK    2  A    between atoms: C3_6  and  C4_7 
REMARK    3  A    between atoms: C3_6  and  C6_10 
REMARK    4  A    between atoms: C6_10  and  C7_12 
REMARK    5  A    between atoms: C7_12  and  O4_14 
REMARK    6  A    between atoms: O4_14  and  C8_15 
REMARK    7  A    between atoms: C8_15  and  C9_16 
REMARK    8  A    between atoms: C12_20  and  O6_21 
REMARK    9  A    between atoms: C14_24  and  O7_25 
REMARK   10  A    between atoms: C15_27  and  C16_28 
REMARK   11  A    between atoms: C16_28  and  O8_29 
REMARK   12  A    between atoms: O8_29  and  C17_30 
REMARK   13  A    between atoms: C20_34  and  O10_35 
REMARK   14  A    between atoms: C20_34  and  C21_37 
REMARK   15  A    between atoms: C21_37  and  N2_38 
REMARK   16  A    between atoms: N2_38  and  O11_40 
REMARK   17  A    between atoms: C22_42  and  O12_43 
ROOT
HETATM    1  C9  UNL     1      34.045   3.676  38.675  1.00  0.00     0.070 C 
HETATM    2  C10 UNL     1      35.412   3.206  38.560  1.00  0.00     0.200 C 
HETATM    3  O5  UNL     1      35.990   3.332  37.455  1.00  0.00    -0.286 OA
HETATM    4  C11 UNL     1      36.035   2.606  39.767  1.00  0.00     0.059 A 
HETATM    5  C12 UNL     1      37.253   1.972  39.492  1.00  0.00     0.083 A 
HETATM    6  C13 UNL     1      37.839   1.201  40.477  1.00  0.00     0.075 A 
HETATM    7  C14 UNL     1      37.258   1.064  41.666  1.00  0.00     0.081 A 
HETATM    8  C15 UNL     1      36.003   1.716  41.972  1.00  0.00     0.031 A 
HETATM    9  C19 UNL     1      35.382   2.495  41.026  1.00  0.00     0.020 A 
HETATM   10  C20 UNL     1      34.284   3.378  41.195  1.00  0.00     0.170 C 
HETATM   11  C22 UNL     1      33.474   3.470  39.969  1.00  0.00     0.104 C 
ENDROOT
BRANCH   1  12
HETATM   12  C8  UNL     1      33.365   4.247  37.671  1.00  0.00     0.164 C 
BRANCH  12  13
HETATM   13  O4  UNL     1      32.774   5.474  37.714  1.00  0.00    -0.284 OA
BRANCH  13  14
HETATM   14  C7  UNL     1      33.562   6.594  37.917  1.00  0.00     0.335 C 
HETATM   15  O3  UNL     1      34.532   6.835  37.125  1.00  0.00    -0.256 OA
BRANCH  14  16
HETATM   16  C6  UNL     1      33.275   7.478  39.026  1.00  0.00     0.240 C 
HETATM   17  O2  UNL     1      33.391   7.044  40.194  1.00  0.00    -0.285 OA
BRANCH  16  18
HETATM   18  C3  UNL     1      32.849   8.886  38.751  1.00  0.00     0.180 C 
BRANCH  18  19
HETATM   19  C2  UNL     1      31.373   8.973  38.601  1.00  0.00    -0.005 C 
HETATM   20  C1  UNL     1      30.766   9.829  37.545  1.00  0.00     0.064 C 
HETATM   21  N1  UNL     1      30.560   8.322  39.367  1.00  0.00    -0.405 N 
ATOM     22  H12 UNL     1      29.547   8.382  39.264  1.00  0.00     0.155 HD
ATOM     23  H11 UNL     1      30.976   7.736  40.091  1.00  0.00     0.155 HD
ENDBRANCH  18  19
BRANCH  18  24
HETATM   24  C4  UNL     1      33.354   9.808  39.780  1.00  0.00     0.140 C 
HETATM   25  C5  UNL     1      34.489  10.727  39.599  1.00  0.00     0.092 C 
HETATM   26  O1  UNL     1      32.793   9.824  40.886  1.00  0.00    -0.297 OA
ENDBRANCH  18  24
ENDBRANCH  16  18
ENDBRANCH  14  16
ENDBRANCH  13  14
ENDBRANCH  12  13
ENDBRANCH   1  12
BRANCH  11  27
HETATM   27  O12 UNL     1      32.171   3.362  40.015  1.00  0.00    -0.360 OA
ATOM     28  H12 UNL     1      31.708   4.060  40.463  1.00  0.00     0.217 HD
ENDBRANCH  11  27
BRANCH  10  29
HETATM   29  O10 UNL     1      35.112   4.643  41.155  1.00  0.00    -0.373 OA
ATOM     30  H10 UNL     1      34.376   5.227  41.009  1.00  0.00     0.212 HD
ENDBRANCH  10  29
BRANCH  10  31
HETATM   31  C21 UNL     1      33.363   3.794  42.200  1.00  0.00     0.136 C 
BRANCH  31  32
HETATM   32  N2  UNL     1      32.475   2.835  42.810  1.00  0.00    -0.281 N 
ATOM     33  H2  UNL     1      32.838   1.951  43.166  1.00  0.00     0.193 HD
BRANCH  32  34
HETATM   34  O11 UNL     1      31.207   3.109  42.901  1.00  0.00    -0.290 OA
ATOM     35  H11 UNL     1      30.571   2.483  42.578  1.00  0.00     0.244 HD
ENDBRANCH  32  34
ENDBRANCH  31  32
ENDBRANCH  10  31
BRANCH   5  36
HETATM   36  O6  UNL     1      37.924   2.053  38.316  1.00  0.00    -0.360 OA
ATOM     37  H6  UNL     1      38.353   2.834  37.986  1.00  0.00     0.217 HD
ENDBRANCH   5  36
BRANCH   8  38
HETATM   38  C16 UNL     1      35.587   1.465  43.310  1.00  0.00     0.160 C 
BRANCH  38  39
HETATM   39  O8  UNL     1      36.068   1.838  44.482  1.00  0.00    -0.290 OA
BRANCH  39  40
HETATM   40  C17 UNL     1      36.007   1.019  45.598  1.00  0.00     0.259 C 
HETATM   41  C18 UNL     1      35.605  -0.405  45.522  1.00  0.00     0.126 C 
HETATM   42  O9  UNL     1      36.307   1.520  46.697  1.00  0.00    -0.265 OA
ENDBRANCH  39  40
ENDBRANCH  38  39
ENDBRANCH   8  38
BRANCH   7  43
HETATM   43  O7  UNL     1      37.793   0.294  42.705  1.00  0.00    -0.360 OA
ATOM     44  H7  UNL     1      37.375   0.191  43.552  1.00  0.00     0.217 HD
ENDBRANCH   7  43
TORSDOF 17
ENDMDL
