MODEL 1
REMARK VINA RESULT: -10.164450130      0.000      0.000
REMARK  8 active torsions:
REMARK  status: ('A' for Active; 'I' for Inactive)
REMARK    1  A    between atoms: C2_4  and  C3_5 
REMARK    2  A    between atoms: C3_5  and  N2_6 
REMARK    3  A    between atoms: C5_11  and  S1_12 
REMARK    4  A    between atoms: S1_12  and  C6_13 
REMARK    5  A    between atoms: C6_13  and  C7_14 
REMARK    6  A    between atoms: C9_17  and  C10_18 
REMARK    7  A    between atoms: C10_18  and  O2_20 
REMARK    8  A    between atoms: C17_36  and  C18_37 
ROOT
HETATM    1  C7  UNL     1      35.439   2.412  43.037  1.00  0.00     0.031 C 
HETATM    2  C8  UNL     1      34.105   2.861  43.088  1.00  0.00     0.090 C 
HETATM    3  N4  UNL     1      33.828   4.032  42.379  1.00  0.00    -0.099 NA
HETATM    4  C9  UNL     1      33.037   2.292  43.740  1.00  0.00     0.135 C 
HETATM    5  N5  UNL     1      33.014   1.004  44.202  1.00  0.00    -0.334 N 
ATOM      6  H5  UNL     1      32.162   0.464  44.051  1.00  0.00     0.168 HD
HETATM    7  C12 UNL     1      34.050   0.386  44.852  1.00  0.00     0.153 A 
HETATM    8  N6  UNL     1      33.933  -0.630  45.719  1.00  0.00    -0.174 N 
ATOM      9  H6  UNL     1      33.055  -1.073  45.991  1.00  0.00     0.186 HD
HETATM   10  C13 UNL     1      35.145  -0.973  46.174  1.00  0.00     0.680 A 
HETATM   11  N7  UNL     1      35.432  -1.902  47.016  1.00  0.00    -0.234 N 
ATOM     12  H71 UNL     1      36.354  -2.164  47.362  1.00  0.00     0.174 HD
ATOM     13  H72 UNL     1      34.723  -2.498  47.443  1.00  0.00     0.174 HD
HETATM   14  N8  UNL     1      36.094  -0.175  45.602  1.00  0.00    -0.180 N 
HETATM   15  C14 UNL     1      37.520  -0.212  45.841  1.00  0.00     0.176 C 
HETATM   16  C15 UNL     1      35.422   0.659  44.790  1.00  0.00     0.146 A 
HETATM   17  C16 UNL     1      36.036   1.649  44.014  1.00  0.00     0.212 C 
HETATM   18  O3  UNL     1      37.247   1.873  44.222  1.00  0.00    -0.285 OA
ENDROOT
BRANCH   1  19
HETATM   19  C6  UNL     1      36.254   2.872  41.908  1.00  0.00     0.125 C 
BRANCH  19  20
HETATM   20  S1  UNL     1      35.497   2.513  40.346  1.00  0.00    -0.106 SA
BRANCH  20  21
HETATM   21  C5  UNL     1      35.335   3.852  39.239  1.00  0.00     0.106 A 
HETATM   22  N3  UNL     1      36.155   4.890  39.171  1.00  0.00    -0.185 N 
HETATM   23  C4  UNL     1      35.985   5.927  38.284  1.00  0.00     0.680 A 
ATOM     24  H3  UNL     1      36.951   4.922  39.808  1.00  0.00     0.185 HD
HETATM   25  N2  UNL     1      36.830   6.892  38.291  1.00  0.00    -0.221 N 
HETATM   26  N10 UNL     1      34.944   5.908  37.434  1.00  0.00    -0.178 N 
ATOM     27  H2  UNL     1      37.610   6.879  38.947  1.00  0.00     0.178 HD
HETATM   28  C19 UNL     1      34.073   4.881  37.453  1.00  0.00     0.151 A 
ATOM     29  H10 UNL     1      34.814   6.674  36.774  1.00  0.00     0.185 HD
HETATM   30  C17 UNL     1      34.263   3.864  38.345  1.00  0.00     0.116 A 
HETATM   31  N9  UNL     1      32.976   4.869  36.553  1.00  0.00    -0.081 NA
BRANCH  25  32
HETATM   32  C3  UNL     1      36.681   7.991  37.374  1.00  0.00     0.182 C 
BRANCH  32  33
HETATM   33  C2  UNL     1      35.752   8.994  37.972  1.00  0.00     0.075 C 
HETATM   34  N1  UNL     1      34.810   9.483  37.272  1.00  0.00    -0.405 N 
HETATM   35  C1  UNL     1      34.633   9.077  35.910  1.00  0.00     0.145 C 
ATOM     36  H1  UNL     1      34.176  10.168  37.683  1.00  0.00     0.158 HD
ENDBRANCH  32  33
ENDBRANCH  25  32
BRANCH  30  37
HETATM   37  C18 UNL     1      33.338   2.768  38.379  1.00  0.00     0.215 C 
HETATM   38  O4  UNL     1      33.521   1.770  37.652  1.00  0.00    -0.644 OA
HETATM   39  O5  UNL     1      32.241   2.800  39.203  1.00  0.00    -0.644 OA
ENDBRANCH  30  37
ENDBRANCH  20  21
ENDBRANCH  19  20
ENDBRANCH   1  19
BRANCH   4  40
HETATM   40  C10 UNL     1      31.843   3.109  43.958  1.00  0.00     0.311 C 
HETATM   41  O1  UNL     1      30.964   3.191  43.082  1.00  0.00    -0.258 OA
BRANCH  40  42
HETATM   42  O2  UNL     1      31.655   3.811  45.140  1.00  0.00    -0.321 OA
HETATM   43  C11 UNL     1      30.828   4.942  45.193  1.00  0.00     0.213 C 
ENDBRANCH  40  42
ENDBRANCH   4  40
TORSDOF 8
ENDMDL
MODEL 2
REMARK VINA RESULT: -9.904120584      1.259      1.449
REMARK  8 active torsions:
REMARK  status: ('A' for Active; 'I' for Inactive)
REMARK    1  A    between atoms: C2_4  and  C3_5 
REMARK    2  A    between atoms: C3_5  and  N2_6 
REMARK    3  A    between atoms: C5_11  and  S1_12 
REMARK    4  A    between atoms: S1_12  and  C6_13 
REMARK    5  A    between atoms: C6_13  and  C7_14 
REMARK    6  A    between atoms: C9_17  and  C10_18 
REMARK    7  A    between atoms: C10_18  and  O2_20 
REMARK    8  A    between atoms: C17_36  and  C18_37 
ROOT
HETATM    1  C7  UNL     1      35.429   2.428  43.067  1.00  0.00     0.031 C 
HETATM    2  C8  UNL     1      34.092   2.871  43.108  1.00  0.00     0.090 C 
HETATM    3  N4  UNL     1      33.818   4.048  42.408  1.00  0.00    -0.099 NA
HETATM    4  C9  UNL     1      33.019   2.291  43.743  1.00  0.00     0.135 C 
HETATM    5  N5  UNL     1      32.997   0.999  44.191  1.00  0.00    -0.334 N 
ATOM      6  H5  UNL     1      32.149   0.456  44.025  1.00  0.00     0.168 HD
HETATM    7  C12 UNL     1      34.029   0.379  44.847  1.00  0.00     0.153 A 
HETATM    8  N6  UNL     1      33.906  -0.646  45.702  1.00  0.00    -0.174 N 
ATOM      9  H6  UNL     1      33.027  -1.096  45.960  1.00  0.00     0.186 HD
HETATM   10  C13 UNL     1      35.114  -0.990  46.167  1.00  0.00     0.680 A 
HETATM   11  N7  UNL     1      35.396  -1.926  47.003  1.00  0.00    -0.234 N 
ATOM     12  H71 UNL     1      36.316  -2.187  47.357  1.00  0.00     0.174 HD
ATOM     13  H72 UNL     1      34.685  -2.529  47.417  1.00  0.00     0.174 HD
HETATM   14  N8  UNL     1      36.066  -0.182  45.614  1.00  0.00    -0.180 N 
HETATM   15  C14 UNL     1      37.490  -0.215  45.868  1.00  0.00     0.176 C 
HETATM   16  C15 UNL     1      35.400   0.657  44.803  1.00  0.00     0.146 A 
HETATM   17  C16 UNL     1      36.018   1.657  44.043  1.00  0.00     0.212 C 
HETATM   18  O3  UNL     1      37.225   1.885  44.267  1.00  0.00    -0.285 OA
ENDROOT
BRANCH   1  19
HETATM   19  C6  UNL     1      36.254   2.902  41.952  1.00  0.00     0.125 C 
BRANCH  19  20
HETATM   20  S1  UNL     1      35.472   2.643  40.383  1.00  0.00    -0.106 SA
BRANCH  20  21
HETATM   21  C5  UNL     1      34.915   4.072  39.551  1.00  0.00     0.106 A 
HETATM   22  N3  UNL     1      35.052   5.314  39.990  1.00  0.00    -0.185 N 
HETATM   23  C4  UNL     1      34.593   6.411  39.302  1.00  0.00     0.680 A 
ATOM     24  H3  UNL     1      35.522   5.463  40.883  1.00  0.00     0.185 HD
HETATM   25  N2  UNL     1      34.771   7.578  39.806  1.00  0.00    -0.221 N 
HETATM   26  N10 UNL     1      33.971   6.242  38.123  1.00  0.00    -0.178 N 
ATOM     27  H2  UNL     1      35.245   7.676  40.703  1.00  0.00     0.178 HD
HETATM   28  C19 UNL     1      33.798   5.004  37.620  1.00  0.00     0.151 A 
ATOM     29  H10 UNL     1      33.628   7.052  37.607  1.00  0.00     0.185 HD
HETATM   30  C17 UNL     1      34.263   3.929  38.324  1.00  0.00     0.116 A 
HETATM   31  N9  UNL     1      33.140   4.832  36.375  1.00  0.00    -0.081 NA
BRANCH  25  32
HETATM   32  C3  UNL     1      34.302   8.747  39.109  1.00  0.00     0.182 C 
BRANCH  32  33
HETATM   33  C2  UNL     1      33.217   9.383  39.912  1.00  0.00     0.075 C 
HETATM   34  N1  UNL     1      33.321  10.601  40.266  1.00  0.00    -0.405 N 
HETATM   35  C1  UNL     1      34.474  11.366  39.899  1.00  0.00     0.145 C 
ATOM     36  H1  UNL     1      32.578  11.034  40.815  1.00  0.00     0.158 HD
ENDBRANCH  32  33
ENDBRANCH  25  32
BRANCH  30  37
HETATM   37  C18 UNL     1      34.079   2.606  37.803  1.00  0.00     0.215 C 
HETATM   38  O4  UNL     1      34.944   2.099  37.059  1.00  0.00    -0.644 OA
HETATM   39  O5  UNL     1      32.955   1.880  38.108  1.00  0.00    -0.644 OA
ENDBRANCH  30  37
ENDBRANCH  20  21
ENDBRANCH  19  20
ENDBRANCH   1  19
BRANCH   4  40
HETATM   40  C10 UNL     1      31.820   3.101  43.956  1.00  0.00     0.311 C 
HETATM   41  O1  UNL     1      30.953   3.193  43.069  1.00  0.00    -0.258 OA
BRANCH  40  42
HETATM   42  O2  UNL     1      31.612   3.785  45.144  1.00  0.00    -0.321 OA
HETATM   43  C11 UNL     1      30.838   4.953  45.189  1.00  0.00     0.213 C 
ENDBRANCH  40  42
ENDBRANCH   4  40
TORSDOF 8
ENDMDL
MODEL 3
REMARK VINA RESULT: -9.821833971      3.138      7.673
REMARK  8 active torsions:
REMARK  status: ('A' for Active; 'I' for Inactive)
REMARK    1  A    between atoms: C2_4  and  C3_5 
REMARK    2  A    between atoms: C3_5  and  N2_6 
REMARK    3  A    between atoms: C5_11  and  S1_12 
REMARK    4  A    between atoms: S1_12  and  C6_13 
REMARK    5  A    between atoms: C6_13  and  C7_14 
REMARK    6  A    between atoms: C9_17  and  C10_18 
REMARK    7  A    between atoms: C10_18  and  O2_20 
REMARK    8  A    between atoms: C17_36  and  C18_37 
ROOT
HETATM    1  C7  UNL     1      34.150   3.787  38.211  1.00  0.00     0.031 C 
HETATM    2  C8  UNL     1      33.940   3.311  39.520  1.00  0.00     0.090 C 
HETATM    3  N4  UNL     1      33.718   1.938  39.642  1.00  0.00    -0.099 NA
HETATM    4  C9  UNL     1      33.932   4.023  40.696  1.00  0.00     0.135 C 
HETATM    5  N5  UNL     1      34.444   5.285  40.836  1.00  0.00    -0.334 N 
ATOM      6  H5  UNL     1      34.994   5.481  41.672  1.00  0.00     0.168 HD
HETATM    7  C12 UNL     1      34.272   6.304  39.936  1.00  0.00     0.153 A 
HETATM    8  N6  UNL     1      34.311   7.613  40.223  1.00  0.00    -0.174 N 
ATOM      9  H6  UNL     1      34.484   8.009  41.147  1.00  0.00     0.186 HD
HETATM   10  C13 UNL     1      34.086   8.323  39.109  1.00  0.00     0.680 A 
HETATM   11  N7  UNL     1      34.048   9.603  38.990  1.00  0.00    -0.234 N 
ATOM     12  H71 UNL     1      33.877  10.143  38.142  1.00  0.00     0.174 HD
ATOM     13  H72 UNL     1      34.191  10.236  39.778  1.00  0.00     0.174 HD
HETATM   14  N8  UNL     1      33.893   7.476  38.055  1.00  0.00    -0.180 N 
HETATM   15  C14 UNL     1      33.606   7.844  36.686  1.00  0.00     0.176 C 
HETATM   16  C15 UNL     1      34.009   6.237  38.562  1.00  0.00     0.146 A 
HETATM   17  C16 UNL     1      33.872   5.071  37.801  1.00  0.00     0.212 C 
HETATM   18  O3  UNL     1      33.455   5.195  36.630  1.00  0.00    -0.285 OA
ENDROOT
BRANCH   1  19
HETATM   19  C6  UNL     1      34.608   2.814  37.214  1.00  0.00     0.125 C 
BRANCH  19  20
HETATM   20  S1  UNL     1      36.376   2.717  37.137  1.00  0.00    -0.106 SA
BRANCH  20  21
HETATM   21  C5  UNL     1      37.172   1.981  38.505  1.00  0.00     0.106 A 
HETATM   22  N3  UNL     1      36.711   1.980  39.746  1.00  0.00    -0.185 N 
HETATM   23  C4  UNL     1      37.374   1.390  40.795  1.00  0.00     0.680 A 
ATOM     24  H3  UNL     1      35.819   2.439  39.933  1.00  0.00     0.185 HD
HETATM   25  N2  UNL     1      36.851   1.440  41.966  1.00  0.00    -0.221 N 
HETATM   26  N10 UNL     1      38.550   0.778  40.576  1.00  0.00    -0.178 N 
ATOM     27  H2  UNL     1      35.958   1.912  42.103  1.00  0.00     0.178 HD
HETATM   28  C19 UNL     1      39.075   0.744  39.335  1.00  0.00     0.151 A 
ATOM     29  H10 UNL     1      39.047   0.338  41.350  1.00  0.00     0.185 HD
HETATM   30  C17 UNL     1      38.396   1.339  38.309  1.00  0.00     0.116 A 
HETATM   31  N9  UNL     1      40.317   0.096  39.110  1.00  0.00    -0.081 NA
BRANCH  25  32
HETATM   32  C3  UNL     1      37.521   0.831  43.085  1.00  0.00     0.182 C 
BRANCH  32  33
HETATM   33  C2  UNL     1      37.632   1.834  44.184  1.00  0.00     0.075 C 
HETATM   34  N1  UNL     1      37.107   1.594  45.317  1.00  0.00    -0.405 N 
HETATM   35  C1  UNL     1      36.408   0.366  45.547  1.00  0.00     0.145 C 
ATOM     36  H1  UNL     1      37.184   2.282  46.067  1.00  0.00     0.158 HD
ENDBRANCH  32  33
ENDBRANCH  25  32
BRANCH  30  37
HETATM   37  C18 UNL     1      38.947   1.315  36.986  1.00  0.00     0.215 C 
HETATM   38  O4  UNL     1      38.618   0.416  36.185  1.00  0.00    -0.644 OA
HETATM   39  O5  UNL     1      39.843   2.273  36.580  1.00  0.00    -0.644 OA
ENDBRANCH  30  37
ENDBRANCH  20  21
ENDBRANCH  19  20
ENDBRANCH   1  19
BRANCH   4  40
HETATM   40  C10 UNL     1      33.342   3.399  41.880  1.00  0.00     0.311 C 
HETATM   41  O1  UNL     1      32.109   3.385  42.040  1.00  0.00    -0.258 OA
BRANCH  40  42
HETATM   42  O2  UNL     1      34.132   2.807  42.855  1.00  0.00    -0.321 OA
HETATM   43  C11 UNL     1      33.572   2.263  44.019  1.00  0.00     0.213 C 
ENDBRANCH  40  42
ENDBRANCH   4  40
TORSDOF 8
ENDMDL
MODEL 4
REMARK VINA RESULT: -9.691769201      4.749      7.089
REMARK  8 active torsions:
REMARK  status: ('A' for Active; 'I' for Inactive)
REMARK    1  A    between atoms: C2_4  and  C3_5 
REMARK    2  A    between atoms: C3_5  and  N2_6 
REMARK    3  A    between atoms: C5_11  and  S1_12 
REMARK    4  A    between atoms: S1_12  and  C6_13 
REMARK    5  A    between atoms: C6_13  and  C7_14 
REMARK    6  A    between atoms: C9_17  and  C10_18 
REMARK    7  A    between atoms: C10_18  and  O2_20 
REMARK    8  A    between atoms: C17_36  and  C18_37 
ROOT
HETATM    1  C7  UNL     1      36.437  -0.499  48.381  1.00  0.00     0.031 C 
HETATM    2  C8  UNL     1      35.896   0.260  49.437  1.00  0.00     0.090 C 
HETATM    3  N4  UNL     1      36.113   1.637  49.371  1.00  0.00    -0.099 NA
HETATM    4  C9  UNL     1      35.175  -0.178  50.522  1.00  0.00     0.135 C 
HETATM    5  N5  UNL     1      34.580  -1.408  50.605  1.00  0.00    -0.334 N 
ATOM      6  H5  UNL     1      33.638  -1.451  50.992  1.00  0.00     0.168 HD
HETATM    7  C12 UNL     1      35.157  -2.586  50.208  1.00  0.00     0.153 A 
HETATM    8  N6  UNL     1      34.861  -3.802  50.688  1.00  0.00    -0.174 N 
ATOM      9  H6  UNL     1      34.160  -3.997  51.404  1.00  0.00     0.186 HD
HETATM   10  C13 UNL     1      35.626  -4.721  50.086  1.00  0.00     0.680 A 
HETATM   11  N7  UNL     1      35.627  -5.992  50.284  1.00  0.00    -0.234 N 
ATOM     12  H71 UNL     1      36.210  -6.692  49.826  1.00  0.00     0.174 HD
ATOM     13  H72 UNL     1      35.011  -6.447  50.958  1.00  0.00     0.174 HD
HETATM   14  N8  UNL     1      36.452  -4.113  49.184  1.00  0.00    -0.180 N 
HETATM   15  C14 UNL     1      37.441  -4.750  48.343  1.00  0.00     0.176 C 
HETATM   16  C15 UNL     1      36.163  -2.803  49.258  1.00  0.00     0.146 A 
HETATM   17  C16 UNL     1      36.799  -1.823  48.487  1.00  0.00     0.212 C 
HETATM   18  O3  UNL     1      37.800  -2.172  47.826  1.00  0.00    -0.285 OA
ENDROOT
BRANCH   1  19
HETATM   19  C6  UNL     1      36.707   0.205  47.123  1.00  0.00     0.125 C 
BRANCH  19  20
HETATM   20  S1  UNL     1      35.534  -0.205  45.861  1.00  0.00    -0.106 SA
BRANCH  20  21
HETATM   21  C5  UNL     1      35.926   0.313  44.241  1.00  0.00     0.106 A 
HETATM   22  N3  UNL     1      37.081   0.098  43.630  1.00  0.00    -0.185 N 
HETATM   23  C4  UNL     1      37.348   0.529  42.352  1.00  0.00     0.680 A 
ATOM     24  H3  UNL     1      37.807  -0.412  44.132  1.00  0.00     0.185 HD
HETATM   25  N2  UNL     1      38.497   0.276  41.841  1.00  0.00    -0.221 N 
HETATM   26  N10 UNL     1      36.407   1.203  41.670  1.00  0.00    -0.178 N 
ATOM     27  H2  UNL     1      39.192  -0.237  42.383  1.00  0.00     0.178 HD
HETATM   28  C19 UNL     1      35.210   1.455  42.235  1.00  0.00     0.151 A 
ATOM     29  H10 UNL     1      36.599   1.525  40.722  1.00  0.00     0.185 HD
HETATM   30  C17 UNL     1      34.970   1.017  43.507  1.00  0.00     0.116 A 
HETATM   31  N9  UNL     1      34.221   2.168  41.508  1.00  0.00    -0.081 NA
BRANCH  25  32
HETATM   32  C3  UNL     1      38.807   0.713  40.505  1.00  0.00     0.182 C 
BRANCH  32  33
HETATM   33  C2  UNL     1      40.058   0.035  40.055  1.00  0.00     0.075 C 
HETATM   34  N1  UNL     1      40.394   0.073  38.829  1.00  0.00    -0.405 N 
HETATM   35  C1  UNL     1      39.579   0.763  37.875  1.00  0.00     0.145 C 
ATOM     36  H1  UNL     1      41.250  -0.391  38.523  1.00  0.00     0.158 HD
ENDBRANCH  32  33
ENDBRANCH  25  32
BRANCH  30  37
HETATM   37  C18 UNL     1      33.702   1.285  44.121  1.00  0.00     0.215 C 
HETATM   38  O4  UNL     1      32.751   0.491  43.969  1.00  0.00    -0.644 OA
HETATM   39  O5  UNL     1      33.514   2.413  44.880  1.00  0.00    -0.644 OA
ENDBRANCH  30  37
ENDBRANCH  20  21
ENDBRANCH  19  20
ENDBRANCH   1  19
BRANCH   4  40
HETATM   40  C10 UNL     1      35.028   0.721  51.666  1.00  0.00     0.311 C 
HETATM   41  O1  UNL     1      35.834   0.679  52.612  1.00  0.00    -0.258 OA
BRANCH  40  42
HETATM   42  O2  UNL     1      33.994   1.644  51.731  1.00  0.00    -0.321 OA
HETATM   43  C11 UNL     1      32.694   1.260  52.090  1.00  0.00     0.213 C 
ENDBRANCH  40  42
ENDBRANCH   4  40
TORSDOF 8
ENDMDL
MODEL 5
REMARK VINA RESULT: -9.689045998      2.153      2.232
REMARK  8 active torsions:
REMARK  status: ('A' for Active; 'I' for Inactive)
REMARK    1  A    between atoms: C2_4  and  C3_5 
REMARK    2  A    between atoms: C3_5  and  N2_6 
REMARK    3  A    between atoms: C5_11  and  S1_12 
REMARK    4  A    between atoms: S1_12  and  C6_13 
REMARK    5  A    between atoms: C6_13  and  C7_14 
REMARK    6  A    between atoms: C9_17  and  C10_18 
REMARK    7  A    between atoms: C10_18  and  O2_20 
REMARK    8  A    between atoms: C17_36  and  C18_37 
ROOT
HETATM    1  C7  UNL     1      35.034   3.112  42.463  1.00  0.00     0.031 C 
HETATM    2  C8  UNL     1      33.685   3.368  42.781  1.00  0.00     0.090 C 
HETATM    3  N4  UNL     1      33.090   4.432  42.101  1.00  0.00    -0.099 NA
HETATM    4  C9  UNL     1      32.876   2.700  43.670  1.00  0.00     0.135 C 
HETATM    5  N5  UNL     1      33.150   1.460  44.178  1.00  0.00    -0.334 N 
ATOM      6  H5  UNL     1      32.380   0.793  44.235  1.00  0.00     0.168 HD
HETATM    7  C12 UNL     1      34.381   1.046  44.615  1.00  0.00     0.153 A 
HETATM    8  N6  UNL     1      34.605   0.090  45.528  1.00  0.00    -0.174 N 
ATOM      9  H6  UNL     1      33.881  -0.454  46.000  1.00  0.00     0.186 HD
HETATM   10  C13 UNL     1      35.923  -0.042  45.726  1.00  0.00     0.680 A 
HETATM   11  N7  UNL     1      36.518  -0.857  46.524  1.00  0.00    -0.234 N 
ATOM     12  H71 UNL     1      37.521  -0.957  46.675  1.00  0.00     0.174 HD
ATOM     13  H72 UNL     1      36.013  -1.516  47.118  1.00  0.00     0.174 HD
HETATM   14  N8  UNL     1      36.597   0.840  44.932  1.00  0.00    -0.180 N 
HETATM   15  C14 UNL     1      38.030   1.026  44.860  1.00  0.00     0.176 C 
HETATM   16  C15 UNL     1      35.652   1.507  44.249  1.00  0.00     0.146 A 
HETATM   17  C16 UNL     1      35.931   2.516  43.320  1.00  0.00     0.212 C 
HETATM   18  O3  UNL     1      37.108   2.926  43.254  1.00  0.00    -0.285 OA
ENDROOT
BRANCH   1  19
HETATM   19  C6  UNL     1      35.517   3.601  41.167  1.00  0.00     0.125 C 
BRANCH  19  20
HETATM   20  S1  UNL     1      35.622   2.307  39.962  1.00  0.00    -0.106 SA
BRANCH  20  21
HETATM   21  C5  UNL     1      35.520   2.796  38.290  1.00  0.00     0.106 A 
HETATM   22  N3  UNL     1      36.548   3.152  37.534  1.00  0.00    -0.185 N 
HETATM   23  C4  UNL     1      36.421   3.535  36.221  1.00  0.00     0.680 A 
ATOM     24  H3  UNL     1      37.480   3.141  37.948  1.00  0.00     0.185 HD
HETATM   25  N2  UNL     1      37.474   3.865  35.566  1.00  0.00    -0.221 N 
HETATM   26  N10 UNL     1      35.203   3.558  35.652  1.00  0.00    -0.178 N 
ATOM     27  H2  UNL     1      38.385   3.839  36.024  1.00  0.00     0.178 HD
HETATM   28  C19 UNL     1      34.116   3.207  36.366  1.00  0.00     0.151 A 
ATOM     29  H10 UNL     1      35.102   3.841  34.678  1.00  0.00     0.185 HD
HETATM   30  C17 UNL     1      34.269   2.831  37.671  1.00  0.00     0.116 A 
HETATM   31  N9  UNL     1      32.833   3.234  35.760  1.00  0.00    -0.081 NA
BRANCH  25  32
HETATM   32  C3  UNL     1      37.373   4.270  34.189  1.00  0.00     0.182 C 
BRANCH  32  33
HETATM   33  C2  UNL     1      37.701   5.723  34.089  1.00  0.00     0.075 C 
HETATM   34  N1  UNL     1      36.879   6.522  33.537  1.00  0.00    -0.405 N 
HETATM   35  C1  UNL     1      35.640   6.037  33.010  1.00  0.00     0.145 C 
ATOM     36  H1  UNL     1      37.105   7.514  33.471  1.00  0.00     0.158 HD
ENDBRANCH  32  33
ENDBRANCH  25  32
BRANCH  30  37
HETATM   37  C18 UNL     1      33.118   2.463  38.443  1.00  0.00     0.215 C 
HETATM   38  O4  UNL     1      32.783   1.264  38.536  1.00  0.00    -0.644 OA
HETATM   39  O5  UNL     1      32.369   3.416  39.086  1.00  0.00    -0.644 OA
ENDBRANCH  30  37
ENDBRANCH  20  21
ENDBRANCH  19  20
ENDBRANCH   1  19
BRANCH   4  40
HETATM   40  C10 UNL     1      31.641   3.351  44.105  1.00  0.00     0.311 C 
HETATM   41  O1  UNL     1      30.641   3.370  43.366  1.00  0.00    -0.258 OA
BRANCH  40  42
HETATM   42  O2  UNL     1      31.546   3.962  45.347  1.00  0.00    -0.321 OA
HETATM   43  C11 UNL     1      30.684   5.047  45.563  1.00  0.00     0.213 C 
ENDBRANCH  40  42
ENDBRANCH   4  40
TORSDOF 8
ENDMDL
