MODEL 1
REMARK VINA RESULT: -9.803749750      0.000      0.000
REMARK  11 active torsions:
REMARK  status: ('A' for Active; 'I' for Inactive)
REMARK    1  A    between atoms: C2_2  and  O1_3 
REMARK    2  A    between atoms: O1_3  and  C3_4 
REMARK    3  A    between atoms: C3_4  and  C4_6 
REMARK    4  A    between atoms: C6_8  and  C7_9 
REMARK    5  A    between atoms: C7_9  and  O3_10 
REMARK    6  A    between atoms: C7_9  and  C8_12 
REMARK    7  A    between atoms: C8_12  and  C10_14 
REMARK    8  A    between atoms: C12_23  and  N5_24 
REMARK    9  A    between atoms: N7_30  and  N8_32 
REMARK   10  A    between atoms: N11_37  and  N12_38 
REMARK       I    between atoms: N12_38  and  C15_40 
REMARK   11  A    between atoms: C19_45  and  O5_46 
ROOT
HETATM    1  C10 UNL     1      33.832   3.736  39.598  1.00  0.00     0.144 A 
HETATM    2  N1  UNL     1      32.943   4.442  40.197  1.00  0.00    -0.271 N 
ATOM      3  H1  UNL     1      32.451   5.157  39.661  1.00  0.00     0.190 HD
HETATM    4  N2  UNL     1      32.611   4.275  41.570  1.00  0.00    -0.205 N 
ATOM      5  H2  UNL     1      31.894   4.871  41.983  1.00  0.00     0.210 HD
HETATM    6  N3  UNL     1      33.237   3.322  42.365  1.00  0.00     0.109 N 
HETATM    7  C11 UNL     1      34.175   2.562  41.771  1.00  0.00     0.757 A 
HETATM    8  N4  UNL     1      34.833   1.613  42.480  1.00  0.00    -0.018 N 
ATOM      9  H4  UNL     1      35.542   1.043  42.019  1.00  0.00     0.203 HD
HETATM   10  C12 UNL     1      34.565   1.410  43.782  1.00  0.00     0.705 A 
HETATM   11  N6  UNL     1      33.641   2.156  44.372  1.00  0.00    -0.018 N 
ATOM     12  H6  UNL     1      33.432   2.008  45.360  1.00  0.00     0.203 HD
HETATM   13  C13 UNL     1      32.951   3.136  43.670  1.00  0.00     0.749 A 
HETATM   14  N7  UNL     1      32.119   3.769  44.293  1.00  0.00    -0.127 N 
ATOM     15  H7  UNL     1      32.134   3.401  45.244  1.00  0.00     0.205 HD
HETATM   16  N11 UNL     1      34.487   2.757  40.382  1.00  0.00    -0.066 N 
ENDROOT
BRANCH   1  17
HETATM   17  C8  UNL     1      34.212   3.871  38.163  1.00  0.00     0.086 C 
HETATM   18  C9  UNL     1      33.693   2.628  37.429  1.00  0.00     0.021 C 
BRANCH  17  19
HETATM   19  C7  UNL     1      33.643   5.068  37.522  1.00  0.00     0.162 C 
BRANCH  19  20
HETATM   20  C6  UNL     1      34.480   6.263  37.660  1.00  0.00    -0.028 A 
HETATM   21  C5  UNL     1      34.067   7.368  38.346  1.00  0.00     0.030 A 
HETATM   22  C4  UNL     1      34.863   8.494  38.496  1.00  0.00     0.073 A 
HETATM   23  C19 UNL     1      36.103   8.524  37.946  1.00  0.00     0.084 A 
HETATM   24  C18 UNL     1      36.533   7.414  37.248  1.00  0.00     0.038 A 
HETATM   25  C17 UNL     1      35.769   6.290  37.087  1.00  0.00     0.012 A 
BRANCH  22  26
HETATM   26  C3  UNL     1      34.384   9.641  39.251  1.00  0.00     0.296 C 
HETATM   27  O2  UNL     1      34.741   9.822  40.454  1.00  0.00    -0.259 OA
BRANCH  26  28
HETATM   28  O1  UNL     1      33.526  10.585  38.709  1.00  0.00    -0.318 OA
BRANCH  28  29
HETATM   29  C2  UNL     1      32.136  10.582  38.958  1.00  0.00     0.174 C 
HETATM   30  C1  UNL     1      31.438  10.054  37.710  1.00  0.00     0.034 C 
ENDBRANCH  28  29
ENDBRANCH  26  28
ENDBRANCH  22  26
BRANCH  23  31
HETATM   31  O5  UNL     1      36.936   9.654  38.079  1.00  0.00    -0.355 OA
HETATM   32  C20 UNL     1      38.111   9.821  37.324  1.00  0.00     0.210 C 
ENDBRANCH  23  31
ENDBRANCH  19  20
BRANCH  19  33
HETATM   33  O3  UNL     1      32.348   5.417  37.919  1.00  0.00    -0.390 OA
ATOM     34  H3  UNL     1      32.060   4.767  38.550  1.00  0.00     0.210 HD
ENDBRANCH  19  33
ENDBRANCH  17  19
ENDBRANCH   1  17
BRANCH  16  35
HETATM   35  N12 UNL     1      35.477   1.952  39.839  1.00  0.00    -0.248 N 
HETATM   36  C15 UNL     1      36.805   2.441  39.814  1.00  0.00     0.233 C 
HETATM   37  C16 UNL     1      37.876   1.601  39.237  1.00  0.00     0.119 C 
HETATM   38  O4  UNL     1      37.099   3.583  40.274  1.00  0.00    -0.272 OA
ATOM     39  H12 UNL     1      35.254   1.029  39.467  1.00  0.00     0.191 HD
ENDBRANCH  16  35
BRANCH  10  40
HETATM   40  N5  UNL     1      35.233   0.482  44.410  1.00  0.00    -0.234 N 
ATOM     41  H52 UNL     1      36.180   0.207  44.147  1.00  0.00     0.174 HD
ATOM     42  H51 UNL     1      34.784   0.015  45.197  1.00  0.00     0.174 HD
ENDBRANCH  10  40
BRANCH  14  43
HETATM   43  N8  UNL     1      31.227   4.698  44.279  1.00  0.00    -0.262 N 
HETATM   44  C14 UNL     1      30.403   5.065  45.204  1.00  0.00     0.216 C 
HETATM   45  N9  UNL     1      30.449   4.367  46.445  1.00  0.00    -0.065 NA
HETATM   46  N10 UNL     1      29.491   6.116  44.964  1.00  0.00    -0.065 NA
ATOM     47  H8  UNL     1      31.162   5.224  43.407  1.00  0.00     0.190 HD
ENDBRANCH  14  43
TORSDOF 11
ENDMDL
MODEL 2
REMARK VINA RESULT: -9.794417691      1.593      2.143
REMARK  11 active torsions:
REMARK  status: ('A' for Active; 'I' for Inactive)
REMARK    1  A    between atoms: C2_2  and  O1_3 
REMARK    2  A    between atoms: O1_3  and  C3_4 
REMARK    3  A    between atoms: C3_4  and  C4_6 
REMARK    4  A    between atoms: C6_8  and  C7_9 
REMARK    5  A    between atoms: C7_9  and  O3_10 
REMARK    6  A    between atoms: C7_9  and  C8_12 
REMARK    7  A    between atoms: C8_12  and  C10_14 
REMARK    8  A    between atoms: C12_23  and  N5_24 
REMARK    9  A    between atoms: N7_30  and  N8_32 
REMARK   10  A    between atoms: N11_37  and  N12_38 
REMARK       I    between atoms: N12_38  and  C15_40 
REMARK   11  A    between atoms: C19_45  and  O5_46 
ROOT
HETATM    1  C10 UNL     1      34.109   3.379  40.084  1.00  0.00     0.144 A 
HETATM    2  N1  UNL     1      33.201   4.132  40.589  1.00  0.00    -0.271 N 
ATOM      3  H1  UNL     1      32.788   4.855  40.000  1.00  0.00     0.190 HD
HETATM    4  N2  UNL     1      32.742   4.006  41.930  1.00  0.00    -0.205 N 
ATOM      5  H2  UNL     1      32.017   4.638  42.268  1.00  0.00     0.210 HD
HETATM    6  N3  UNL     1      33.256   3.045  42.793  1.00  0.00     0.109 N 
HETATM    7  C11 UNL     1      34.211   2.237  42.297  1.00  0.00     0.757 A 
HETATM    8  N4  UNL     1      34.764   1.276  43.078  1.00  0.00    -0.018 N 
ATOM      9  H4  UNL     1      35.486   0.670  42.691  1.00  0.00     0.203 HD
HETATM   10  C12 UNL     1      34.374   1.110  44.353  1.00  0.00     0.705 A 
HETATM   11  N6  UNL     1      33.432   1.904  44.847  1.00  0.00    -0.018 N 
ATOM     12  H6  UNL     1      33.132   1.784  45.814  1.00  0.00     0.203 HD
HETATM   13  C13 UNL     1      32.849   2.897  44.070  1.00  0.00     0.749 A 
HETATM   14  N7  UNL     1      31.991   3.574  44.606  1.00  0.00    -0.127 N 
ATOM     15  H7  UNL     1      31.907   3.225  45.561  1.00  0.00     0.205 HD
HETATM   16  N11 UNL     1      34.652   2.391  40.938  1.00  0.00    -0.066 N 
ENDROOT
BRANCH   1  17
HETATM   17  C8  UNL     1      34.619   3.471  38.685  1.00  0.00     0.086 C 
HETATM   18  C9  UNL     1      33.404   3.450  37.750  1.00  0.00     0.021 C 
BRANCH  17  19
HETATM   19  C7  UNL     1      35.390   4.697  38.428  1.00  0.00     0.162 C 
BRANCH  19  20
HETATM   20  C6  UNL     1      34.560   5.896  38.289  1.00  0.00    -0.028 A 
HETATM   21  C5  UNL     1      34.403   6.796  39.304  1.00  0.00     0.030 A 
HETATM   22  C4  UNL     1      33.634   7.943  39.172  1.00  0.00     0.073 A 
HETATM   23  C19 UNL     1      33.001   8.202  38.000  1.00  0.00     0.084 A 
HETATM   24  C18 UNL     1      33.149   7.300  36.967  1.00  0.00     0.038 A 
HETATM   25  C17 UNL     1      33.903   6.163  37.069  1.00  0.00     0.012 A 
BRANCH  22  26
HETATM   26  C3  UNL     1      33.511   8.881  40.277  1.00  0.00     0.296 C 
HETATM   27  O2  UNL     1      32.547   8.797  41.096  1.00  0.00    -0.259 OA
BRANCH  26  28
HETATM   28  O1  UNL     1      34.425   9.900  40.494  1.00  0.00    -0.318 OA
BRANCH  28  29
HETATM   29  C2  UNL     1      34.395  11.115  39.773  1.00  0.00     0.174 C 
HETATM   30  C1  UNL     1      33.506  12.090  40.535  1.00  0.00     0.034 C 
ENDBRANCH  28  29
ENDBRANCH  26  28
ENDBRANCH  22  26
BRANCH  23  31
HETATM   31  O5  UNL     1      32.211   9.359  37.835  1.00  0.00    -0.355 OA
HETATM   32  C20 UNL     1      30.806   9.312  37.771  1.00  0.00     0.210 C 
ENDBRANCH  23  31
ENDBRANCH  19  20
BRANCH  19  33
HETATM   33  O3  UNL     1      36.252   4.657  37.327  1.00  0.00    -0.390 OA
ATOM     34  H3  UNL     1      35.792   4.216  36.623  1.00  0.00     0.210 HD
ENDBRANCH  19  33
ENDBRANCH  17  19
ENDBRANCH   1  17
BRANCH  16  35
HETATM   35  N12 UNL     1      35.651   1.537  40.499  1.00  0.00    -0.248 N 
HETATM   36  C15 UNL     1      36.988   2.002  40.511  1.00  0.00     0.233 C 
HETATM   37  C16 UNL     1      38.070   1.109  40.043  1.00  0.00     0.119 C 
HETATM   38  O4  UNL     1      37.281   3.166  40.911  1.00  0.00    -0.272 OA
ATOM     39  H12 UNL     1      35.429   0.596  40.176  1.00  0.00     0.191 HD
ENDBRANCH  16  35
BRANCH  10  40
HETATM   40  N5  UNL     1      34.945   0.170  45.054  1.00  0.00    -0.234 N 
ATOM     41  H52 UNL     1      35.957   0.047  45.095  1.00  0.00     0.174 HD
ATOM     42  H51 UNL     1      34.348  -0.467  45.581  1.00  0.00     0.174 HD
ENDBRANCH  10  40
BRANCH  14  43
HETATM   43  N8  UNL     1      31.143   4.538  44.498  1.00  0.00    -0.262 N 
HETATM   44  C14 UNL     1      30.317   5.012  45.371  1.00  0.00     0.216 C 
HETATM   45  N9  UNL     1      30.305   4.413  46.663  1.00  0.00    -0.065 NA
HETATM   46  N10 UNL     1      29.460   6.080  45.027  1.00  0.00    -0.065 NA
ATOM     47  H8  UNL     1      31.121   4.995  43.586  1.00  0.00     0.190 HD
ENDBRANCH  14  43
TORSDOF 11
ENDMDL
MODEL 3
REMARK VINA RESULT: -9.697696161      1.487      1.634
REMARK  11 active torsions:
REMARK  status: ('A' for Active; 'I' for Inactive)
REMARK    1  A    between atoms: C2_2  and  O1_3 
REMARK    2  A    between atoms: O1_3  and  C3_4 
REMARK    3  A    between atoms: C3_4  and  C4_6 
REMARK    4  A    between atoms: C6_8  and  C7_9 
REMARK    5  A    between atoms: C7_9  and  O3_10 
REMARK    6  A    between atoms: C7_9  and  C8_12 
REMARK    7  A    between atoms: C8_12  and  C10_14 
REMARK    8  A    between atoms: C12_23  and  N5_24 
REMARK    9  A    between atoms: N7_30  and  N8_32 
REMARK   10  A    between atoms: N11_37  and  N12_38 
REMARK       I    between atoms: N12_38  and  C15_40 
REMARK   11  A    between atoms: C19_45  and  O5_46 
ROOT
HETATM    1  C10 UNL     1      34.025   3.464  40.071  1.00  0.00     0.144 A 
HETATM    2  N1  UNL     1      33.130   4.219  40.596  1.00  0.00    -0.271 N 
ATOM      3  H1  UNL     1      32.707   4.945  40.017  1.00  0.00     0.190 HD
HETATM    4  N2  UNL     1      32.700   4.094  41.947  1.00  0.00    -0.205 N 
ATOM      5  H2  UNL     1      31.984   4.728  42.301  1.00  0.00     0.210 HD
HETATM    6  N3  UNL     1      33.229   3.130  42.797  1.00  0.00     0.109 N 
HETATM    7  C11 UNL     1      34.169   2.318  42.281  1.00  0.00     0.757 A 
HETATM    8  N4  UNL     1      34.735   1.355  43.048  1.00  0.00    -0.018 N 
ATOM      9  H4  UNL     1      35.447   0.746  42.645  1.00  0.00     0.203 HD
HETATM   10  C12 UNL     1      34.372   1.189  44.331  1.00  0.00     0.705 A 
HETATM   11  N6  UNL     1      33.445   1.986  44.846  1.00  0.00    -0.018 N 
ATOM     12  H6  UNL     1      33.165   1.866  45.819  1.00  0.00     0.203 HD
HETATM   13  C13 UNL     1      32.848   2.982  44.083  1.00  0.00     0.749 A 
HETATM   14  N7  UNL     1      32.005   3.661  44.638  1.00  0.00    -0.127 N 
ATOM     15  H7  UNL     1      31.940   3.312  45.594  1.00  0.00     0.205 HD
HETATM   16  N11 UNL     1      34.582   2.473  40.912  1.00  0.00    -0.066 N 
ENDROOT
BRANCH   1  17
HETATM   17  C8  UNL     1      34.505   3.556  38.662  1.00  0.00     0.086 C 
HETATM   18  C9  UNL     1      33.304   3.946  37.791  1.00  0.00     0.021 C 
BRANCH  17  19
HETATM   19  C7  UNL     1      35.567   4.556  38.474  1.00  0.00     0.162 C 
BRANCH  19  20
HETATM   20  C6  UNL     1      35.068   5.880  38.094  1.00  0.00    -0.028 A 
HETATM   21  C5  UNL     1      34.601   6.775  39.013  1.00  0.00     0.030 A 
HETATM   22  C4  UNL     1      34.146   8.037  38.660  1.00  0.00     0.073 A 
HETATM   23  C19 UNL     1      34.153   8.420  37.358  1.00  0.00     0.084 A 
HETATM   24  C18 UNL     1      34.621   7.525  36.420  1.00  0.00     0.038 A 
HETATM   25  C17 UNL     1      35.078   6.275  36.740  1.00  0.00     0.012 A 
BRANCH  22  26
HETATM   26  C3  UNL     1      33.673   8.962  39.678  1.00  0.00     0.296 C 
HETATM   27  O2  UNL     1      34.482   9.503  40.491  1.00  0.00    -0.259 OA
BRANCH  26  28
HETATM   28  O1  UNL     1      32.336   9.299  39.816  1.00  0.00    -0.318 OA
BRANCH  28  29
HETATM   29  C2  UNL     1      31.289   8.439  39.415  1.00  0.00     0.174 C 
HETATM   30  C1  UNL     1      30.478   9.157  38.342  1.00  0.00     0.034 C 
ENDBRANCH  28  29
ENDBRANCH  26  28
ENDBRANCH  22  26
BRANCH  23  31
HETATM   31  O5  UNL     1      33.696   9.696  36.968  1.00  0.00    -0.355 OA
HETATM   32  C20 UNL     1      33.015   9.917  35.757  1.00  0.00     0.210 C 
ENDBRANCH  23  31
ENDBRANCH  19  20
BRANCH  19  33
HETATM   33  O3  UNL     1      36.576   4.214  37.568  1.00  0.00    -0.390 OA
ATOM     34  H3  UNL     1      37.340   3.965  38.074  1.00  0.00     0.210 HD
ENDBRANCH  19  33
ENDBRANCH  17  19
ENDBRANCH   1  17
BRANCH  16  35
HETATM   35  N12 UNL     1      35.568   1.615  40.451  1.00  0.00    -0.248 N 
HETATM   36  C15 UNL     1      36.921   2.015  40.576  1.00  0.00     0.233 C 
HETATM   37  C16 UNL     1      37.990   1.117  40.087  1.00  0.00     0.119 C 
HETATM   38  O4  UNL     1      37.238   3.124  41.096  1.00  0.00    -0.272 OA
ATOM     39  H12 UNL     1      35.326   0.718  40.032  1.00  0.00     0.191 HD
ENDBRANCH  16  35
BRANCH  10  40
HETATM   40  N5  UNL     1      34.955   0.246  45.018  1.00  0.00    -0.234 N 
ATOM     41  H52 UNL     1      35.014  -0.720  44.694  1.00  0.00     0.174 HD
ATOM     42  H51 UNL     1      35.366   0.490  45.919  1.00  0.00     0.174 HD
ENDBRANCH  10  40
BRANCH  14  43
HETATM   43  N8  UNL     1      31.158   4.629  44.549  1.00  0.00    -0.262 N 
HETATM   44  C14 UNL     1      30.295   5.051  45.412  1.00  0.00     0.216 C 
HETATM   45  N9  UNL     1      30.232   4.381  46.667  1.00  0.00    -0.065 NA
HETATM   46  N10 UNL     1      29.449   6.136  45.094  1.00  0.00    -0.065 NA
ATOM     47  H8  UNL     1      31.172   5.137  43.664  1.00  0.00     0.190 HD
ENDBRANCH  14  43
TORSDOF 11
ENDMDL
MODEL 4
REMARK VINA RESULT: -9.690200667      2.041      2.774
REMARK  11 active torsions:
REMARK  status: ('A' for Active; 'I' for Inactive)
REMARK    1  A    between atoms: C2_2  and  O1_3 
REMARK    2  A    between atoms: O1_3  and  C3_4 
REMARK    3  A    between atoms: C3_4  and  C4_6 
REMARK    4  A    between atoms: C6_8  and  C7_9 
REMARK    5  A    between atoms: C7_9  and  O3_10 
REMARK    6  A    between atoms: C7_9  and  C8_12 
REMARK    7  A    between atoms: C8_12  and  C10_14 
REMARK    8  A    between atoms: C12_23  and  N5_24 
REMARK    9  A    between atoms: N7_30  and  N8_32 
REMARK   10  A    between atoms: N11_37  and  N12_38 
REMARK       I    between atoms: N12_38  and  C15_40 
REMARK   11  A    between atoms: C19_45  and  O5_46 
ROOT
HETATM    1  C10 UNL     1      34.182   3.421  40.146  1.00  0.00     0.144 A 
HETATM    2  N1  UNL     1      33.284   4.186  40.654  1.00  0.00    -0.271 N 
ATOM      3  H1  UNL     1      32.894   4.928  40.073  1.00  0.00     0.190 HD
HETATM    4  N2  UNL     1      32.808   4.048  41.987  1.00  0.00    -0.205 N 
ATOM      5  H2  UNL     1      32.093   4.690  42.328  1.00  0.00     0.210 HD
HETATM    6  N3  UNL     1      33.290   3.061  42.839  1.00  0.00     0.109 N 
HETATM    7  C11 UNL     1      34.232   2.240  42.341  1.00  0.00     0.757 A 
HETATM    8  N4  UNL     1      34.754   1.254  43.110  1.00  0.00    -0.018 N 
ATOM      9  H4  UNL     1      35.467   0.638  42.722  1.00  0.00     0.203 HD
HETATM   10  C12 UNL     1      34.346   1.076  44.379  1.00  0.00     0.705 A 
HETATM   11  N6  UNL     1      33.417   1.883  44.875  1.00  0.00    -0.018 N 
ATOM     12  H6  UNL     1      33.103   1.753  45.837  1.00  0.00     0.203 HD
HETATM   13  C13 UNL     1      32.865   2.901  44.109  1.00  0.00     0.749 A 
HETATM   14  N7  UNL     1      32.017   3.588  44.647  1.00  0.00    -0.127 N 
ATOM     15  H7  UNL     1      31.914   3.225  45.595  1.00  0.00     0.205 HD
HETATM   16  N11 UNL     1      34.692   2.407  40.989  1.00  0.00    -0.066 N 
ENDROOT
BRANCH   1  17
HETATM   17  C8  UNL     1      34.709   3.525  38.755  1.00  0.00     0.086 C 
HETATM   18  C9  UNL     1      33.626   2.988  37.810  1.00  0.00     0.021 C 
BRANCH  17  19
HETATM   19  C7  UNL     1      35.038   4.903  38.360  1.00  0.00     0.162 C 
BRANCH  19  20
HETATM   20  C6  UNL     1      34.025   5.527  37.503  1.00  0.00    -0.028 A 
HETATM   21  C5  UNL     1      32.964   6.219  38.013  1.00  0.00     0.030 A 
HETATM   22  C4  UNL     1      32.014   6.827  37.205  1.00  0.00     0.073 A 
HETATM   23  C19 UNL     1      32.120   6.744  35.855  1.00  0.00     0.084 A 
HETATM   24  C18 UNL     1      33.186   6.047  35.327  1.00  0.00     0.038 A 
HETATM   25  C17 UNL     1      34.138   5.439  36.099  1.00  0.00     0.012 A 
BRANCH  22  26
HETATM   26  C3  UNL     1      30.910   7.567  37.796  1.00  0.00     0.296 C 
HETATM   27  O2  UNL     1      29.726   7.115  37.750  1.00  0.00    -0.259 OA
BRANCH  26  28
HETATM   28  O1  UNL     1      31.085   8.787  38.430  1.00  0.00    -0.318 OA
BRANCH  28  29
HETATM   29  C2  UNL     1      31.715   9.886  37.804  1.00  0.00     0.174 C 
HETATM   30  C1  UNL     1      30.842  10.321  36.633  1.00  0.00     0.034 C 
ENDBRANCH  28  29
ENDBRANCH  26  28
ENDBRANCH  22  26
BRANCH  23  31
HETATM   31  O5  UNL     1      31.169   7.351  35.008  1.00  0.00    -0.355 OA
HETATM   32  C20 UNL     1      30.610   6.687  33.900  1.00  0.00     0.210 C 
ENDBRANCH  23  31
ENDBRANCH  19  20
BRANCH  19  33
HETATM   33  O3  UNL     1      36.278   5.082  37.738  1.00  0.00    -0.390 OA
ATOM     34  H3  UNL     1      36.117   5.180  36.807  1.00  0.00     0.210 HD
ENDBRANCH  19  33
ENDBRANCH  17  19
ENDBRANCH   1  17
BRANCH  16  35
HETATM   35  N12 UNL     1      35.677   1.537  40.547  1.00  0.00    -0.248 N 
HETATM   36  C15 UNL     1      37.013   2.003  40.497  1.00  0.00     0.233 C 
HETATM   37  C16 UNL     1      38.080   1.093  40.024  1.00  0.00     0.119 C 
HETATM   38  O4  UNL     1      37.318   3.180  40.847  1.00  0.00    -0.272 OA
ATOM     39  H12 UNL     1      35.445   0.586  40.264  1.00  0.00     0.191 HD
ENDBRANCH  16  35
BRANCH  10  40
HETATM   40  N5  UNL     1      34.888   0.111  45.070  1.00  0.00    -0.234 N 
ATOM     41  H52 UNL     1      35.184  -0.771  44.651  1.00  0.00     0.174 HD
ATOM     42  H51 UNL     1      35.018   0.251  46.071  1.00  0.00     0.174 HD
ENDBRANCH  10  40
BRANCH  14  43
HETATM   43  N8  UNL     1      31.192   4.573  44.546  1.00  0.00    -0.262 N 
HETATM   44  C14 UNL     1      30.337   5.024  45.402  1.00  0.00     0.216 C 
HETATM   45  N9  UNL     1      30.256   4.368  46.665  1.00  0.00    -0.065 NA
HETATM   46  N10 UNL     1      29.515   6.123  45.071  1.00  0.00    -0.065 NA
ATOM     47  H8  UNL     1      31.218   5.071  43.656  1.00  0.00     0.190 HD
ENDBRANCH  14  43
TORSDOF 11
ENDMDL
MODEL 5
REMARK VINA RESULT: -9.502627075      5.813     11.063
REMARK  11 active torsions:
REMARK  status: ('A' for Active; 'I' for Inactive)
REMARK    1  A    between atoms: C2_2  and  O1_3 
REMARK    2  A    between atoms: O1_3  and  C3_4 
REMARK    3  A    between atoms: C3_4  and  C4_6 
REMARK    4  A    between atoms: C6_8  and  C7_9 
REMARK    5  A    between atoms: C7_9  and  O3_10 
REMARK    6  A    between atoms: C7_9  and  C8_12 
REMARK    7  A    between atoms: C8_12  and  C10_14 
REMARK    8  A    between atoms: C12_23  and  N5_24 
REMARK    9  A    between atoms: N7_30  and  N8_32 
REMARK   10  A    between atoms: N11_37  and  N12_38 
REMARK       I    between atoms: N12_38  and  C15_40 
REMARK   11  A    between atoms: C19_45  and  O5_46 
ROOT
HETATM    1  C10 UNL     1      35.225   0.497  44.996  1.00  0.00     0.144 A 
HETATM    2  N1  UNL     1      34.340   1.387  45.263  1.00  0.00    -0.271 N 
ATOM      3  H1  UNL     1      33.950   1.415  46.205  1.00  0.00     0.190 HD
HETATM    4  N2  UNL     1      33.876   2.335  44.309  1.00  0.00    -0.205 N 
ATOM      5  H2  UNL     1      33.170   3.015  44.588  1.00  0.00     0.210 HD
HETATM    6  N3  UNL     1      34.359   2.359  43.006  1.00  0.00     0.109 N 
HETATM    7  C11 UNL     1      35.291   1.441  42.689  1.00  0.00     0.757 A 
HETATM    8  N4  UNL     1      35.809   1.398  41.438  1.00  0.00    -0.018 N 
ATOM      9  H4  UNL     1      36.514   0.698  41.210  1.00  0.00     0.203 HD
HETATM   10  C12 UNL     1      35.409   2.266  40.492  1.00  0.00     0.705 A 
HETATM   11  N6  UNL     1      34.491   3.174  40.799  1.00  0.00    -0.018 N 
ATOM     12  H6  UNL     1      34.183   3.835  40.086  1.00  0.00     0.203 HD
HETATM   13  C13 UNL     1      33.943   3.240  42.073  1.00  0.00     0.749 A 
HETATM   14  N7  UNL     1      33.111   4.108  42.264  1.00  0.00    -0.127 N 
ATOM     15  H7  UNL     1      33.011   4.607  41.380  1.00  0.00     0.205 HD
HETATM   16  N11 UNL     1      35.737   0.497  43.677  1.00  0.00    -0.066 N 
ENDROOT
BRANCH   1  17
HETATM   17  C8  UNL     1      35.744  -0.514  45.962  1.00  0.00     0.086 C 
HETATM   18  C9  UNL     1      36.961   0.102  46.665  1.00  0.00     0.021 C 
BRANCH  17  19
HETATM   19  C7  UNL     1      34.758  -0.902  46.983  1.00  0.00     0.162 C 
BRANCH  19  20
HETATM   20  C6  UNL     1      35.272  -1.862  47.963  1.00  0.00    -0.028 A 
HETATM   21  C5  UNL     1      36.113  -2.880  47.614  1.00  0.00     0.030 A 
HETATM   22  C4  UNL     1      36.618  -3.781  48.542  1.00  0.00     0.073 A 
HETATM   23  C19 UNL     1      36.276  -3.667  49.850  1.00  0.00     0.084 A 
HETATM   24  C18 UNL     1      35.426  -2.644  50.215  1.00  0.00     0.038 A 
HETATM   25  C17 UNL     1      34.915  -1.741  49.322  1.00  0.00     0.012 A 
BRANCH  22  26
HETATM   26  C3  UNL     1      37.524  -4.838  48.125  1.00  0.00     0.296 C 
HETATM   27  O2  UNL     1      37.101  -6.020  47.939  1.00  0.00    -0.259 OA
BRANCH  26  28
HETATM   28  O1  UNL     1      38.875  -4.621  47.909  1.00  0.00    -0.318 OA
BRANCH  28  29
HETATM   29  C2  UNL     1      39.651  -3.777  48.735  1.00  0.00     0.174 C 
HETATM   30  C1  UNL     1      39.933  -2.495  47.961  1.00  0.00     0.034 C 
ENDBRANCH  28  29
ENDBRANCH  26  28
ENDBRANCH  22  26
BRANCH  23  31
HETATM   31  O5  UNL     1      36.772  -4.567  50.816  1.00  0.00    -0.355 OA
HETATM   32  C20 UNL     1      37.713  -4.187  51.791  1.00  0.00     0.210 C 
ENDBRANCH  23  31
ENDBRANCH  19  20
BRANCH  19  33
HETATM   33  O3  UNL     1      33.545  -1.405  46.501  1.00  0.00    -0.390 OA
ATOM     34  H3  UNL     1      33.630  -1.495  45.559  1.00  0.00     0.210 HD
ENDBRANCH  19  33
ENDBRANCH  17  19
ENDBRANCH   1  17
BRANCH  16  35
HETATM   35  N12 UNL     1      36.684  -0.433  43.278  1.00  0.00    -0.248 N 
HETATM   36  C15 UNL     1      38.034  -0.019  43.177  1.00  0.00     0.233 C 
HETATM   37  C16 UNL     1      39.061  -0.993  42.749  1.00  0.00     0.119 C 
HETATM   38  O4  UNL     1      38.384   1.168  43.443  1.00  0.00    -0.272 OA
ATOM     39  H12 UNL     1      36.415  -1.392  43.062  1.00  0.00     0.191 HD
ENDBRANCH  16  35
BRANCH  10  40
HETATM   40  N5  UNL     1      35.943   2.173  39.306  1.00  0.00    -0.234 N 
ATOM     41  H52 UNL     1      35.842   1.347  38.716  1.00  0.00     0.174 HD
ATOM     42  H51 UNL     1      36.486   2.964  38.960  1.00  0.00     0.174 HD
ENDBRANCH  10  40
BRANCH  14  43
HETATM   43  N8  UNL     1      32.301   4.674  43.091  1.00  0.00    -0.262 N 
HETATM   44  C14 UNL     1      31.227   4.212  43.640  1.00  0.00     0.216 C 
HETATM   45  N9  UNL     1      30.838   2.881  43.314  1.00  0.00    -0.065 NA
HETATM   46  N10 UNL     1      30.477   5.022  44.520  1.00  0.00    -0.065 NA
ATOM     47  H8  UNL     1      32.545   5.630  43.352  1.00  0.00     0.190 HD
ENDBRANCH  14  43
TORSDOF 11
ENDMDL
