MODEL 1
REMARK VINA RESULT: -5.199296290      0.000      0.000
REMARK  0 active torsions:
REMARK  status: ('A' for Active; 'I' for Inactive)
ROOT
HETATM    1  C1  UNL     1      27.446   6.444   3.657  1.00  0.00     0.015 C 
HETATM    2  C2  UNL     1      26.299   6.574   4.646  1.00  0.00    -0.040 A 
HETATM    3  C3  UNL     1      25.174   5.668   4.229  1.00  0.00     0.010 C 
HETATM    4  C4  UNL     1      26.158   4.593   4.732  1.00  0.00     0.006 C 
HETATM    5  C5  UNL     1      26.265   5.557   5.860  1.00  0.00    -0.006 A 
HETATM    6  C6  UNL     1      26.792   6.870   5.955  1.00  0.00     0.015 A 
ENDROOT
TORSDOF 0
ENDMDL
MODEL 2
REMARK VINA RESULT: -4.679495080      0.841      1.177
REMARK  0 active torsions:
REMARK  status: ('A' for Active; 'I' for Inactive)
ROOT
HETATM    1  C1  UNL     1      27.248   6.963   4.851  1.00  0.00     0.015 C 
HETATM    2  C2  UNL     1      25.995   6.143   5.110  1.00  0.00    -0.040 A 
HETATM    3  C3  UNL     1      25.325   5.826   3.802  1.00  0.00     0.010 C 
HETATM    4  C4  UNL     1      26.535   4.877   3.674  1.00  0.00     0.006 C 
HETATM    5  C5  UNL     1      26.135   4.565   5.073  1.00  0.00    -0.006 A 
HETATM    6  C6  UNL     1      26.158   5.325   6.271  1.00  0.00     0.015 A 
ENDROOT
TORSDOF 0
ENDMDL
MODEL 3
REMARK VINA RESULT: -4.657243015      0.995      1.200
REMARK  0 active torsions:
REMARK  status: ('A' for Active; 'I' for Inactive)
ROOT
HETATM    1  C1  UNL     1      27.126   4.749   3.338  1.00  0.00     0.015 C 
HETATM    2  C2  UNL     1      26.376   5.956   3.878  1.00  0.00    -0.040 A 
HETATM    3  C3  UNL     1      25.057   5.511   4.448  1.00  0.00     0.010 C 
HETATM    4  C4  UNL     1      25.981   4.954   5.550  1.00  0.00     0.006 C 
HETATM    5  C5  UNL     1      26.573   6.312   5.409  1.00  0.00    -0.006 A 
HETATM    6  C6  UNL     1      27.289   6.943   4.361  1.00  0.00     0.015 A 
ENDROOT
TORSDOF 0
ENDMDL
MODEL 4
REMARK VINA RESULT: -4.346114215      0.966      2.419
REMARK  0 active torsions:
REMARK  status: ('A' for Active; 'I' for Inactive)
ROOT
HETATM    1  C1  UNL     1      26.145   5.160   6.098  1.00  0.00     0.015 C 
HETATM    2  C2  UNL     1      25.737   4.886   4.660  1.00  0.00    -0.040 A 
HETATM    3  C3  UNL     1      25.032   6.091   4.102  1.00  0.00     0.010 C 
HETATM    4  C4  UNL     1      26.467   6.655   4.123  1.00  0.00     0.006 C 
HETATM    5  C5  UNL     1      26.745   5.323   3.520  1.00  0.00    -0.006 A 
HETATM    6  C6  UNL     1      26.668   4.003   4.030  1.00  0.00     0.015 A 
ENDROOT
TORSDOF 0
ENDMDL
MODEL 5
REMARK VINA RESULT: -4.263110772      0.633      2.043
REMARK  0 active torsions:
REMARK  status: ('A' for Active; 'I' for Inactive)
ROOT
HETATM    1  C1  UNL     1      24.788   5.638   4.029  1.00  0.00     0.015 C 
HETATM    2  C2  UNL     1      26.108   5.284   4.696  1.00  0.00    -0.040 A 
HETATM    3  C3  UNL     1      27.246   5.745   3.828  1.00  0.00     0.010 C 
HETATM    4  C4  UNL     1      26.775   7.122   4.337  1.00  0.00     0.006 C 
HETATM    5  C5  UNL     1      26.772   6.380   5.626  1.00  0.00    -0.006 A 
HETATM    6  C6  UNL     1      25.979   5.313   6.119  1.00  0.00     0.015 A 
ENDROOT
TORSDOF 0
ENDMDL
