MODEL 1
REMARK VINA RESULT: -4.611668335      0.000      0.000
REMARK  0 active torsions:
REMARK  status: ('A' for Active; 'I' for Inactive)
ROOT
HETATM    1  C1  UNL     1      26.681   6.844   5.897  1.00  0.00     0.032 C 
HETATM    2  C2  UNL     1      26.128   5.458   6.159  1.00  0.00     0.039 C 
HETATM    3  C3  UNL     1      25.577   5.070   4.826  1.00  0.00     0.251 A 
HETATM    4  C4  UNL     1      26.456   4.402   3.886  1.00  0.00     0.308 A 
HETATM    5  N1  UNL     1      26.196   5.891   3.827  1.00  0.00     0.097 N 
HETATM    6  C5  UNL     1      27.181   6.719   4.481  1.00  0.00     0.273 C 
ENDROOT
TORSDOF 0
ENDMDL
MODEL 2
REMARK VINA RESULT: -4.249523542      0.966      2.493
REMARK  0 active torsions:
REMARK  status: ('A' for Active; 'I' for Inactive)
ROOT
HETATM    1  C1  UNL     1      27.117   5.195   2.928  1.00  0.00     0.032 C 
HETATM    2  C2  UNL     1      27.401   6.455   3.719  1.00  0.00     0.039 C 
HETATM    3  C3  UNL     1      26.213   6.551   4.619  1.00  0.00     0.251 A 
HETATM    4  C4  UNL     1      26.267   5.884   5.905  1.00  0.00     0.308 A 
HETATM    5  N1  UNL     1      25.604   5.257   4.699  1.00  0.00     0.097 N 
HETATM    6  C5  UNL     1      26.423   4.333   3.952  1.00  0.00     0.273 C 
ENDROOT
TORSDOF 0
ENDMDL
MODEL 3
REMARK VINA RESULT: -4.044546586      1.137      2.574
REMARK  0 active torsions:
REMARK  status: ('A' for Active; 'I' for Inactive)
ROOT
HETATM    1  C1  UNL     1      25.883   4.654   4.558  1.00  0.00     0.032 C 
HETATM    2  C2  UNL     1      26.742   5.597   3.741  1.00  0.00     0.039 C 
HETATM    3  C3  UNL     1      26.604   6.888   4.481  1.00  0.00     0.251 A 
HETATM    4  C4  UNL     1      27.538   7.170   5.553  1.00  0.00     0.308 A 
HETATM    5  N1  UNL     1      26.162   6.598   5.813  1.00  0.00     0.097 N 
HETATM    6  C5  UNL     1      26.105   5.163   5.960  1.00  0.00     0.273 C 
ENDROOT
TORSDOF 0
ENDMDL
MODEL 4
REMARK VINA RESULT: -3.966823535      1.294      2.248
REMARK  0 active torsions:
REMARK  status: ('A' for Active; 'I' for Inactive)
ROOT
HETATM    1  C1  UNL     1      27.980   6.214   2.923  1.00  0.00     0.032 C 
HETATM    2  C2  UNL     1      27.061   5.050   2.612  1.00  0.00     0.039 C 
HETATM    3  C3  UNL     1      26.461   4.743   3.944  1.00  0.00     0.251 A 
HETATM    4  C4  UNL     1      25.246   5.434   4.328  1.00  0.00     0.308 A 
HETATM    5  N1  UNL     1      26.612   5.895   4.782  1.00  0.00     0.097 N 
HETATM    6  C5  UNL     1      27.208   6.945   3.991  1.00  0.00     0.273 C 
ENDROOT
TORSDOF 0
ENDMDL
MODEL 5
REMARK VINA RESULT: -3.936045608      1.104      1.882
REMARK  0 active torsions:
REMARK  status: ('A' for Active; 'I' for Inactive)
ROOT
HETATM    1  C1  UNL     1      27.861   6.838   3.299  1.00  0.00     0.032 C 
HETATM    2  C2  UNL     1      27.322   6.949   4.710  1.00  0.00     0.039 C 
HETATM    3  C3  UNL     1      26.050   6.169   4.636  1.00  0.00     0.251 A 
HETATM    4  C4  UNL     1      26.099   4.745   4.903  1.00  0.00     0.308 A 
HETATM    5  N1  UNL     1      26.120   5.302   3.497  1.00  0.00     0.097 N 
HETATM    6  C5  UNL     1      27.429   5.448   2.907  1.00  0.00     0.273 C 
ENDROOT
TORSDOF 0
ENDMDL
