MODEL 1
REMARK VINA RESULT: -5.368050656      0.000      0.000
REMARK  0 active torsions:
REMARK  status: ('A' for Active; 'I' for Inactive)
ROOT
HETATM    1  C1  UNL     1      28.433   7.004   2.903  1.00  0.00     0.012 C 
HETATM    2  C2  UNL     1      27.481   6.794   3.614  1.00  0.00    -0.113 C 
HETATM    3  C3  UNL     1      26.318   6.520   4.492  1.00  0.00     0.064 C 
HETATM    4  C4  UNL     1      26.056   5.027   4.660  1.00  0.00     0.017 C 
HETATM    5  C5  UNL     1      25.843   5.287   6.122  1.00  0.00     0.002 C 
HETATM    6  C6  UNL     1      26.647   6.563   5.965  1.00  0.00     0.017 C 
ENDROOT
TORSDOF 0
ENDMDL
MODEL 2
REMARK VINA RESULT: -5.330561747      1.357      1.488
REMARK  0 active torsions:
REMARK  status: ('A' for Active; 'I' for Inactive)
ROOT
HETATM    1  C1  UNL     1      27.539   4.632   2.374  1.00  0.00     0.012 C 
HETATM    2  C2  UNL     1      26.892   5.211   3.213  1.00  0.00    -0.113 C 
HETATM    3  C3  UNL     1      26.106   5.914   4.255  1.00  0.00     0.064 C 
HETATM    4  C4  UNL     1      25.966   5.089   5.530  1.00  0.00     0.017 C 
HETATM    5  C5  UNL     1      26.253   6.342   6.304  1.00  0.00     0.002 C 
HETATM    6  C6  UNL     1      26.915   6.903   5.060  1.00  0.00     0.017 C 
ENDROOT
TORSDOF 0
ENDMDL
MODEL 3
REMARK VINA RESULT: -4.962350660      1.317      2.900
REMARK  0 active torsions:
REMARK  status: ('A' for Active; 'I' for Inactive)
ROOT
HETATM    1  C1  UNL     1      26.757   6.964   6.210  1.00  0.00     0.012 C 
HETATM    2  C2  UNL     1      26.594   6.490   5.112  1.00  0.00    -0.113 C 
HETATM    3  C3  UNL     1      26.412   5.904   3.763  1.00  0.00     0.064 C 
HETATM    4  C4  UNL     1      27.667   6.021   2.905  1.00  0.00     0.017 C 
HETATM    5  C5  UNL     1      27.432   4.605   2.469  1.00  0.00     0.002 C 
HETATM    6  C6  UNL     1      26.600   4.406   3.722  1.00  0.00     0.017 C 
ENDROOT
TORSDOF 0
ENDMDL
MODEL 4
REMARK VINA RESULT: -4.819315572      0.979      3.300
REMARK  0 active torsions:
REMARK  status: ('A' for Active; 'I' for Inactive)
ROOT
HETATM    1  C1  UNL     1      25.854   5.234   6.219  1.00  0.00     0.012 C 
HETATM    2  C2  UNL     1      26.096   5.635   5.106  1.00  0.00    -0.113 C 
HETATM    3  C3  UNL     1      26.409   6.130   3.745  1.00  0.00     0.064 C 
HETATM    4  C4  UNL     1      27.680   6.973   3.712  1.00  0.00     0.017 C 
HETATM    5  C5  UNL     1      28.066   6.239   2.462  1.00  0.00     0.002 C 
HETATM    6  C6  UNL     1      27.133   5.121   2.885  1.00  0.00     0.017 C 
ENDROOT
TORSDOF 0
ENDMDL
MODEL 5
REMARK VINA RESULT: -4.318629810      0.691      1.392
REMARK  0 active torsions:
REMARK  status: ('A' for Active; 'I' for Inactive)
ROOT
HETATM    1  C1  UNL     1      28.061   7.295   2.416  1.00  0.00     0.012 C 
HETATM    2  C2  UNL     1      27.706   6.580   3.321  1.00  0.00    -0.113 C 
HETATM    3  C3  UNL     1      27.258   5.713   4.437  1.00  0.00     0.064 C 
HETATM    4  C4  UNL     1      26.669   6.514   5.594  1.00  0.00     0.017 C 
HETATM    5  C5  UNL     1      25.574   5.491   5.668  1.00  0.00     0.002 C 
HETATM    6  C6  UNL     1      25.884   5.121   4.231  1.00  0.00     0.017 C 
ENDROOT
TORSDOF 0
ENDMDL
