MODEL 1
REMARK VINA RESULT: -7.391827122      0.000      0.000
REMARK  17 active torsions:
REMARK  status: ('A' for Active; 'I' for Inactive)
REMARK    1  A    between atoms: C2_2  and  O2_4 
REMARK    2  A    between atoms: O2_4  and  C3_5 
REMARK    3  A    between atoms: C3_5  and  C4_6 
REMARK    4  A    between atoms: C4_6  and  O3_7 
REMARK    5  A    between atoms: C4_6  and  C5_9 
REMARK    6  A    between atoms: C4_6  and  C6_12 
REMARK    7  A    between atoms: C5_9  and  O4_10 
REMARK    8  A    between atoms: C6_12  and  O5_14 
REMARK    9  A    between atoms: C6_12  and  C8_16 
REMARK   10  A    between atoms: C8_16  and  O7_18 
REMARK   11  A    between atoms: O7_18  and  C9_19 
REMARK   12  A    between atoms: C11_21  and  O8_22 
REMARK   13  A    between atoms: C12_24  and  O9_26 
REMARK   14  A    between atoms: C15_29  and  O10_30 
REMARK   15  A    between atoms: C17_33  and  O11_34 
REMARK   16  A    between atoms: C18_36  and  C20_38 
REMARK   17  A    between atoms: C24_43  and  O13_44 
ROOT
HETATM    1  C9  UNL     1       2.456  10.770  14.053  1.00  0.00     0.169 C 
HETATM    2  C10 UNL     1       2.175  11.259  15.483  1.00  0.00     0.070 C 
HETATM    3  C11 UNL     1       3.485  11.783  15.980  1.00  0.00     0.155 C 
HETATM    4  C12 UNL     1       3.879  13.054  15.211  1.00  0.00     0.092 C 
HETATM    5  C13 UNL     1       2.980  14.117  15.709  1.00  0.00     0.049 C 
HETATM    6  C14 UNL     1       3.987  12.768  13.798  1.00  0.00     0.124 C 
HETATM    7  C15 UNL     1       2.962  11.853  13.182  1.00  0.00     0.099 C 
HETATM    8  C16 UNL     1       1.875  12.774  12.652  1.00  0.00     0.085 C 
HETATM    9  C17 UNL     1       2.543  14.072  12.333  1.00  0.00     0.127 C 
HETATM   10  C18 UNL     1       2.705  14.380  10.890  1.00  0.00     0.017 C 
HETATM   11  C19 UNL     1       1.710  13.609  10.029  1.00  0.00     0.021 C 
HETATM   12  C23 UNL     1       4.097  13.918  10.595  1.00  0.00     0.184 C 
HETATM   13  O12 UNL     1       4.726  13.573  11.735  1.00  0.00    -0.351 OA
HETATM   14  C24 UNL     1       3.948  13.918  12.838  1.00  0.00     0.204 C 
ENDROOT
BRANCH   1  15
HETATM   15  O7  UNL     1       3.523   9.827  14.229  1.00  0.00    -0.310 OA
BRANCH  15  16
HETATM   16  C8  UNL     1       3.368   8.478  14.136  1.00  0.00     0.297 C 
HETATM   17  O6  UNL     1       2.276   8.045  13.649  1.00  0.00    -0.262 OA
BRANCH  16  18
HETATM   18  C6  UNL     1       4.414   7.528  14.576  1.00  0.00     0.176 C 
HETATM   19  C7  UNL     1       4.308   7.426  16.085  1.00  0.00     0.060 C 
BRANCH  18  20
HETATM   20  C4  UNL     1       5.755   8.027  14.132  1.00  0.00     0.140 C 
BRANCH  20  21
HETATM   21  C3  UNL     1       6.749   6.897  13.938  1.00  0.00     0.222 C 
BRANCH  21  22
HETATM   22  O2  UNL     1       7.407   6.996  12.691  1.00  0.00    -0.319 OA
BRANCH  22  23
HETATM   23  C2  UNL     1       7.651   5.891  11.915  1.00  0.00     0.254 C 
HETATM   24  C1  UNL     1       7.711   5.965  10.439  1.00  0.00     0.126 C 
HETATM   25  O1  UNL     1       7.826   4.782  12.466  1.00  0.00    -0.266 OA
ENDBRANCH  22  23
ENDBRANCH  21  22
ENDBRANCH  20  21
BRANCH  20  26
HETATM   26  O3  UNL     1       6.329   8.909  15.021  1.00  0.00    -0.382 OA
ATOM     27  H3  UNL     1       5.875   8.796  15.847  1.00  0.00     0.211 HD
ENDBRANCH  20  26
BRANCH  20  28
HETATM   28  C5  UNL     1       5.595   8.683  12.781  1.00  0.00     0.207 C 
BRANCH  28  29
HETATM   29  O4  UNL     1       6.264   9.927  12.805  1.00  0.00    -0.398 OA
ATOM     30  H4  UNL     1       5.690  10.586  12.434  1.00  0.00     0.209 HD
ENDBRANCH  28  29
ENDBRANCH  20  28
ENDBRANCH  18  20
BRANCH  18  31
HETATM   31  O5  UNL     1       4.234   6.267  14.004  1.00  0.00    -0.377 OA
ATOM     32  H5  UNL     1       3.320   6.201  13.753  1.00  0.00     0.211 HD
ENDBRANCH  18  31
ENDBRANCH  16  18
ENDBRANCH  15  16
ENDBRANCH   1  15
BRANCH   7  33
HETATM   33  O10 UNL     1       3.514  11.243  12.047  1.00  0.00    -0.386 OA
ATOM     34  H10 UNL     1       4.344  11.671  11.877  1.00  0.00     0.210 HD
ENDBRANCH   7  33
BRANCH   3  35
HETATM   35  O8  UNL     1       3.327  12.105  17.331  1.00  0.00    -0.392 OA
ATOM     36  H8  UNL     1       4.073  11.752  17.800  1.00  0.00     0.210 HD
ENDBRANCH   3  35
BRANCH   4  37
HETATM   37  O9  UNL     1       5.170  13.366  15.711  1.00  0.00    -0.387 OA
ATOM     38  H9  UNL     1       5.579  13.845  15.000  1.00  0.00     0.210 HD
ENDBRANCH   4  37
BRANCH  14  39
HETATM   39  O13 UNL     1       4.488  15.093  13.343  1.00  0.00    -0.362 OA
ATOM     40  H13 UNL     1       5.128  14.959  14.032  1.00  0.00     0.213 HD
ENDBRANCH  14  39
BRANCH   9  41
HETATM   41  O11 UNL     1       1.840  15.098  12.926  1.00  0.00    -0.383 OA
ATOM     42  H11 UNL     1       1.748  15.812  12.306  1.00  0.00     0.210 HD
ENDBRANCH   9  41
BRANCH  10  43
HETATM   43  C20 UNL     1       2.624  15.835  10.529  1.00  0.00    -0.009 C 
HETATM   44  C21 UNL     1       1.627  16.188   9.494  1.00  0.00     0.010 C 
HETATM   45  C22 UNL     1       4.004  16.277  10.087  1.00  0.00     0.010 C 
ENDBRANCH  10  43
TORSDOF 17
ENDMDL
MODEL 2
REMARK VINA RESULT: -6.929399201      1.400      2.782
REMARK  17 active torsions:
REMARK  status: ('A' for Active; 'I' for Inactive)
REMARK    1  A    between atoms: C2_2  and  O2_4 
REMARK    2  A    between atoms: O2_4  and  C3_5 
REMARK    3  A    between atoms: C3_5  and  C4_6 
REMARK    4  A    between atoms: C4_6  and  O3_7 
REMARK    5  A    between atoms: C4_6  and  C5_9 
REMARK    6  A    between atoms: C4_6  and  C6_12 
REMARK    7  A    between atoms: C5_9  and  O4_10 
REMARK    8  A    between atoms: C6_12  and  O5_14 
REMARK    9  A    between atoms: C6_12  and  C8_16 
REMARK   10  A    between atoms: C8_16  and  O7_18 
REMARK   11  A    between atoms: O7_18  and  C9_19 
REMARK   12  A    between atoms: C11_21  and  O8_22 
REMARK   13  A    between atoms: C12_24  and  O9_26 
REMARK   14  A    between atoms: C15_29  and  O10_30 
REMARK   15  A    between atoms: C17_33  and  O11_34 
REMARK   16  A    between atoms: C18_36  and  C20_38 
REMARK   17  A    between atoms: C24_43  and  O13_44 
ROOT
HETATM    1  C9  UNL     1       1.700   9.815  13.285  1.00  0.00     0.169 C 
HETATM    2  C10 UNL     1       0.583  10.025  14.319  1.00  0.00     0.070 C 
HETATM    3  C11 UNL     1       1.241  10.726  15.465  1.00  0.00     0.155 C 
HETATM    4  C12 UNL     1       1.657  12.148  15.054  1.00  0.00     0.092 C 
HETATM    5  C13 UNL     1       0.402  12.924  14.975  1.00  0.00     0.049 C 
HETATM    6  C14 UNL     1       2.575  12.096  13.940  1.00  0.00     0.124 C 
HETATM    7  C15 UNL     1       2.309  11.091  12.850  1.00  0.00     0.099 C 
HETATM    8  C16 UNL     1       1.490  11.839  11.811  1.00  0.00     0.085 C 
HETATM    9  C17 UNL     1       1.877  13.278  11.927  1.00  0.00     0.127 C 
HETATM   10  C18 UNL     1       2.708  13.816  10.822  1.00  0.00     0.017 C 
HETATM   11  C19 UNL     1       2.561  12.993   9.547  1.00  0.00     0.021 C 
HETATM   12  C23 UNL     1       4.103  13.693  11.349  1.00  0.00     0.184 C 
HETATM   13  O12 UNL     1       4.081  13.322  12.644  1.00  0.00    -0.351 OA
HETATM   14  C24 UNL     1       2.776  13.340  13.128  1.00  0.00     0.204 C 
ENDROOT
BRANCH   1  15
HETATM   15  O7  UNL     1       2.699   9.091  14.018  1.00  0.00    -0.310 OA
BRANCH  15  16
HETATM   16  C8  UNL     1       2.957   7.765  13.848  1.00  0.00     0.297 C 
HETATM   17  O6  UNL     1       2.071   7.067  13.261  1.00  0.00    -0.262 OA
BRANCH  16  18
HETATM   18  C6  UNL     1       4.210   7.134  14.319  1.00  0.00     0.176 C 
HETATM   19  C7  UNL     1       4.221   7.254  15.830  1.00  0.00     0.060 C 
BRANCH  18  20
HETATM   20  C4  UNL     1       5.379   7.822  13.684  1.00  0.00     0.140 C 
BRANCH  20  21
HETATM   21  C3  UNL     1       6.075   8.769  14.644  1.00  0.00     0.222 C 
BRANCH  21  22
HETATM   22  O2  UNL     1       5.883  10.118  14.270  1.00  0.00    -0.319 OA
BRANCH  22  23
HETATM   23  C2  UNL     1       5.763  11.116  15.205  1.00  0.00     0.254 C 
HETATM   24  C1  UNL     1       5.118  10.891  16.516  1.00  0.00     0.126 C 
HETATM   25  O1  UNL     1       6.209  12.255  14.944  1.00  0.00    -0.266 OA
ENDBRANCH  22  23
ENDBRANCH  21  22
ENDBRANCH  20  21
BRANCH  20  26
HETATM   26  O3  UNL     1       5.037   8.566  12.576  1.00  0.00    -0.382 OA
ATOM     27  H3  UNL     1       4.529   9.304  12.892  1.00  0.00     0.211 HD
ENDBRANCH  20  26
BRANCH  20  28
HETATM   28  C5  UNL     1       6.401   6.776  13.309  1.00  0.00     0.207 C 
BRANCH  28  29
HETATM   29  O4  UNL     1       7.467   7.411  12.632  1.00  0.00    -0.398 OA
ATOM     30  H4  UNL     1       7.998   6.745  12.213  1.00  0.00     0.209 HD
ENDBRANCH  28  29
ENDBRANCH  20  28
ENDBRANCH  18  20
BRANCH  18  31
HETATM   31  O5  UNL     1       4.275   5.789  13.951  1.00  0.00    -0.377 OA
ATOM     32  H5  UNL     1       4.087   5.276  14.729  1.00  0.00     0.211 HD
ENDBRANCH  18  31
ENDBRANCH  16  18
ENDBRANCH  15  16
ENDBRANCH   1  15
BRANCH   7  33
HETATM   33  O10 UNL     1       3.515  10.775  12.211  1.00  0.00    -0.386 OA
ATOM     34  H10 UNL     1       4.122  11.481  12.397  1.00  0.00     0.210 HD
ENDBRANCH   7  33
BRANCH   3  35
HETATM   35  O8  UNL     1       0.307  10.812  16.501  1.00  0.00    -0.392 OA
ATOM     36  H8  UNL     1      -0.133  11.651  16.424  1.00  0.00     0.210 HD
ENDBRANCH   3  35
BRANCH   4  37
HETATM   37  O9  UNL     1       2.351  12.639  16.192  1.00  0.00    -0.387 OA
ATOM     38  H9  UNL     1       1.747  12.483  16.909  1.00  0.00     0.210 HD
ENDBRANCH   4  37
BRANCH  14  39
HETATM   39  O13 UNL     1       2.648  14.515  13.857  1.00  0.00    -0.362 OA
ATOM     40  H13 UNL     1       2.141  15.188  13.418  1.00  0.00     0.213 HD
ENDBRANCH  14  39
BRANCH   9  41
HETATM   41  O11 UNL     1       0.738  14.045  12.036  1.00  0.00    -0.383 OA
ATOM     42  H11 UNL     1       0.907  14.907  11.674  1.00  0.00     0.210 HD
ENDBRANCH   9  41
BRANCH  10  43
HETATM   43  C20 UNL     1       2.477  15.262  10.487  1.00  0.00    -0.009 C 
HETATM   44  C21 UNL     1       1.638  15.521   9.296  1.00  0.00     0.010 C 
HETATM   45  C22 UNL     1       3.831  15.918  10.317  1.00  0.00     0.010 C 
ENDBRANCH  10  43
TORSDOF 17
ENDMDL
MODEL 3
REMARK VINA RESULT: -6.815885909      1.612      2.681
REMARK  17 active torsions:
REMARK  status: ('A' for Active; 'I' for Inactive)
REMARK    1  A    between atoms: C2_2  and  O2_4 
REMARK    2  A    between atoms: O2_4  and  C3_5 
REMARK    3  A    between atoms: C3_5  and  C4_6 
REMARK    4  A    between atoms: C4_6  and  O3_7 
REMARK    5  A    between atoms: C4_6  and  C5_9 
REMARK    6  A    between atoms: C4_6  and  C6_12 
REMARK    7  A    between atoms: C5_9  and  O4_10 
REMARK    8  A    between atoms: C6_12  and  O5_14 
REMARK    9  A    between atoms: C6_12  and  C8_16 
REMARK   10  A    between atoms: C8_16  and  O7_18 
REMARK   11  A    between atoms: O7_18  and  C9_19 
REMARK   12  A    between atoms: C11_21  and  O8_22 
REMARK   13  A    between atoms: C12_24  and  O9_26 
REMARK   14  A    between atoms: C15_29  and  O10_30 
REMARK   15  A    between atoms: C17_33  and  O11_34 
REMARK   16  A    between atoms: C18_36  and  C20_38 
REMARK   17  A    between atoms: C24_43  and  O13_44 
ROOT
HETATM    1  C9  UNL     1       3.346  11.305  13.978  1.00  0.00     0.169 C 
HETATM    2  C10 UNL     1       2.919  11.670  15.409  1.00  0.00     0.070 C 
HETATM    3  C11 UNL     1       4.030  12.516  15.944  1.00  0.00     0.155 C 
HETATM    4  C12 UNL     1       4.082  13.862  15.203  1.00  0.00     0.092 C 
HETATM    5  C13 UNL     1       2.922  14.634  15.697  1.00  0.00     0.049 C 
HETATM    6  C14 UNL     1       4.288  13.646  13.789  1.00  0.00     0.124 C 
HETATM    7  C15 UNL     1       3.558  12.502  13.136  1.00  0.00     0.099 C 
HETATM    8  C16 UNL     1       2.273  13.108  12.595  1.00  0.00     0.085 C 
HETATM    9  C17 UNL     1       2.573  14.545  12.312  1.00  0.00     0.127 C 
HETATM   10  C18 UNL     1       2.672  14.914  10.878  1.00  0.00     0.017 C 
HETATM   11  C19 UNL     1       1.936  13.924   9.983  1.00  0.00     0.021 C 
HETATM   12  C23 UNL     1       4.142  14.850  10.608  1.00  0.00     0.184 C 
HETATM   13  O12 UNL     1       4.820  14.662  11.757  1.00  0.00    -0.351 OA
HETATM   14  C24 UNL     1       3.959  14.763  12.846  1.00  0.00     0.204 C 
ENDROOT
BRANCH   1  15
HETATM   15  O7  UNL     1       4.624  10.679  14.163  1.00  0.00    -0.310 OA
BRANCH  15  16
HETATM   16  C8  UNL     1       4.917   9.413  13.759  1.00  0.00     0.297 C 
HETATM   17  O6  UNL     1       4.762   9.140  12.527  1.00  0.00    -0.262 OA
BRANCH  16  18
HETATM   18  C6  UNL     1       5.399   8.373  14.696  1.00  0.00     0.176 C 
HETATM   19  C7  UNL     1       6.301   7.450  13.901  1.00  0.00     0.060 C 
BRANCH  18  20
HETATM   20  C4  UNL     1       4.224   7.654  15.285  1.00  0.00     0.140 C 
BRANCH  20  21
HETATM   21  C3  UNL     1       3.920   6.362  14.552  1.00  0.00     0.222 C 
BRANCH  21  22
HETATM   22  O2  UNL     1       2.861   6.527  13.629  1.00  0.00    -0.319 OA
BRANCH  22  23
HETATM   23  C2  UNL     1       2.038   5.486  13.282  1.00  0.00     0.254 C 
HETATM   24  C1  UNL     1       0.778   5.695  12.535  1.00  0.00     0.126 C 
HETATM   25  O1  UNL     1       2.355   4.321  13.607  1.00  0.00    -0.266 OA
ENDBRANCH  22  23
ENDBRANCH  21  22
ENDBRANCH  20  21
BRANCH  20  26
HETATM   26  O3  UNL     1       3.066   8.400  15.267  1.00  0.00    -0.382 OA
ATOM     27  H3  UNL     1       3.285   9.252  15.624  1.00  0.00     0.211 HD
ENDBRANCH  20  26
BRANCH  20  28
HETATM   28  C5  UNL     1       4.566   7.264  16.703  1.00  0.00     0.207 C 
BRANCH  28  29
HETATM   29  O4  UNL     1       3.921   8.162  17.583  1.00  0.00    -0.398 OA
ATOM     30  H4  UNL     1       4.529   8.857  17.803  1.00  0.00     0.209 HD
ENDBRANCH  28  29
ENDBRANCH  20  28
ENDBRANCH  18  20
BRANCH  18  31
HETATM   31  O5  UNL     1       6.114   8.932  15.758  1.00  0.00    -0.377 OA
ATOM     32  H5  UNL     1       5.754   8.569  16.559  1.00  0.00     0.211 HD
ENDBRANCH  18  31
ENDBRANCH  16  18
ENDBRANCH  15  16
ENDBRANCH   1  15
BRANCH   7  33
HETATM   33  O10 UNL     1       4.274  12.086  12.004  1.00  0.00    -0.386 OA
ATOM     34  H10 UNL     1       5.103  12.550  12.014  1.00  0.00     0.210 HD
ENDBRANCH   7  33
BRANCH   3  35
HETATM   35  O8  UNL     1       3.768  12.755  17.295  1.00  0.00    -0.392 OA
ATOM     36  H8  UNL     1       4.596  12.730  17.759  1.00  0.00     0.210 HD
ENDBRANCH   3  35
BRANCH   4  37
HETATM   37  O9  UNL     1       5.233  14.498  15.738  1.00  0.00    -0.387 OA
ATOM     38  H9  UNL     1       5.931  13.874  15.579  1.00  0.00     0.210 HD
ENDBRANCH   4  37
BRANCH  14  39
HETATM   39  O13 UNL     1       4.154  16.029  13.382  1.00  0.00    -0.362 OA
ATOM     40  H13 UNL     1       3.397  16.374  13.841  1.00  0.00     0.213 HD
ENDBRANCH  14  39
BRANCH   9  41
HETATM   41  O11 UNL     1       1.610  15.331  12.905  1.00  0.00    -0.383 OA
ATOM     42  H11 UNL     1       1.831  15.456  13.820  1.00  0.00     0.210 HD
ENDBRANCH   9  41
BRANCH  10  43
HETATM   43  C20 UNL     1       2.209  16.302  10.538  1.00  0.00    -0.009 C 
HETATM   44  C21 UNL     1       1.012  16.388   9.672  1.00  0.00     0.010 C 
HETATM   45  C22 UNL     1       3.369  17.028   9.888  1.00  0.00     0.010 C 
ENDBRANCH  10  43
TORSDOF 17
ENDMDL
MODEL 4
REMARK VINA RESULT: -6.794610300      2.168      7.514
REMARK  17 active torsions:
REMARK  status: ('A' for Active; 'I' for Inactive)
REMARK    1  A    between atoms: C2_2  and  O2_4 
REMARK    2  A    between atoms: O2_4  and  C3_5 
REMARK    3  A    between atoms: C3_5  and  C4_6 
REMARK    4  A    between atoms: C4_6  and  O3_7 
REMARK    5  A    between atoms: C4_6  and  C5_9 
REMARK    6  A    between atoms: C4_6  and  C6_12 
REMARK    7  A    between atoms: C5_9  and  O4_10 
REMARK    8  A    between atoms: C6_12  and  O5_14 
REMARK    9  A    between atoms: C6_12  and  C8_16 
REMARK   10  A    between atoms: C8_16  and  O7_18 
REMARK   11  A    between atoms: O7_18  and  C9_19 
REMARK   12  A    between atoms: C11_21  and  O8_22 
REMARK   13  A    between atoms: C12_24  and  O9_26 
REMARK   14  A    between atoms: C15_29  and  O10_30 
REMARK   15  A    between atoms: C17_33  and  O11_34 
REMARK   16  A    between atoms: C18_36  and  C20_38 
REMARK   17  A    between atoms: C24_43  and  O13_44 
ROOT
HETATM    1  C9  UNL     1       2.694  12.669  15.354  1.00  0.00     0.169 C 
HETATM    2  C10 UNL     1       1.816  13.159  14.191  1.00  0.00     0.070 C 
HETATM    3  C11 UNL     1       2.778  13.560  13.119  1.00  0.00     0.155 C 
HETATM    4  C12 UNL     1       3.502  12.324  12.560  1.00  0.00     0.092 C 
HETATM    5  C13 UNL     1       2.499  11.612  11.740  1.00  0.00     0.049 C 
HETATM    6  C14 UNL     1       4.222  11.648  13.615  1.00  0.00     0.124 C 
HETATM    7  C15 UNL     1       3.559  11.535  14.962  1.00  0.00     0.099 C 
HETATM    8  C16 UNL     1       2.842  10.194  14.941  1.00  0.00     0.085 C 
HETATM    9  C17 UNL     1       3.610   9.322  14.001  1.00  0.00     0.127 C 
HETATM   10  C18 UNL     1       4.405   8.237  14.629  1.00  0.00     0.017 C 
HETATM   11  C19 UNL     1       3.881   7.877  16.014  1.00  0.00     0.021 C 
HETATM   12  C23 UNL     1       5.772   8.834  14.741  1.00  0.00     0.184 C 
HETATM   13  O12 UNL     1       5.820  10.017  14.099  1.00  0.00    -0.351 OA
HETATM   14  C24 UNL     1       4.640  10.227  13.389  1.00  0.00     0.204 C 
ENDROOT
BRANCH   1  15
HETATM   15  O7  UNL     1       3.550  13.790  15.618  1.00  0.00    -0.310 OA
BRANCH  15  16
HETATM   16  C8  UNL     1       3.624  14.423  16.821  1.00  0.00     0.297 C 
HETATM   17  O6  UNL     1       3.646  13.697  17.865  1.00  0.00    -0.262 OA
BRANCH  16  18
HETATM   18  C6  UNL     1       3.679  15.897  16.939  1.00  0.00     0.176 C 
HETATM   19  C7  UNL     1       2.497  16.444  16.163  1.00  0.00     0.060 C 
BRANCH  18  20
HETATM   20  C4  UNL     1       4.989  16.388  16.403  1.00  0.00     0.140 C 
BRANCH  20  21
HETATM   21  C3  UNL     1       4.818  17.202  15.134  1.00  0.00     0.222 C 
BRANCH  21  22
HETATM   22  O2  UNL     1       5.106  16.433  13.984  1.00  0.00    -0.319 OA
BRANCH  22  23
HETATM   23  C2  UNL     1       4.440  16.629  12.800  1.00  0.00     0.254 C 
HETATM   24  C1  UNL     1       3.384  17.654  12.652  1.00  0.00     0.126 C 
HETATM   25  O1  UNL     1       4.730  15.921  11.811  1.00  0.00    -0.266 OA
ENDBRANCH  22  23
ENDBRANCH  21  22
ENDBRANCH  20  21
BRANCH  20  26
HETATM   26  O3  UNL     1       5.869  15.372  16.103  1.00  0.00    -0.382 OA
ATOM     27  H3  UNL     1       5.969  14.856  16.895  1.00  0.00     0.211 HD
ENDBRANCH  20  26
BRANCH  20  28
HETATM   28  C5  UNL     1       5.601  17.320  17.423  1.00  0.00     0.207 C 
BRANCH  28  29
HETATM   29  O4  UNL     1       6.492  16.577  18.230  1.00  0.00    -0.398 OA
ATOM     30  H4  UNL     1       6.621  17.047  19.046  1.00  0.00     0.209 HD
ENDBRANCH  28  29
ENDBRANCH  20  28
ENDBRANCH  18  20
BRANCH  18  31
HETATM   31  O5  UNL     1       3.600  16.308  18.271  1.00  0.00    -0.377 OA
ATOM     32  H5  UNL     1       2.755  16.024  18.602  1.00  0.00     0.211 HD
ENDBRANCH  18  31
ENDBRANCH  16  18
ENDBRANCH  15  16
ENDBRANCH   1  15
BRANCH   7  33
HETATM   33  O10 UNL     1       4.544  11.410  15.951  1.00  0.00    -0.386 OA
ATOM     34  H10 UNL     1       5.041  10.625  15.750  1.00  0.00     0.210 HD
ENDBRANCH   7  33
BRANCH   3  35
HETATM   35  O8  UNL     1       2.042  14.155  12.090  1.00  0.00    -0.392 OA
ATOM     36  H8  UNL     1       2.492  14.952  11.839  1.00  0.00     0.210 HD
ENDBRANCH   3  35
BRANCH   4  37
HETATM   37  O9  UNL     1       4.442  12.868  11.645  1.00  0.00    -0.387 OA
ATOM     38  H9  UNL     1       4.084  12.642  10.794  1.00  0.00     0.210 HD
ENDBRANCH   4  37
BRANCH  14  39
HETATM   39  O13 UNL     1       4.924   9.927  12.064  1.00  0.00    -0.362 OA
ATOM     40  H13 UNL     1       5.715   9.414  11.945  1.00  0.00     0.213 HD
ENDBRANCH  14  39
BRANCH   9  41
HETATM   41  O11 UNL     1       2.740   8.762  13.092  1.00  0.00    -0.383 OA
ATOM     42  H11 UNL     1       3.074   8.904  12.214  1.00  0.00     0.210 HD
ENDBRANCH   9  41
BRANCH  10  43
HETATM   43  C20 UNL     1       4.526   6.977  13.820  1.00  0.00    -0.009 C 
HETATM   44  C21 UNL     1       3.650   5.859  14.235  1.00  0.00     0.010 C 
HETATM   45  C22 UNL     1       5.976   6.541  13.861  1.00  0.00     0.010 C 
ENDBRANCH  10  43
TORSDOF 17
ENDMDL
MODEL 5
REMARK VINA RESULT: -6.783159926      2.121      3.530
REMARK  17 active torsions:
REMARK  status: ('A' for Active; 'I' for Inactive)
REMARK    1  A    between atoms: C2_2  and  O2_4 
REMARK    2  A    between atoms: O2_4  and  C3_5 
REMARK    3  A    between atoms: C3_5  and  C4_6 
REMARK    4  A    between atoms: C4_6  and  O3_7 
REMARK    5  A    between atoms: C4_6  and  C5_9 
REMARK    6  A    between atoms: C4_6  and  C6_12 
REMARK    7  A    between atoms: C5_9  and  O4_10 
REMARK    8  A    between atoms: C6_12  and  O5_14 
REMARK    9  A    between atoms: C6_12  and  C8_16 
REMARK   10  A    between atoms: C8_16  and  O7_18 
REMARK   11  A    between atoms: O7_18  and  C9_19 
REMARK   12  A    between atoms: C11_21  and  O8_22 
REMARK   13  A    between atoms: C12_24  and  O9_26 
REMARK   14  A    between atoms: C15_29  and  O10_30 
REMARK   15  A    between atoms: C17_33  and  O11_34 
REMARK   16  A    between atoms: C18_36  and  C20_38 
REMARK   17  A    between atoms: C24_43  and  O13_44 
ROOT
HETATM    1  C9  UNL     1       3.006  11.277  15.718  1.00  0.00     0.169 C 
HETATM    2  C10 UNL     1       3.700  12.641  15.577  1.00  0.00     0.070 C 
HETATM    3  C11 UNL     1       4.504  12.542  14.320  1.00  0.00     0.155 C 
HETATM    4  C12 UNL     1       3.577  12.455  13.097  1.00  0.00     0.092 C 
HETATM    5  C13 UNL     1       3.014  13.811  12.926  1.00  0.00     0.049 C 
HETATM    6  C14 UNL     1       2.718  11.297  13.204  1.00  0.00     0.124 C 
HETATM    7  C15 UNL     1       2.144  10.966  14.557  1.00  0.00     0.099 C 
HETATM    8  C16 UNL     1       0.791  11.656  14.594  1.00  0.00     0.085 C 
HETATM    9  C17 UNL     1       0.323  11.741  13.177  1.00  0.00     0.127 C 
HETATM   10  C18 UNL     1      -0.793  10.835  12.809  1.00  0.00     0.017 C 
HETATM   11  C19 UNL     1      -1.596  10.395  14.028  1.00  0.00     0.021 C 
HETATM   12  C23 UNL     1      -0.094   9.657  12.208  1.00  0.00     0.184 C 
HETATM   13  O12 UNL     1       1.220   9.915  12.066  1.00  0.00    -0.351 OA
HETATM   14  C24 UNL     1       1.482  11.252  12.358  1.00  0.00     0.204 C 
ENDROOT
BRANCH   1  15
HETATM   15  O7  UNL     1       4.099  10.347  15.702  1.00  0.00    -0.310 OA
BRANCH  15  16
HETATM   16  C8  UNL     1       4.059   9.117  16.285  1.00  0.00     0.297 C 
HETATM   17  O6  UNL     1       3.569   9.040  17.457  1.00  0.00    -0.262 OA
BRANCH  16  18
HETATM   18  C6  UNL     1       4.559   7.901  15.606  1.00  0.00     0.176 C 
HETATM   19  C7  UNL     1       4.910   6.905  16.693  1.00  0.00     0.060 C 
BRANCH  18  20
HETATM   20  C4  UNL     1       5.739   8.259  14.756  1.00  0.00     0.140 C 
BRANCH  20  21
HETATM   21  C3  UNL     1       6.573   7.044  14.397  1.00  0.00     0.222 C 
BRANCH  21  22
HETATM   22  O2  UNL     1       6.341   6.632  13.065  1.00  0.00    -0.319 OA
BRANCH  22  23
HETATM   23  C2  UNL     1       7.219   5.816  12.398  1.00  0.00     0.254 C 
HETATM   24  C1  UNL     1       7.635   6.081  11.004  1.00  0.00     0.126 C 
HETATM   25  O1  UNL     1       7.686   4.813  12.981  1.00  0.00    -0.266 OA
ENDBRANCH  22  23
ENDBRANCH  21  22
ENDBRANCH  20  21
BRANCH  20  26
HETATM   26  O3  UNL     1       6.592   9.157  15.360  1.00  0.00    -0.382 OA
ATOM     27  H3  UNL     1       6.906   8.742  16.154  1.00  0.00     0.211 HD
ENDBRANCH  20  26
BRANCH  20  28
HETATM   28  C5  UNL     1       5.232   8.823  13.450  1.00  0.00     0.207 C 
BRANCH  28  29
HETATM   29  O4  UNL     1       6.208   9.706  12.935  1.00  0.00    -0.398 OA
ATOM     30  H4  UNL     1       5.987  10.590  13.205  1.00  0.00     0.209 HD
ENDBRANCH  28  29
ENDBRANCH  20  28
ENDBRANCH  18  20
BRANCH  18  31
HETATM   31  O5  UNL     1       3.593   7.354  14.759  1.00  0.00    -0.377 OA
ATOM     32  H5  UNL     1       3.606   6.413  14.890  1.00  0.00     0.211 HD
ENDBRANCH  18  31
ENDBRANCH  16  18
ENDBRANCH  15  16
ENDBRANCH   1  15
BRANCH   7  33
HETATM   33  O10 UNL     1       1.860   9.595  14.612  1.00  0.00    -0.386 OA
ATOM     34  H10 UNL     1       2.486   9.157  14.046  1.00  0.00     0.210 HD
ENDBRANCH   7  33
BRANCH   3  35
HETATM   35  O8  UNL     1       5.276  13.702  14.218  1.00  0.00    -0.392 OA
ATOM     36  H8  UNL     1       5.072  14.112  13.386  1.00  0.00     0.210 HD
ENDBRANCH   3  35
BRANCH   4  37
HETATM   37  O9  UNL     1       4.468  12.260  12.009  1.00  0.00    -0.387 OA
ATOM     38  H9  UNL     1       3.990  12.600  11.262  1.00  0.00     0.210 HD
ENDBRANCH   4  37
BRANCH  14  39
HETATM   39  O13 UNL     1       1.610  11.899  11.137  1.00  0.00    -0.362 OA
ATOM     40  H13 UNL     1       0.789  12.214  10.778  1.00  0.00     0.213 HD
ENDBRANCH  14  39
BRANCH   9  41
HETATM   41  O11 UNL     1      -0.053  13.038  12.904  1.00  0.00    -0.383 OA
ATOM     42  H11 UNL     1       0.684  13.502  12.524  1.00  0.00     0.210 HD
ENDBRANCH   9  41
BRANCH  10  43
HETATM   43  C20 UNL     1      -1.744  11.372  11.777  1.00  0.00    -0.009 C 
HETATM   44  C21 UNL     1      -3.123  11.635  12.248  1.00  0.00     0.010 C 
HETATM   45  C22 UNL     1      -1.771  10.393  10.622  1.00  0.00     0.010 C 
ENDBRANCH  10  43
TORSDOF 17
ENDMDL
