MODEL 1
REMARK VINA RESULT: -9.034474442      0.000      0.000
REMARK  12 active torsions:
REMARK  status: ('A' for Active; 'I' for Inactive)
REMARK    1  A    between atoms: N1_1  and  C1_4 
REMARK    2  A    between atoms: C2_7  and  N3_8 
REMARK    3  A    between atoms: N3_8  and  C3_10 
REMARK    4  A    between atoms: C3_10  and  C4_11 
REMARK    5  A    between atoms: C4_11  and  N4_12 
REMARK       I    between atoms: N4_12  and  C5_14 
REMARK    6  A    between atoms: C5_14  and  C6_16 
REMARK    7  A    between atoms: C9_20  and  O3_21 
REMARK    8  A    between atoms: C12_31  and  N8_32 
REMARK    9  A    between atoms: C13_35  and  C14_36 
REMARK   10  A    between atoms: C15_41  and  C16_42 
REMARK   11  A    between atoms: C19_45  and  C20_46 
REMARK   12  A    between atoms: C20_46  and  N12_47 
ROOT
HETATM    1  C1  UNL     1       0.258   5.489  12.206  1.00  0.00     0.727 A 
HETATM    2  N2  UNL     1      -0.806   5.625  11.405  1.00  0.00    -0.020 N 
ATOM      3  H2  UNL     1      -1.248   4.788  11.024  1.00  0.00     0.203 HD
HETATM    4  C2  UNL     1      -1.309   6.821  11.088  1.00  0.00     0.707 A 
HETATM    5  N6  UNL     1      -0.732   7.928  11.585  1.00  0.00    -0.019 N 
ATOM      6  H6  UNL     1      -1.111   8.844  11.346  1.00  0.00     0.203 HD
HETATM    7  C11 UNL     1       0.342   7.843  12.397  1.00  0.00     0.748 A 
HETATM    8  N7  UNL     1       1.114   8.750  13.035  1.00  0.00    -0.016 N 
ATOM      9  H7  UNL     1       0.994   9.762  12.999  1.00  0.00     0.203 HD
HETATM   10  C12 UNL     1       2.073   8.095  13.727  1.00  0.00     0.736 A 
HETATM   11  N13 UNL     1       1.850   6.790  13.487  1.00  0.00    -0.093 N 
ATOM     12  H13 UNL     1       2.408   6.029  13.872  1.00  0.00     0.207 HD
HETATM   13  N14 UNL     1       0.827   6.629  12.700  1.00  0.00     0.106 N 
ENDROOT
BRANCH  10  14
HETATM   14  N8  UNL     1       3.082   8.642  14.570  1.00  0.00    -0.065 N 
HETATM   15  N9  UNL     1       2.720   9.556  15.507  1.00  0.00    -0.258 N 
HETATM   16  C13 UNL     1       3.784   9.948  16.208  1.00  0.00     0.189 A 
ATOM     17  H9  UNL     1       1.770   9.895  15.653  1.00  0.00     0.190 HD
HETATM   18  N11 UNL     1       4.813   9.274  15.703  1.00  0.00    -0.321 N 
HETATM   19  C15 UNL     1       4.368   8.457  14.678  1.00  0.00     0.157 A 
ATOM     20  H11 UNL     1       5.779   9.347  16.022  1.00  0.00     0.169 HD
BRANCH  16  21
HETATM   21  C14 UNL     1       3.792  10.921  17.301  1.00  0.00     0.300 C 
HETATM   22  N10 UNL     1       3.644  12.297  16.997  1.00  0.00    -0.054 NA
HETATM   23  O4  UNL     1       3.932  10.517  18.500  1.00  0.00    -0.268 OA
ENDBRANCH  16  21
BRANCH  19  24
HETATM   24  C16 UNL     1       5.234   7.577  13.928  1.00  0.00     0.011 A 
HETATM   25  C17 UNL     1       5.346   6.251  14.086  1.00  0.00     0.016 A 
HETATM   26  C18 UNL     1       6.249   5.498  13.306  1.00  0.00     0.010 A 
HETATM   27  C19 UNL     1       7.042   6.093  12.361  1.00  0.00    -0.033 A 
HETATM   28  C21 UNL     1       6.930   7.440  12.199  1.00  0.00     0.010 A 
HETATM   29  C22 UNL     1       6.047   8.170  12.964  1.00  0.00     0.016 A 
BRANCH  27  30
HETATM   30  C20 UNL     1       8.002   5.288  11.533  1.00  0.00     0.268 C 
BRANCH  30  31
HETATM   31  N12 UNL     1       8.488   6.078  10.421  1.00  0.00    -0.075 N 
ATOM     32 3H12 UNL     1       8.369   5.597   9.530  1.00  0.00     0.274 HD
ATOM     33 2H12 UNL     1       7.892   6.884  10.237  1.00  0.00     0.274 HD
ATOM     34 1H12 UNL     1       9.459   6.350  10.581  1.00  0.00     0.274 HD
ENDBRANCH  30  31
ENDBRANCH  27  30
ENDBRANCH  19  24
ENDBRANCH  10  14
BRANCH   1  35
HETATM   35  N1  UNL     1       0.730   4.318  12.500  1.00  0.00    -0.232 N 
ATOM     36  H12 UNL     1       0.780   3.575  11.803  1.00  0.00     0.174 HD
ATOM     37  H11 UNL     1       1.064   4.105  13.440  1.00  0.00     0.174 HD
ENDBRANCH   1  35
BRANCH   4  38
HETATM   38  N3  UNL     1      -2.334   6.897  10.315  1.00  0.00    -0.224 N 
ATOM     39  H3  UNL     1      -2.787   7.799  10.170  1.00  0.00     0.177 HD
BRANCH  38  40
HETATM   40  C3  UNL     1      -2.856   5.724   9.650  1.00  0.00     0.157 C 
BRANCH  40  41
HETATM   41  C4  UNL     1      -4.247   5.396  10.073  1.00  0.00     0.143 C 
BRANCH  41  42
HETATM   42  N4  UNL     1      -4.368   4.578  11.234  1.00  0.00    -0.354 N 
HETATM   43  C5  UNL     1      -4.402   5.034  12.559  1.00  0.00     0.268 C 
HETATM   44  O1  UNL     1      -4.320   6.289  12.757  1.00  0.00    -0.266 OA
ATOM     45  H4  UNL     1      -4.437   3.571  11.088  1.00  0.00     0.162 HD
BRANCH  43  46
HETATM   46  C6  UNL     1      -4.523   4.198  13.741  1.00  0.00     0.104 A 
HETATM   47  C7  UNL     1      -3.912   2.984  13.798  1.00  0.00     0.093 A 
HETATM   48  C8  UNL     1      -4.020   2.177  14.919  1.00  0.00     0.208 A 
HETATM   49  O2  UNL     1      -3.444   1.044  14.962  1.00  0.00    -0.285 OA
HETATM   50  C9  UNL     1      -4.759   2.615  15.989  1.00  0.00     0.131 A 
HETATM   51  C10 UNL     1      -5.374   3.843  15.925  1.00  0.00     0.129 A 
HETATM   52  N5  UNL     1      -5.240   4.588  14.819  1.00  0.00    -0.359 N 
ATOM     53  H5  UNL     1      -5.702   5.497  14.789  1.00  0.00     0.165 HD
BRANCH  50  54
HETATM   54  O3  UNL     1      -4.888   1.833  17.129  1.00  0.00    -0.356 OA
ATOM     55  H3  UNL     1      -5.718   1.781  17.590  1.00  0.00     0.218 HD
ENDBRANCH  50  54
ENDBRANCH  43  46
ENDBRANCH  41  42
ENDBRANCH  40  41
ENDBRANCH  38  40
ENDBRANCH   4  38
TORSDOF 12
ENDMDL
MODEL 2
REMARK VINA RESULT: -8.978221301      4.315      6.768
REMARK  12 active torsions:
REMARK  status: ('A' for Active; 'I' for Inactive)
REMARK    1  A    between atoms: N1_1  and  C1_4 
REMARK    2  A    between atoms: C2_7  and  N3_8 
REMARK    3  A    between atoms: N3_8  and  C3_10 
REMARK    4  A    between atoms: C3_10  and  C4_11 
REMARK    5  A    between atoms: C4_11  and  N4_12 
REMARK       I    between atoms: N4_12  and  C5_14 
REMARK    6  A    between atoms: C5_14  and  C6_16 
REMARK    7  A    between atoms: C9_20  and  O3_21 
REMARK    8  A    between atoms: C12_31  and  N8_32 
REMARK    9  A    between atoms: C13_35  and  C14_36 
REMARK   10  A    between atoms: C15_41  and  C16_42 
REMARK   11  A    between atoms: C19_45  and  C20_46 
REMARK   12  A    between atoms: C20_46  and  N12_47 
ROOT
HETATM    1  C1  UNL     1       0.320   6.018  12.227  1.00  0.00     0.727 A 
HETATM    2  N2  UNL     1      -0.762   6.199  11.458  1.00  0.00    -0.020 N 
ATOM      3  H2  UNL     1      -1.219   5.384  11.048  1.00  0.00     0.203 HD
HETATM    4  C2  UNL     1      -1.262   7.412  11.209  1.00  0.00     0.707 A 
HETATM    5  N6  UNL     1      -0.664   8.491  11.744  1.00  0.00    -0.019 N 
ATOM      6  H6  UNL     1      -1.041   9.420  11.557  1.00  0.00     0.203 HD
HETATM    7  C11 UNL     1       0.427   8.360  12.526  1.00  0.00     0.748 A 
HETATM    8  N7  UNL     1       1.222   9.230  13.187  1.00  0.00    -0.016 N 
ATOM      9  H7  UNL     1       1.109  10.244  13.202  1.00  0.00     0.203 HD
HETATM   10  C12 UNL     1       2.191   8.536  13.826  1.00  0.00     0.736 A 
HETATM   11  N13 UNL     1       1.951   7.246  13.530  1.00  0.00    -0.093 N 
ATOM     12  H13 UNL     1       2.512   6.463  13.865  1.00  0.00     0.207 HD
HETATM   13  N14 UNL     1       0.909   7.129  12.760  1.00  0.00     0.106 N 
ENDROOT
BRANCH  10  14
HETATM   14  N8  UNL     1       3.223   9.035  14.669  1.00  0.00    -0.065 N 
HETATM   15  N9  UNL     1       2.908   9.978  15.593  1.00  0.00    -0.258 N 
HETATM   16  C13 UNL     1       3.987  10.319  16.298  1.00  0.00     0.189 A 
ATOM     17  H9  UNL     1       1.976  10.371  15.730  1.00  0.00     0.190 HD
HETATM   18  N11 UNL     1       4.980   9.582  15.807  1.00  0.00    -0.321 N 
HETATM   19  C15 UNL     1       4.496   8.780  14.788  1.00  0.00     0.157 A 
ATOM     20  H11 UNL     1       5.947   9.605  16.132  1.00  0.00     0.169 HD
BRANCH  16  21
HETATM   21  C14 UNL     1       4.043  11.302  17.380  1.00  0.00     0.300 C 
HETATM   22  N10 UNL     1       3.609  12.626  17.128  1.00  0.00    -0.054 NA
HETATM   23  O4  UNL     1       4.478  10.952  18.525  1.00  0.00    -0.268 OA
ENDBRANCH  16  21
BRANCH  19  24
HETATM   24  C16 UNL     1       5.317   7.845  14.053  1.00  0.00     0.011 A 
HETATM   25  C17 UNL     1       5.570   6.575  14.394  1.00  0.00     0.016 A 
HETATM   26  C18 UNL     1       6.410   5.762  13.605  1.00  0.00     0.010 A 
HETATM   27  C19 UNL     1       6.998   6.241  12.463  1.00  0.00    -0.033 A 
HETATM   28  C21 UNL     1       6.742   7.531  12.116  1.00  0.00     0.010 A 
HETATM   29  C22 UNL     1       5.920   8.320  12.890  1.00  0.00     0.016 A 
BRANCH  27  30
HETATM   30  C20 UNL     1       7.892   5.372  11.626  1.00  0.00     0.268 C 
BRANCH  30  31
HETATM   31  N12 UNL     1       8.508   6.155  10.575  1.00  0.00    -0.075 N 
ATOM     32 3H12 UNL     1       8.833   5.571   9.805  1.00  0.00     0.274 HD
ATOM     33 2H12 UNL     1       7.823   6.710  10.062  1.00  0.00     0.274 HD
ATOM     34 1H12 UNL     1       9.256   6.732  10.959  1.00  0.00     0.274 HD
ENDBRANCH  30  31
ENDBRANCH  27  30
ENDBRANCH  19  24
ENDBRANCH  10  14
BRANCH   1  35
HETATM   35  N1  UNL     1       0.788   4.831  12.455  1.00  0.00    -0.232 N 
ATOM     36  H12 UNL     1       0.628   4.063  11.802  1.00  0.00     0.174 HD
ATOM     37  H11 UNL     1       1.330   4.631  13.295  1.00  0.00     0.174 HD
ENDBRANCH   1  35
BRANCH   4  38
HETATM   38  N3  UNL     1      -2.304   7.532  10.465  1.00  0.00    -0.224 N 
ATOM     39  H3  UNL     1      -2.529   6.798   9.794  1.00  0.00     0.177 HD
BRANCH  38  40
HETATM   40  C3  UNL     1      -3.162   8.692  10.566  1.00  0.00     0.157 C 
BRANCH  40  41
HETATM   41  C4  UNL     1      -3.430   9.323   9.242  1.00  0.00     0.143 C 
BRANCH  41  42
HETATM   42  N4  UNL     1      -2.585  10.416   8.890  1.00  0.00    -0.354 N 
HETATM   43  C5  UNL     1      -2.340  10.877   7.589  1.00  0.00     0.268 C 
HETATM   44  O1  UNL     1      -2.918  10.278   6.627  1.00  0.00    -0.266 OA
ATOM     45  H4  UNL     1      -2.117  10.905   9.653  1.00  0.00     0.162 HD
BRANCH  43  46
HETATM   46  C6  UNL     1      -1.475  11.990   7.234  1.00  0.00     0.104 A 
HETATM   47  C7  UNL     1      -0.426  11.811   6.387  1.00  0.00     0.093 A 
HETATM   48  C8  UNL     1       0.406  12.864   6.041  1.00  0.00     0.208 A 
HETATM   49  O2  UNL     1       1.384  12.686   5.248  1.00  0.00    -0.285 OA
HETATM   50  C9  UNL     1       0.162  14.107   6.565  1.00  0.00     0.131 A 
HETATM   51  C10 UNL     1      -0.900  14.282   7.421  1.00  0.00     0.129 A 
HETATM   52  N5  UNL     1      -1.676  13.233   7.725  1.00  0.00    -0.359 N 
ATOM     53  H5  UNL     1      -2.461  13.380   8.361  1.00  0.00     0.165 HD
BRANCH  50  54
HETATM   54  O3  UNL     1       0.975  15.186   6.240  1.00  0.00    -0.356 OA
ATOM     55  H3  UNL     1       1.290  15.777   6.914  1.00  0.00     0.218 HD
ENDBRANCH  50  54
ENDBRANCH  43  46
ENDBRANCH  41  42
ENDBRANCH  40  41
ENDBRANCH  38  40
ENDBRANCH   4  38
TORSDOF 12
ENDMDL
MODEL 3
REMARK VINA RESULT: -8.855373381      1.469      1.782
REMARK  12 active torsions:
REMARK  status: ('A' for Active; 'I' for Inactive)
REMARK    1  A    between atoms: N1_1  and  C1_4 
REMARK    2  A    between atoms: C2_7  and  N3_8 
REMARK    3  A    between atoms: N3_8  and  C3_10 
REMARK    4  A    between atoms: C3_10  and  C4_11 
REMARK    5  A    between atoms: C4_11  and  N4_12 
REMARK       I    between atoms: N4_12  and  C5_14 
REMARK    6  A    between atoms: C5_14  and  C6_16 
REMARK    7  A    between atoms: C9_20  and  O3_21 
REMARK    8  A    between atoms: C12_31  and  N8_32 
REMARK    9  A    between atoms: C13_35  and  C14_36 
REMARK   10  A    between atoms: C15_41  and  C16_42 
REMARK   11  A    between atoms: C19_45  and  C20_46 
REMARK   12  A    between atoms: C20_46  and  N12_47 
ROOT
HETATM    1  C1  UNL     1       0.143   5.184  12.132  1.00  0.00     0.727 A 
HETATM    2  N2  UNL     1      -0.956   5.052  11.377  1.00  0.00    -0.020 N 
ATOM      3  H2  UNL     1      -1.262   4.116  11.111  1.00  0.00     0.203 HD
HETATM    4  C2  UNL     1      -1.664   6.105  10.962  1.00  0.00     0.707 A 
HETATM    5  N6  UNL     1      -1.266   7.342  11.308  1.00  0.00    -0.019 N 
ATOM      6  H6  UNL     1      -1.802   8.150  10.993  1.00  0.00     0.203 HD
HETATM    7  C11 UNL     1      -0.167   7.527  12.067  1.00  0.00     0.748 A 
HETATM    8  N7  UNL     1       0.463   8.614  12.564  1.00  0.00    -0.016 N 
ATOM      9  H7  UNL     1       0.172   9.582  12.427  1.00  0.00     0.203 HD
HETATM   10  C12 UNL     1       1.541   8.208  13.271  1.00  0.00     0.736 A 
HETATM   11  N13 UNL     1       1.534   6.866  13.183  1.00  0.00    -0.093 N 
ATOM     12  H13 UNL     1       2.226   6.255  13.616  1.00  0.00     0.207 HD
HETATM   13  N14 UNL     1       0.527   6.451  12.471  1.00  0.00     0.106 N 
ENDROOT
BRANCH  10  14
HETATM   14  N8  UNL     1       2.471   9.005  13.997  1.00  0.00    -0.065 N 
HETATM   15  N9  UNL     1       2.022  10.130  14.611  1.00  0.00    -0.258 N 
HETATM   16  C13 UNL     1       3.020  10.742  15.249  1.00  0.00     0.189 A 
ATOM     17  H9  UNL     1       1.057  10.461  14.588  1.00  0.00     0.190 HD
HETATM   18  N11 UNL     1       4.096   9.992  15.029  1.00  0.00    -0.321 N 
HETATM   19  C15 UNL     1       3.747   8.906  14.245  1.00  0.00     0.157 A 
ATOM     20  H11 UNL     1       5.033  10.187  15.384  1.00  0.00     0.169 HD
BRANCH  16  21
HETATM   21  C14 UNL     1       2.926  11.980  16.023  1.00  0.00     0.300 C 
HETATM   22  N10 UNL     1       3.784  12.162  17.134  1.00  0.00    -0.054 NA
HETATM   23  O4  UNL     1       2.078  12.869  15.686  1.00  0.00    -0.268 OA
ENDBRANCH  16  21
BRANCH  19  24
HETATM   24  C16 UNL     1       4.684   7.885  13.837  1.00  0.00     0.011 A 
HETATM   25  C17 UNL     1       4.624   6.584  14.149  1.00  0.00     0.016 A 
HETATM   26  C18 UNL     1       5.616   5.682  13.709  1.00  0.00     0.010 A 
HETATM   27  C19 UNL     1       6.674   6.103  12.947  1.00  0.00    -0.033 A 
HETATM   28  C21 UNL     1       6.737   7.425  12.629  1.00  0.00     0.010 A 
HETATM   29  C22 UNL     1       5.765   8.301  13.062  1.00  0.00     0.016 A 
BRANCH  27  30
HETATM   30  C20 UNL     1       7.728   5.140  12.481  1.00  0.00     0.268 C 
BRANCH  30  31
HETATM   31  N12 UNL     1       7.445   4.707  11.128  1.00  0.00    -0.075 N 
ATOM     32 3H12 UNL     1       6.942   5.417  10.597  1.00  0.00     0.274 HD
ATOM     33 2H12 UNL     1       8.289   4.664  10.557  1.00  0.00     0.274 HD
ATOM     34 1H12 UNL     1       6.948   3.816  11.141  1.00  0.00     0.274 HD
ENDBRANCH  30  31
ENDBRANCH  27  30
ENDBRANCH  19  24
ENDBRANCH  10  14
BRANCH   1  35
HETATM   35  N1  UNL     1       0.815   4.148  12.524  1.00  0.00    -0.232 N 
ATOM     36  H12 UNL     1       0.346   3.293  12.825  1.00  0.00     0.174 HD
ATOM     37  H11 UNL     1       1.835   4.158  12.543  1.00  0.00     0.174 HD
ENDBRANCH   1  35
BRANCH   4  38
HETATM   38  N3  UNL     1      -2.713   5.924  10.241  1.00  0.00    -0.224 N 
ATOM     39  H3  UNL     1      -2.867   6.513   9.423  1.00  0.00     0.177 HD
BRANCH  38  40
HETATM   40  C3  UNL     1      -3.677   4.898  10.570  1.00  0.00     0.157 C 
BRANCH  40  41
HETATM   41  C4  UNL     1      -4.266   5.080  11.928  1.00  0.00     0.143 C 
BRANCH  41  42
HETATM   42  N4  UNL     1      -3.914   4.095  12.897  1.00  0.00    -0.354 N 
HETATM   43  C5  UNL     1      -4.635   3.793  14.059  1.00  0.00     0.268 C 
HETATM   44  O1  UNL     1      -5.704   4.447  14.281  1.00  0.00    -0.266 OA
ATOM     45  H4  UNL     1      -3.059   3.563  12.729  1.00  0.00     0.162 HD
BRANCH  43  46
HETATM   46  C6  UNL     1      -4.271   2.790  15.047  1.00  0.00     0.104 A 
HETATM   47  C7  UNL     1      -4.057   3.139  16.343  1.00  0.00     0.093 A 
HETATM   48  C8  UNL     1      -3.709   2.192  17.293  1.00  0.00     0.208 A 
HETATM   49  O2  UNL     1      -3.510   2.528  18.504  1.00  0.00    -0.285 OA
HETATM   50  C9  UNL     1      -3.580   0.880  16.914  1.00  0.00     0.131 A 
HETATM   51  C10 UNL     1      -3.798   0.534  15.601  1.00  0.00     0.129 A 
HETATM   52  N5  UNL     1      -4.133   1.486  14.718  1.00  0.00    -0.359 N 
ATOM     53  H5  UNL     1      -4.293   1.212  13.749  1.00  0.00     0.165 HD
BRANCH  50  54
HETATM   54  O3  UNL     1      -3.233  -0.095  17.839  1.00  0.00    -0.356 OA
ATOM     55  H3  UNL     1      -2.863  -0.923  17.556  1.00  0.00     0.218 HD
ENDBRANCH  50  54
ENDBRANCH  43  46
ENDBRANCH  41  42
ENDBRANCH  40  41
ENDBRANCH  38  40
ENDBRANCH   4  38
TORSDOF 12
ENDMDL
MODEL 4
REMARK VINA RESULT: -8.826887508      5.317      8.931
REMARK  12 active torsions:
REMARK  status: ('A' for Active; 'I' for Inactive)
REMARK    1  A    between atoms: N1_1  and  C1_4 
REMARK    2  A    between atoms: C2_7  and  N3_8 
REMARK    3  A    between atoms: N3_8  and  C3_10 
REMARK    4  A    between atoms: C3_10  and  C4_11 
REMARK    5  A    between atoms: C4_11  and  N4_12 
REMARK       I    between atoms: N4_12  and  C5_14 
REMARK    6  A    between atoms: C5_14  and  C6_16 
REMARK    7  A    between atoms: C9_20  and  O3_21 
REMARK    8  A    between atoms: C12_31  and  N8_32 
REMARK    9  A    between atoms: C13_35  and  C14_36 
REMARK   10  A    between atoms: C15_41  and  C16_42 
REMARK   11  A    between atoms: C19_45  and  C20_46 
REMARK   12  A    between atoms: C20_46  and  N12_47 
ROOT
HETATM    1  C1  UNL     1       3.000  13.730  13.318  1.00  0.00     0.727 A 
HETATM    2  N2  UNL     1       3.145  14.493  12.226  1.00  0.00    -0.020 N 
ATOM      3  H2  UNL     1       2.902  15.483  12.279  1.00  0.00     0.203 HD
HETATM    4  C2  UNL     1       3.597  14.001  11.070  1.00  0.00     0.707 A 
HETATM    5  N6  UNL     1       3.918  12.698  10.992  1.00  0.00    -0.019 N 
ATOM      6  H6  UNL     1       4.263  12.316  10.111  1.00  0.00     0.203 HD
HETATM    7  C11 UNL     1       3.790  11.889  12.063  1.00  0.00     0.748 A 
HETATM    8  N7  UNL     1       4.026  10.577  12.287  1.00  0.00    -0.016 N 
ATOM      9  H7  UNL     1       4.381   9.913  11.599  1.00  0.00     0.203 HD
HETATM   10  C12 UNL     1       3.714  10.292  13.571  1.00  0.00     0.736 A 
HETATM   11  N13 UNL     1       3.293  11.456  14.098  1.00  0.00    -0.093 N 
ATOM     12  H13 UNL     1       2.984  11.575  15.062  1.00  0.00     0.207 HD
HETATM   13  N14 UNL     1       3.333  12.409  13.213  1.00  0.00     0.106 N 
ENDROOT
BRANCH  10  14
HETATM   14  N8  UNL     1       3.839   9.048  14.253  1.00  0.00    -0.065 N 
HETATM   15  N9  UNL     1       4.829   8.908  15.172  1.00  0.00    -0.258 N 
HETATM   16  C13 UNL     1       4.789   7.692  15.716  1.00  0.00     0.189 A 
ATOM     17  H9  UNL     1       5.508   9.630  15.412  1.00  0.00     0.190 HD
HETATM   18  N11 UNL     1       3.767   7.073  15.132  1.00  0.00    -0.321 N 
HETATM   19  C15 UNL     1       3.175   7.927  14.217  1.00  0.00     0.157 A 
ATOM     20  H11 UNL     1       3.466   6.117  15.327  1.00  0.00     0.169 HD
BRANCH  16  21
HETATM   21  C14 UNL     1       5.692   7.169  16.742  1.00  0.00     0.300 C 
HETATM   22  N10 UNL     1       7.089   7.340  16.578  1.00  0.00    -0.054 NA
HETATM   23  O4  UNL     1       5.211   6.574  17.759  1.00  0.00    -0.268 OA
ENDBRANCH  16  21
BRANCH  19  24
HETATM   24  C16 UNL     1       2.025   7.567  13.421  1.00  0.00     0.011 A 
HETATM   25  C17 UNL     1       1.143   8.415  12.874  1.00  0.00     0.016 A 
HETATM   26  C18 UNL     1       0.040   7.941  12.133  1.00  0.00     0.010 A 
HETATM   27  C19 UNL     1      -0.170   6.600  11.946  1.00  0.00    -0.033 A 
HETATM   28  C21 UNL     1       0.724   5.738  12.501  1.00  0.00     0.010 A 
HETATM   29  C22 UNL     1       1.800   6.206  13.223  1.00  0.00     0.016 A 
BRANCH  27  30
HETATM   30  C20 UNL     1      -1.346   6.101  11.156  1.00  0.00     0.268 C 
BRANCH  30  31
HETATM   31  N12 UNL     1      -1.853   4.874  11.737  1.00  0.00    -0.075 N 
ATOM     32 3H12 UNL     1      -1.998   4.960  12.743  1.00  0.00     0.274 HD
ATOM     33 2H12 UNL     1      -2.818   4.693  11.462  1.00  0.00     0.274 HD
ATOM     34 1H12 UNL     1      -1.237   4.095  11.506  1.00  0.00     0.274 HD
ENDBRANCH  30  31
ENDBRANCH  27  30
ENDBRANCH  19  24
ENDBRANCH  10  14
BRANCH   1  35
HETATM   35  N1  UNL     1       2.559  14.229  14.429  1.00  0.00    -0.232 N 
ATOM     36  H12 UNL     1       1.943  15.042  14.439  1.00  0.00     0.174 HD
ATOM     37  H11 UNL     1       2.816  13.822  15.328  1.00  0.00     0.174 HD
ENDBRANCH   1  35
BRANCH   4  38
HETATM   38  N3  UNL     1       3.720  14.776  10.052  1.00  0.00    -0.224 N 
ATOM     39  H3  UNL     1       3.961  14.378   9.144  1.00  0.00     0.177 HD
BRANCH  38  40
HETATM   40  C3  UNL     1       3.522  16.203  10.172  1.00  0.00     0.157 C 
BRANCH  40  41
HETATM   41  C4  UNL     1       2.201  16.646   9.641  1.00  0.00     0.143 C 
BRANCH  41  42
HETATM   42  N4  UNL     1       1.517  15.708   8.811  1.00  0.00    -0.354 N 
HETATM   43  C5  UNL     1       0.610  14.734   9.249  1.00  0.00     0.268 C 
HETATM   44  O1  UNL     1       0.363  14.671  10.496  1.00  0.00    -0.266 OA
ATOM     45  H4  UNL     1       1.706  15.750   7.810  1.00  0.00     0.162 HD
BRANCH  43  46
HETATM   46  C6  UNL     1      -0.082  13.778   8.401  1.00  0.00     0.104 A 
HETATM   47  C7  UNL     1       0.602  13.028   7.498  1.00  0.00     0.093 A 
HETATM   48  C8  UNL     1      -0.046  12.114   6.684  1.00  0.00     0.208 A 
HETATM   49  O2  UNL     1       0.604  11.417   5.842  1.00  0.00    -0.285 OA
HETATM   50  C9  UNL     1      -1.405  11.967   6.795  1.00  0.00     0.131 A 
HETATM   51  C10 UNL     1      -2.093  12.728   7.711  1.00  0.00     0.129 A 
HETATM   52  N5  UNL     1      -1.421  13.599   8.476  1.00  0.00    -0.359 N 
ATOM     53  H5  UNL     1      -1.946  14.156   9.151  1.00  0.00     0.165 HD
BRANCH  50  54
HETATM   54  O3  UNL     1      -2.089  11.060   5.995  1.00  0.00    -0.356 OA
ATOM     55  H3  UNL     1      -2.678  11.361   5.313  1.00  0.00     0.218 HD
ENDBRANCH  50  54
ENDBRANCH  43  46
ENDBRANCH  41  42
ENDBRANCH  40  41
ENDBRANCH  38  40
ENDBRANCH   4  38
TORSDOF 12
ENDMDL
MODEL 5
REMARK VINA RESULT: -8.713037682      3.614      6.030
REMARK  12 active torsions:
REMARK  status: ('A' for Active; 'I' for Inactive)
REMARK    1  A    between atoms: N1_1  and  C1_4 
REMARK    2  A    between atoms: C2_7  and  N3_8 
REMARK    3  A    between atoms: N3_8  and  C3_10 
REMARK    4  A    between atoms: C3_10  and  C4_11 
REMARK    5  A    between atoms: C4_11  and  N4_12 
REMARK       I    between atoms: N4_12  and  C5_14 
REMARK    6  A    between atoms: C5_14  and  C6_16 
REMARK    7  A    between atoms: C9_20  and  O3_21 
REMARK    8  A    between atoms: C12_31  and  N8_32 
REMARK    9  A    between atoms: C13_35  and  C14_36 
REMARK   10  A    between atoms: C15_41  and  C16_42 
REMARK   11  A    between atoms: C19_45  and  C20_46 
REMARK   12  A    between atoms: C20_46  and  N12_47 
ROOT
HETATM    1  C1  UNL     1       0.306   5.492  12.222  1.00  0.00     0.727 A 
HETATM    2  N2  UNL     1      -0.776   5.633  11.445  1.00  0.00    -0.020 N 
ATOM      3  H2  UNL     1      -1.219   4.799  11.059  1.00  0.00     0.203 HD
HETATM    4  C2  UNL     1      -1.295   6.830  11.160  1.00  0.00     0.707 A 
HETATM    5  N6  UNL     1      -0.716   7.934  11.664  1.00  0.00    -0.019 N 
ATOM      6  H6  UNL     1      -1.107   8.851  11.449  1.00  0.00     0.203 HD
HETATM    7  C11 UNL     1       0.375   7.844  12.452  1.00  0.00     0.748 A 
HETATM    8  N7  UNL     1       1.154   8.746  13.089  1.00  0.00    -0.016 N 
ATOM      9  H7  UNL     1       1.024   9.757  13.073  1.00  0.00     0.203 HD
HETATM   10  C12 UNL     1       2.132   8.087  13.750  1.00  0.00     0.736 A 
HETATM   11  N13 UNL     1       1.914   6.784  13.492  1.00  0.00    -0.093 N 
ATOM     12  H13 UNL     1       2.487   6.021  13.851  1.00  0.00     0.207 HD
HETATM   13  N14 UNL     1       0.876   6.628  12.723  1.00  0.00     0.106 N 
ENDROOT
BRANCH  10  14
HETATM   14  N8  UNL     1       3.154   8.627  14.580  1.00  0.00    -0.065 N 
HETATM   15  N9  UNL     1       2.809   9.541  15.523  1.00  0.00    -0.258 N 
HETATM   16  C13 UNL     1       3.883   9.927  16.211  1.00  0.00     0.189 A 
ATOM     17  H9  UNL     1       1.862   9.884  15.683  1.00  0.00     0.190 HD
HETATM   18  N11 UNL     1       4.902   9.249  15.692  1.00  0.00    -0.321 N 
HETATM   19  C15 UNL     1       4.440   8.436  14.671  1.00  0.00     0.157 A 
ATOM     20  H11 UNL     1       5.873   9.317  15.999  1.00  0.00     0.169 HD
BRANCH  16  21
HETATM   21  C14 UNL     1       3.910  10.898  17.306  1.00  0.00     0.300 C 
HETATM   22  N10 UNL     1       3.917  12.280  16.998  1.00  0.00    -0.054 NA
HETATM   23  O4  UNL     1       3.926  10.486  18.511  1.00  0.00    -0.268 OA
ENDBRANCH  16  21
BRANCH  19  24
HETATM   24  C16 UNL     1       5.293   7.554  13.909  1.00  0.00     0.011 A 
HETATM   25  C17 UNL     1       5.408   6.229  14.069  1.00  0.00     0.016 A 
HETATM   26  C18 UNL     1       6.296   5.473  13.275  1.00  0.00     0.010 A 
HETATM   27  C19 UNL     1       7.072   6.065  12.314  1.00  0.00    -0.033 A 
HETATM   28  C21 UNL     1       6.957   7.411  12.150  1.00  0.00     0.010 A 
HETATM   29  C22 UNL     1       6.088   8.144  12.928  1.00  0.00     0.016 A 
BRANCH  27  30
HETATM   30  C20 UNL     1       8.017   5.257  11.472  1.00  0.00     0.268 C 
BRANCH  30  31
HETATM   31  N12 UNL     1       8.533   6.064  10.385  1.00  0.00    -0.075 N 
ATOM     32 3H12 UNL     1       8.313   7.052  10.506  1.00  0.00     0.274 HD
ATOM     33 2H12 UNL     1       9.550   6.133  10.411  1.00  0.00     0.274 HD
ATOM     34 1H12 UNL     1       8.198   5.705   9.491  1.00  0.00     0.274 HD
ENDBRANCH  30  31
ENDBRANCH  27  30
ENDBRANCH  19  24
ENDBRANCH  10  14
BRANCH   1  35
HETATM   35  N1  UNL     1       0.793   4.321  12.486  1.00  0.00    -0.232 N 
ATOM     36  H12 UNL     1       1.538   3.915  11.919  1.00  0.00     0.174 HD
ATOM     37  H11 UNL     1       0.444   3.769  13.269  1.00  0.00     0.174 HD
ENDBRANCH   1  35
BRANCH   4  38
HETATM   38  N3  UNL     1      -2.337   6.911  10.411  1.00  0.00    -0.224 N 
ATOM     39  H3  UNL     1      -2.273   6.636   9.431  1.00  0.00     0.177 HD
BRANCH  38  40
HETATM   40  C3  UNL     1      -3.597   7.387  10.935  1.00  0.00     0.157 C 
BRANCH  40  41
HETATM   41  C4  UNL     1      -4.586   7.692   9.862  1.00  0.00     0.143 C 
BRANCH  41  42
HETATM   42  N4  UNL     1      -4.319   8.854   9.081  1.00  0.00    -0.354 N 
HETATM   43  C5  UNL     1      -3.633   8.881   7.859  1.00  0.00     0.268 C 
HETATM   44  O1  UNL     1      -3.207   7.776   7.393  1.00  0.00    -0.266 OA
ATOM     45  H4  UNL     1      -4.657   9.746   9.443  1.00  0.00     0.162 HD
BRANCH  43  46
HETATM   46  C6  UNL     1      -3.359  10.068   7.066  1.00  0.00     0.104 A 
HETATM   47  C7  UNL     1      -2.359  10.920   7.415  1.00  0.00     0.093 A 
HETATM   48  C8  UNL     1      -2.089  12.055   6.668  1.00  0.00     0.208 A 
HETATM   49  O2  UNL     1      -1.151  12.846   7.003  1.00  0.00    -0.285 OA
HETATM   50  C9  UNL     1      -2.847  12.319   5.556  1.00  0.00     0.131 A 
HETATM   51  C10 UNL     1      -3.857  11.453   5.208  1.00  0.00     0.129 A 
HETATM   52  N5  UNL     1      -4.080  10.368   5.962  1.00  0.00    -0.359 N 
ATOM     53  H5  UNL     1      -4.832   9.735   5.690  1.00  0.00     0.165 HD
BRANCH  50  54
HETATM   54  O3  UNL     1      -2.604  13.447   4.783  1.00  0.00    -0.356 OA
ATOM     55  H3  UNL     1      -2.021  13.406   4.034  1.00  0.00     0.218 HD
ENDBRANCH  50  54
ENDBRANCH  43  46
ENDBRANCH  41  42
ENDBRANCH  40  41
ENDBRANCH  38  40
ENDBRANCH   4  38
TORSDOF 12
ENDMDL
