MODEL 1
REMARK VINA RESULT: -7.280519347      0.000      0.000
REMARK  12 active torsions:
REMARK  status: ('A' for Active; 'I' for Inactive)
REMARK    1  A    between atoms: C2_3  and  C3_4 
REMARK    2  A    between atoms: C3_4  and  O1_5 
REMARK    3  A    between atoms: C3_4  and  C5_8 
REMARK       I    between atoms: C5_8  and  N3_10 
REMARK    4  A    between atoms: N3_10  and  C6_12 
REMARK    5  A    between atoms: C6_12  and  C7_13 
REMARK       I    between atoms: C7_13  and  N4_15 
REMARK    6  A    between atoms: N4_15  and  C8_17 
REMARK    7  A    between atoms: C12_30  and  N9_31 
REMARK    8  A    between atoms: N9_31  and  N10_33 
REMARK    9  A    between atoms: N10_33  and  C13_35 
REMARK   10  A    between atoms: C13_35  and  C14_36 
REMARK   11  A    between atoms: C14_36  and  O4_37 
REMARK   12  A    between atoms: C17_43  and  N12_44 
ROOT
HETATM    1  O1  UNL     1       3.533   7.978  15.875  1.00  0.00    -0.260 OA
HETATM    2  C4  UNL     1       4.000   7.268  16.915  1.00  0.00     0.229 C 
HETATM    3  N2  UNL     1       4.388   6.672  17.818  1.00  0.00    -0.164 NA
ENDROOT
BRANCH   1   4
HETATM    4  C3  UNL     1       3.912   7.819  14.530  1.00  0.00     0.301 C 
BRANCH   4   5
HETATM    5  C2  UNL     1       2.745   7.281  13.801  1.00  0.00     0.126 A 
HETATM    6  N1  UNL     1       2.436   5.996  13.541  1.00  0.00    -0.323 N 
HETATM    7  C1  UNL     1       3.241   4.876  13.951  1.00  0.00     0.159 C 
HETATM    8  C19 UNL     1       1.281   6.009  12.854  1.00  0.00     0.140 A 
HETATM    9  C16 UNL     1       0.862   7.320  12.685  1.00  0.00     0.122 A 
HETATM   10  N14 UNL     1       0.550   4.989  12.360  1.00  0.00    -0.336 N 
HETATM   11  N11 UNL     1       1.784   8.061  13.277  1.00  0.00    -0.337 N 
HETATM   12  C17 UNL     1      -0.305   7.590  12.007  1.00  0.00     0.131 A 
ATOM     13  H11 UNL     1       1.768   9.079  13.329  1.00  0.00     0.167 HD
HETATM   14  N13 UNL     1      -1.006   6.548  11.529  1.00  0.00    -0.337 N 
HETATM   15  C18 UNL     1      -0.584   5.281  11.703  1.00  0.00     0.183 A 
ATOM     16  H13 UNL     1      -1.875   6.721  11.023  1.00  0.00     0.168 HD
ATOM     17  H14 UNL     1       0.850   4.022  12.481  1.00  0.00     0.168 HD
BRANCH  12  18
HETATM   18  N12 UNL     1      -0.720   8.794  11.833  1.00  0.00    -0.383 N 
ATOM     19 2H12 UNL     1      -0.095   9.586  11.983  1.00  0.00     0.157 HD
ATOM     20 1H12 UNL     1      -1.677   8.993  11.543  1.00  0.00     0.157 HD
ENDBRANCH  12  18
ENDBRANCH   4   5
BRANCH   4  21
HETATM   21  C5  UNL     1       4.467   9.037  13.927  1.00  0.00     0.256 C 
HETATM   22  O2  UNL     1       4.454   9.246  12.686  1.00  0.00    -0.270 OA
HETATM   23  N3  UNL     1       5.050  10.039  14.746  1.00  0.00    -0.350 N 
ATOM     24  H3  UNL     1       5.072   9.893  15.755  1.00  0.00     0.163 HD
BRANCH  23  25
HETATM   25  C6  UNL     1       5.614  11.260  14.207  1.00  0.00     0.225 C 
BRANCH  25  26
HETATM   26  C7  UNL     1       4.629  12.368  14.217  1.00  0.00     0.240 C 
HETATM   27  O3  UNL     1       4.413  12.948  15.311  1.00  0.00    -0.271 OA
HETATM   28  N4  UNL     1       3.948  12.765  13.035  1.00  0.00    -0.311 N 
ATOM     29  H4  UNL     1       4.423  13.324  12.325  1.00  0.00     0.170 HD
BRANCH  28  30
HETATM   30  C8  UNL     1       2.720  12.409  12.875  1.00  0.00     0.128 A 
HETATM   31  N5  UNL     1       1.964  11.995  13.909  1.00  0.00    -0.318 N 
HETATM   32  C9  UNL     1       0.689  11.636  13.677  1.00  0.00     0.179 A 
ATOM     33  H5  UNL     1       2.352  11.955  14.852  1.00  0.00     0.170 HD
HETATM   34  S1  UNL     1      -0.186  11.143  14.965  1.00  0.00    -0.040 SA
HETATM   35  N6  UNL     1       0.132  11.670  12.454  1.00  0.00    -0.318 N 
HETATM   36  C10 UNL     1       0.836  12.072  11.383  1.00  0.00     0.126 A 
ATOM     37  H6  UNL     1      -0.841  11.385  12.338  1.00  0.00     0.170 HD
HETATM   38  N7  UNL     1       0.327  12.123  10.146  1.00  0.00    -0.338 N 
HETATM   39  C15 UNL     1       2.163  12.449  11.611  1.00  0.00     0.098 A 
HETATM   40  C11 UNL     1       1.100  12.539   9.129  1.00  0.00     0.183 A 
ATOM     41  H7  UNL     1      -0.641  11.848   9.977  1.00  0.00     0.168 HD
HETATM   42  N8  UNL     1       2.375  12.904   9.326  1.00  0.00    -0.337 N 
HETATM   43  C12 UNL     1       2.924  12.870  10.541  1.00  0.00     0.138 A 
ATOM     44  H8  UNL     1       2.935  13.214   8.532  1.00  0.00     0.168 HD
BRANCH  43  45
HETATM   45  N9  UNL     1       4.144  13.210  10.783  1.00  0.00    -0.289 N 
ATOM     46  H9  UNL     1       4.629  12.851  11.606  1.00  0.00     0.188 HD
BRANCH  45  47
HETATM   47  N10 UNL     1       4.791  14.078   9.903  1.00  0.00    -0.333 N 
ATOM     48  H10 UNL     1       5.030  13.732   8.974  1.00  0.00     0.180 HD
BRANCH  47  49
HETATM   49  C13 UNL     1       5.137  15.429  10.232  1.00  0.00     0.165 C 
BRANCH  49  50
HETATM   50  C14 UNL     1       4.223  16.021  11.287  1.00  0.00     0.185 C 
BRANCH  50  51
HETATM   51  O4  UNL     1       4.625  15.634  12.555  1.00  0.00    -0.399 OA
ATOM     52  H4  UNL     1       3.905  15.705  13.171  1.00  0.00     0.209 HD
ENDBRANCH  50  51
ENDBRANCH  49  50
ENDBRANCH  47  49
ENDBRANCH  45  47
ENDBRANCH  43  45
ENDBRANCH  28  30
ENDBRANCH  25  26
ENDBRANCH  23  25
ENDBRANCH   4  21
ENDBRANCH   1   4
TORSDOF 12
ENDMDL
MODEL 2
REMARK VINA RESULT: -7.134619801      2.956      4.445
REMARK  12 active torsions:
REMARK  status: ('A' for Active; 'I' for Inactive)
REMARK    1  A    between atoms: C2_3  and  C3_4 
REMARK    2  A    between atoms: C3_4  and  O1_5 
REMARK    3  A    between atoms: C3_4  and  C5_8 
REMARK       I    between atoms: C5_8  and  N3_10 
REMARK    4  A    between atoms: N3_10  and  C6_12 
REMARK    5  A    between atoms: C6_12  and  C7_13 
REMARK       I    between atoms: C7_13  and  N4_15 
REMARK    6  A    between atoms: N4_15  and  C8_17 
REMARK    7  A    between atoms: C12_30  and  N9_31 
REMARK    8  A    between atoms: N9_31  and  N10_33 
REMARK    9  A    between atoms: N10_33  and  C13_35 
REMARK   10  A    between atoms: C13_35  and  C14_36 
REMARK   11  A    between atoms: C14_36  and  O4_37 
REMARK   12  A    between atoms: C17_43  and  N12_44 
ROOT
HETATM    1  O1  UNL     1       5.635  10.614  14.777  1.00  0.00    -0.260 OA
HETATM    2  C4  UNL     1       6.006  11.891  14.969  1.00  0.00     0.229 C 
HETATM    3  N2  UNL     1       6.328  12.979  15.153  1.00  0.00    -0.164 NA
ENDROOT
BRANCH   1   4
HETATM    4  C3  UNL     1       5.128  10.072  13.583  1.00  0.00     0.301 C 
BRANCH   4   5
HETATM    5  C2  UNL     1       5.730   8.735  13.411  1.00  0.00     0.126 A 
HETATM    6  N1  UNL     1       5.826   7.734  14.307  1.00  0.00    -0.323 N 
HETATM    7  C1  UNL     1       5.332   7.812  15.656  1.00  0.00     0.159 C 
HETATM    8  C19 UNL     1       6.450   6.718  13.686  1.00  0.00     0.140 A 
HETATM    9  C16 UNL     1       6.747   7.089  12.383  1.00  0.00     0.122 A 
HETATM   10  N14 UNL     1       6.787   5.494  14.140  1.00  0.00    -0.336 N 
HETATM   11  N11 UNL     1       6.291   8.325  12.259  1.00  0.00    -0.337 N 
HETATM   12  C17 UNL     1       7.390   6.209  11.544  1.00  0.00     0.131 A 
ATOM     13  H11 UNL     1       6.355   8.888  11.411  1.00  0.00     0.167 HD
HETATM   14  N13 UNL     1       7.710   4.999  12.032  1.00  0.00    -0.337 N 
HETATM   15  C18 UNL     1       7.413   4.656  13.301  1.00  0.00     0.183 A 
ATOM     16  H13 UNL     1       8.186   4.327  11.431  1.00  0.00     0.168 HD
ATOM     17  H14 UNL     1       6.571   5.213  15.097  1.00  0.00     0.168 HD
BRANCH  12  18
HETATM   18  N12 UNL     1       7.679   6.523  10.331  1.00  0.00    -0.383 N 
ATOM     19 2H12 UNL     1       6.977   6.453   9.594  1.00  0.00     0.157 HD
ATOM     20 1H12 UNL     1       8.609   6.850  10.071  1.00  0.00     0.157 HD
ENDBRANCH  12  18
ENDBRANCH   4   5
BRANCH   4  21
HETATM   21  C5  UNL     1       3.662  10.067  13.515  1.00  0.00     0.256 C 
HETATM   22  O2  UNL     1       3.014   9.169  12.916  1.00  0.00    -0.270 OA
HETATM   23  N3  UNL     1       2.913  11.099  14.137  1.00  0.00    -0.350 N 
ATOM     24  H3  UNL     1       3.415  11.838  14.629  1.00  0.00     0.163 HD
BRANCH  23  25
HETATM   25  C6  UNL     1       1.465  11.146  14.102  1.00  0.00     0.225 C 
BRANCH  25  26
HETATM   26  C7  UNL     1       0.975  12.247  13.239  1.00  0.00     0.240 C 
HETATM   27  O3  UNL     1       0.339  13.182  13.790  1.00  0.00    -0.271 OA
HETATM   28  N4  UNL     1       1.212  12.253  11.838  1.00  0.00    -0.311 N 
ATOM     29  H4  UNL     1       2.129  12.502  11.468  1.00  0.00     0.170 HD
BRANCH  28  30
HETATM   30  C8  UNL     1       0.247  11.940  11.044  1.00  0.00     0.128 A 
HETATM   31  N5  UNL     1      -0.953  11.547  11.510  1.00  0.00    -0.318 N 
HETATM   32  C9  UNL     1      -1.920  11.233  10.629  1.00  0.00     0.179 A 
ATOM     33  H5  UNL     1      -1.127  11.489  12.514  1.00  0.00     0.170 HD
HETATM   34  S1  UNL     1      -3.358  10.764  11.247  1.00  0.00    -0.040 SA
HETATM   35  N6  UNL     1      -1.743  11.292   9.299  1.00  0.00    -0.318 N 
HETATM   36  C10 UNL     1      -0.567  11.675   8.773  1.00  0.00     0.126 A 
ATOM     37  H6  UNL     1      -2.513  11.041   8.678  1.00  0.00     0.170 HD
HETATM   38  N7  UNL     1      -0.341  11.749   7.455  1.00  0.00    -0.338 N 
HETATM   39  C15 UNL     1       0.446  12.005   9.678  1.00  0.00     0.098 A 
HETATM   40  C11 UNL     1       0.865  12.144   7.012  1.00  0.00     0.183 A 
ATOM     41  H7  UNL     1      -1.078  11.508   6.793  1.00  0.00     0.168 HD
HETATM   42  N8  UNL     1       1.850  12.464   7.864  1.00  0.00    -0.337 N 
HETATM   43  C12 UNL     1       1.670  12.405   9.184  1.00  0.00     0.138 A 
ATOM     44  H8  UNL     1       2.754  12.758   7.494  1.00  0.00     0.168 HD
BRANCH  43  45
HETATM   45  N9  UNL     1       2.584  12.702  10.043  1.00  0.00    -0.289 N 
ATOM     46  H9  UNL     1       2.406  12.605  11.044  1.00  0.00     0.188 HD
BRANCH  45  47
HETATM   47  N10 UNL     1       3.819  13.158   9.585  1.00  0.00    -0.333 N 
ATOM     48  H10 UNL     1       4.153  12.822   8.682  1.00  0.00     0.180 HD
BRANCH  47  49
HETATM   49  C13 UNL     1       4.647  14.075  10.313  1.00  0.00     0.165 C 
BRANCH  49  50
HETATM   50  C14 UNL     1       4.061  14.437  11.664  1.00  0.00     0.185 C 
BRANCH  50  51
HETATM   51  O4  UNL     1       4.247  13.406  12.570  1.00  0.00    -0.399 OA
ATOM     52  H4  UNL     1       3.879  13.632  13.416  1.00  0.00     0.209 HD
ENDBRANCH  50  51
ENDBRANCH  49  50
ENDBRANCH  47  49
ENDBRANCH  45  47
ENDBRANCH  43  45
ENDBRANCH  28  30
ENDBRANCH  25  26
ENDBRANCH  23  25
ENDBRANCH   4  21
ENDBRANCH   1   4
TORSDOF 12
ENDMDL
MODEL 3
REMARK VINA RESULT: -7.065756085      3.446      6.378
REMARK  12 active torsions:
REMARK  status: ('A' for Active; 'I' for Inactive)
REMARK    1  A    between atoms: C2_3  and  C3_4 
REMARK    2  A    between atoms: C3_4  and  O1_5 
REMARK    3  A    between atoms: C3_4  and  C5_8 
REMARK       I    between atoms: C5_8  and  N3_10 
REMARK    4  A    between atoms: N3_10  and  C6_12 
REMARK    5  A    between atoms: C6_12  and  C7_13 
REMARK       I    between atoms: C7_13  and  N4_15 
REMARK    6  A    between atoms: N4_15  and  C8_17 
REMARK    7  A    between atoms: C12_30  and  N9_31 
REMARK    8  A    between atoms: N9_31  and  N10_33 
REMARK    9  A    between atoms: N10_33  and  C13_35 
REMARK   10  A    between atoms: C13_35  and  C14_36 
REMARK   11  A    between atoms: C14_36  and  O4_37 
REMARK   12  A    between atoms: C17_43  and  N12_44 
ROOT
HETATM    1  O1  UNL     1       5.527   7.520  16.558  1.00  0.00    -0.260 OA
HETATM    2  C4  UNL     1       4.419   7.344  17.297  1.00  0.00     0.229 C 
HETATM    3  N2  UNL     1       3.481   7.178  17.939  1.00  0.00    -0.164 NA
ENDROOT
BRANCH   1   4
HETATM    4  C3  UNL     1       5.680   8.439  15.505  1.00  0.00     0.301 C 
BRANCH   4   5
HETATM    5  C2  UNL     1       6.160   7.690  14.327  1.00  0.00     0.126 A 
HETATM    6  N1  UNL     1       6.262   8.105  13.050  1.00  0.00    -0.323 N 
HETATM    7  C1  UNL     1       5.894   9.421  12.600  1.00  0.00     0.159 C 
HETATM    8  C19 UNL     1       6.753   7.070  12.346  1.00  0.00     0.140 A 
HETATM    9  C16 UNL     1       6.962   5.994  13.196  1.00  0.00     0.122 A 
HETATM   10  N14 UNL     1       7.040   6.969  11.033  1.00  0.00    -0.336 N 
HETATM   11  N11 UNL     1       6.587   6.416  14.393  1.00  0.00    -0.337 N 
HETATM   12  C17 UNL     1       7.464   4.812  12.702  1.00  0.00     0.131 A 
ATOM     13  H11 UNL     1       6.617   5.855  15.244  1.00  0.00     0.167 HD
HETATM   14  N13 UNL     1       7.738   4.748  11.388  1.00  0.00    -0.337 N 
HETATM   15  C18 UNL     1       7.528   5.804  10.578  1.00  0.00     0.183 A 
ATOM     16  H13 UNL     1       8.111   3.884  10.997  1.00  0.00     0.168 HD
ATOM     17  H14 UNL     1       6.891   7.755  10.401  1.00  0.00     0.168 HD
BRANCH  12  18
HETATM   18  N12 UNL     1       7.668   3.797  13.464  1.00  0.00    -0.383 N 
ATOM     19 2H12 UNL     1       8.579   3.646  13.897  1.00  0.00     0.157 HD
ATOM     20 1H12 UNL     1       6.933   3.118  13.657  1.00  0.00     0.157 HD
ENDBRANCH  12  18
ENDBRANCH   4   5
BRANCH   4  21
HETATM   21  C5  UNL     1       4.476   9.236  15.240  1.00  0.00     0.256 C 
HETATM   22  O2  UNL     1       4.463  10.493  15.316  1.00  0.00    -0.270 OA
HETATM   23  N3  UNL     1       3.259   8.598  14.883  1.00  0.00    -0.350 N 
ATOM     24  H3  UNL     1       3.243   7.581  14.815  1.00  0.00     0.163 HD
BRANCH  23  25
HETATM   25  C6  UNL     1       2.041   9.332  14.612  1.00  0.00     0.225 C 
BRANCH  25  26
HETATM   26  C7  UNL     1       1.724   9.350  13.163  1.00  0.00     0.240 C 
HETATM   27  O3  UNL     1       2.205  10.283  12.471  1.00  0.00    -0.271 OA
HETATM   28  N4  UNL     1       0.906   8.350  12.571  1.00  0.00    -0.311 N 
ATOM     29  H4  UNL     1       1.280   7.420  12.379  1.00  0.00     0.170 HD
BRANCH  28  30
HETATM   30  C8  UNL     1      -0.315   8.638  12.280  1.00  0.00     0.128 A 
HETATM   31  N5  UNL     1      -0.772   9.904  12.322  1.00  0.00    -0.318 N 
HETATM   32  C9  UNL     1      -2.058  10.140  12.006  1.00  0.00     0.179 A 
ATOM     33  H5  UNL     1      -0.153  10.670  12.587  1.00  0.00     0.170 HD
HETATM   34  S1  UNL     1      -2.561  11.693  12.072  1.00  0.00    -0.040 SA
HETATM   35  N6  UNL     1      -2.913   9.166  11.651  1.00  0.00    -0.318 N 
HETATM   36  C10 UNL     1      -2.517   7.884  11.593  1.00  0.00     0.126 A 
ATOM     37  H6  UNL     1      -3.879   9.405  11.423  1.00  0.00     0.170 HD
HETATM   38  N7  UNL     1      -3.331   6.879  11.245  1.00  0.00    -0.338 N 
HETATM   39  C15 UNL     1      -1.182   7.625  11.917  1.00  0.00     0.098 A 
HETATM   40  C11 UNL     1      -2.854   5.624  11.210  1.00  0.00     0.183 A 
ATOM     41  H7  UNL     1      -4.305   7.065  11.009  1.00  0.00     0.168 HD
HETATM   42  N8  UNL     1      -1.577   5.354  11.519  1.00  0.00    -0.337 N 
HETATM   43  C12 UNL     1      -0.730   6.323  11.870  1.00  0.00     0.138 A 
ATOM     44  H8  UNL     1      -1.247   4.389  11.484  1.00  0.00     0.168 HD
BRANCH  43  45
HETATM   45  N9  UNL     1       0.505   6.116  12.175  1.00  0.00    -0.289 N 
ATOM     46  H9  UNL     1       1.200   6.852  12.049  1.00  0.00     0.188 HD
BRANCH  45  47
HETATM   47  N10 UNL     1       0.877   4.871  12.680  1.00  0.00    -0.333 N 
ATOM     48  H10 UNL     1       0.193   4.114  12.650  1.00  0.00     0.180 HD
BRANCH  47  49
HETATM   49  C13 UNL     1       2.168   4.594  13.238  1.00  0.00     0.165 C 
BRANCH  49  50
HETATM   50  C14 UNL     1       2.893   5.852  13.675  1.00  0.00     0.185 C 
BRANCH  50  51
HETATM   51  O4  UNL     1       3.500   5.664  14.905  1.00  0.00    -0.399 OA
ATOM     52  H4  UNL     1       3.749   6.498  15.287  1.00  0.00     0.209 HD
ENDBRANCH  50  51
ENDBRANCH  49  50
ENDBRANCH  47  49
ENDBRANCH  45  47
ENDBRANCH  43  45
ENDBRANCH  28  30
ENDBRANCH  25  26
ENDBRANCH  23  25
ENDBRANCH   4  21
ENDBRANCH   1   4
TORSDOF 12
ENDMDL
MODEL 4
REMARK VINA RESULT: -7.056799699      2.074      7.172
REMARK  12 active torsions:
REMARK  status: ('A' for Active; 'I' for Inactive)
REMARK    1  A    between atoms: C2_3  and  C3_4 
REMARK    2  A    between atoms: C3_4  and  O1_5 
REMARK    3  A    between atoms: C3_4  and  C5_8 
REMARK       I    between atoms: C5_8  and  N3_10 
REMARK    4  A    between atoms: N3_10  and  C6_12 
REMARK    5  A    between atoms: C6_12  and  C7_13 
REMARK       I    between atoms: C7_13  and  N4_15 
REMARK    6  A    between atoms: N4_15  and  C8_17 
REMARK    7  A    between atoms: C12_30  and  N9_31 
REMARK    8  A    between atoms: N9_31  and  N10_33 
REMARK    9  A    between atoms: N10_33  and  C13_35 
REMARK   10  A    between atoms: C13_35  and  C14_36 
REMARK   11  A    between atoms: C14_36  and  O4_37 
REMARK   12  A    between atoms: C17_43  and  N12_44 
ROOT
HETATM    1  O1  UNL     1       3.505  15.448  10.418  1.00  0.00    -0.260 OA
HETATM    2  C4  UNL     1       3.208  16.627   9.848  1.00  0.00     0.229 C 
HETATM    3  N2  UNL     1       2.972  17.636   9.351  1.00  0.00    -0.164 NA
ENDROOT
BRANCH   1   4
HETATM    4  C3  UNL     1       2.662  14.702  11.261  1.00  0.00     0.301 C 
BRANCH   4   5
HETATM    5  C2  UNL     1       1.692  13.992  10.402  1.00  0.00     0.126 A 
HETATM    6  N1  UNL     1       0.363  13.854  10.570  1.00  0.00    -0.323 N 
HETATM    7  C1  UNL     1      -0.369  14.405  11.680  1.00  0.00     0.159 C 
HETATM    8  C19 UNL     1      -0.084  13.129   9.530  1.00  0.00     0.140 A 
HETATM    9  C16 UNL     1       0.981  12.811   8.700  1.00  0.00     0.122 A 
HETATM   10  N14 UNL     1      -1.332  12.717   9.228  1.00  0.00    -0.336 N 
HETATM   11  N11 UNL     1       2.043  13.357   9.270  1.00  0.00    -0.337 N 
HETATM   12  C17 UNL     1       0.770  12.070   7.561  1.00  0.00     0.131 A 
ATOM     13  H11 UNL     1       2.993  13.303   8.903  1.00  0.00     0.167 HD
HETATM   14  N13 UNL     1      -0.486  11.676   7.293  1.00  0.00    -0.337 N 
HETATM   15  C18 UNL     1      -1.508  11.995   8.111  1.00  0.00     0.183 A 
ATOM     16  H13 UNL     1      -0.670  11.126   6.454  1.00  0.00     0.168 HD
ATOM     17  H14 UNL     1      -2.120  12.947   9.832  1.00  0.00     0.168 HD
BRANCH  12  18
HETATM   18  N12 UNL     1       1.736  11.758   6.771  1.00  0.00    -0.383 N 
ATOM     19 2H12 UNL     1       2.560  11.271   7.124  1.00  0.00     0.157 HD
ATOM     20 1H12 UNL     1       1.709  11.987   5.778  1.00  0.00     0.157 HD
ENDBRANCH  12  18
ENDBRANCH   4   5
BRANCH   4  21
HETATM   21  C5  UNL     1       3.384  13.817  12.183  1.00  0.00     0.256 C 
HETATM   22  O2  UNL     1       4.624  13.909  12.379  1.00  0.00    -0.270 OA
HETATM   23  N3  UNL     1       2.689  12.807  12.898  1.00  0.00    -0.350 N 
ATOM     24  H3  UNL     1       1.683  12.713  12.756  1.00  0.00     0.163 HD
BRANCH  23  25
HETATM   25  C6  UNL     1       3.349  11.906  13.820  1.00  0.00     0.225 C 
BRANCH  25  26
HETATM   26  C7  UNL     1       3.635  10.594  13.190  1.00  0.00     0.240 C 
HETATM   27  O3  UNL     1       4.287  10.592  12.115  1.00  0.00    -0.271 OA
HETATM   28  N4  UNL     1       3.192   9.378  13.776  1.00  0.00    -0.311 N 
ATOM     29  H4  UNL     1       3.673   8.985  14.585  1.00  0.00     0.170 HD
BRANCH  28  30
HETATM   30  C8  UNL     1       2.171   8.779  13.266  1.00  0.00     0.128 A 
HETATM   31  N5  UNL     1       1.145   9.465  12.728  1.00  0.00    -0.318 N 
HETATM   32  C9  UNL     1       0.108   8.782  12.212  1.00  0.00     0.179 A 
ATOM     33  H5  UNL     1       1.155  10.486  12.711  1.00  0.00     0.170 HD
HETATM   34  S1  UNL     1      -1.110   9.662  11.570  1.00  0.00    -0.040 SA
HETATM   35  N6  UNL     1       0.046   7.440  12.210  1.00  0.00    -0.318 N 
HETATM   36  C10 UNL     1       1.038   6.700  12.733  1.00  0.00     0.126 A 
ATOM     37  H6  UNL     1      -0.767   6.975  11.804  1.00  0.00     0.170 HD
HETATM   38  N7  UNL     1       1.023   5.361  12.755  1.00  0.00    -0.338 N 
HETATM   39  C15 UNL     1       2.123   7.398  13.272  1.00  0.00     0.098 A 
HETATM   40  C11 UNL     1       2.058   4.697  13.297  1.00  0.00     0.183 A 
ATOM     41  H7  UNL     1       0.233   4.850  12.364  1.00  0.00     0.168 HD
HETATM   42  N8  UNL     1       3.107   5.348  13.820  1.00  0.00    -0.337 N 
HETATM   43  C12 UNL     1       3.165   6.681  13.821  1.00  0.00     0.138 A 
ATOM     44  H8  UNL     1       3.875   4.814  14.226  1.00  0.00     0.168 HD
BRANCH  43  45
HETATM   45  N9  UNL     1       4.150   7.353  14.310  1.00  0.00    -0.289 N 
ATOM     46  H9  UNL     1       4.020   8.319  14.612  1.00  0.00     0.188 HD
BRANCH  45  47
HETATM   47  N10 UNL     1       5.398   6.739  14.420  1.00  0.00    -0.333 N 
ATOM     48  H10 UNL     1       5.507   5.797  14.045  1.00  0.00     0.180 HD
BRANCH  47  49
HETATM   49  C13 UNL     1       6.536   7.360  15.031  1.00  0.00     0.165 C 
BRANCH  49  50
HETATM   50  C14 UNL     1       6.159   8.566  15.869  1.00  0.00     0.185 C 
BRANCH  50  51
HETATM   51  O4  UNL     1       6.128   9.711  15.090  1.00  0.00    -0.399 OA
ATOM     52  H4  UNL     1       6.937  10.201  15.182  1.00  0.00     0.209 HD
ENDBRANCH  50  51
ENDBRANCH  49  50
ENDBRANCH  47  49
ENDBRANCH  45  47
ENDBRANCH  43  45
ENDBRANCH  28  30
ENDBRANCH  25  26
ENDBRANCH  23  25
ENDBRANCH   4  21
ENDBRANCH   1   4
TORSDOF 12
ENDMDL
MODEL 5
REMARK VINA RESULT: -6.993925299      3.395      6.445
REMARK  12 active torsions:
REMARK  status: ('A' for Active; 'I' for Inactive)
REMARK    1  A    between atoms: C2_3  and  C3_4 
REMARK    2  A    between atoms: C3_4  and  O1_5 
REMARK    3  A    between atoms: C3_4  and  C5_8 
REMARK       I    between atoms: C5_8  and  N3_10 
REMARK    4  A    between atoms: N3_10  and  C6_12 
REMARK    5  A    between atoms: C6_12  and  C7_13 
REMARK       I    between atoms: C7_13  and  N4_15 
REMARK    6  A    between atoms: N4_15  and  C8_17 
REMARK    7  A    between atoms: C12_30  and  N9_31 
REMARK    8  A    between atoms: N9_31  and  N10_33 
REMARK    9  A    between atoms: N10_33  and  C13_35 
REMARK   10  A    between atoms: C13_35  and  C14_36 
REMARK   11  A    between atoms: C14_36  and  O4_37 
REMARK   12  A    between atoms: C17_43  and  N12_44 
ROOT
HETATM    1  O1  UNL     1       5.016   9.791  15.366  1.00  0.00    -0.260 OA
HETATM    2  C4  UNL     1       4.823  10.860  16.156  1.00  0.00     0.229 C 
HETATM    3  N2  UNL     1       4.654  11.762  16.847  1.00  0.00    -0.164 NA
ENDROOT
BRANCH   1   4
HETATM    4  C3  UNL     1       5.362   9.822  14.003  1.00  0.00     0.301 C 
BRANCH   4   5
HETATM    5  C2  UNL     1       5.906   8.495  13.653  1.00  0.00     0.126 A 
HETATM    6  N1  UNL     1       6.008   7.396  14.425  1.00  0.00    -0.323 N 
HETATM    7  C1  UNL     1       5.581   7.336  15.798  1.00  0.00     0.159 C 
HETATM    8  C19 UNL     1       6.564   6.439  13.663  1.00  0.00     0.140 A 
HETATM    9  C16 UNL     1       6.813   6.947  12.396  1.00  0.00     0.122 A 
HETATM   10  N14 UNL     1       6.878   5.162  13.960  1.00  0.00    -0.336 N 
HETATM   11  N11 UNL     1       6.397   8.202  12.435  1.00  0.00    -0.337 N 
HETATM   12  C17 UNL     1       7.383   6.148  11.432  1.00  0.00     0.131 A 
ATOM     13  H11 UNL     1       6.441   8.855  11.653  1.00  0.00     0.167 HD
HETATM   14  N13 UNL     1       7.682   4.881  11.765  1.00  0.00    -0.337 N 
HETATM   15  C18 UNL     1       7.433   4.405  13.001  1.00  0.00     0.183 A 
ATOM     16  H13 UNL     1       8.105   4.268  11.069  1.00  0.00     0.168 HD
ATOM     17  H14 UNL     1       6.697   4.780  14.888  1.00  0.00     0.168 HD
BRANCH  12  18
HETATM   18  N12 UNL     1       7.626   6.589  10.249  1.00  0.00    -0.383 N 
ATOM     19 2H12 UNL     1       7.004   6.366   9.473  1.00  0.00     0.157 HD
ATOM     20 1H12 UNL     1       8.441   7.170  10.053  1.00  0.00     0.157 HD
ENDBRANCH  12  18
ENDBRANCH   4   5
BRANCH   4  21
HETATM   21  C5  UNL     1       4.266  10.255  13.128  1.00  0.00     0.256 C 
HETATM   22  O2  UNL     1       4.414  10.428  11.890  1.00  0.00    -0.270 OA
HETATM   23  N3  UNL     1       2.975  10.498  13.664  1.00  0.00    -0.350 N 
ATOM     24  H3  UNL     1       2.828  10.364  14.665  1.00  0.00     0.163 HD
BRANCH  23  25
HETATM   25  C6  UNL     1       1.856  10.927  12.850  1.00  0.00     0.225 C 
BRANCH  25  26
HETATM   26  C7  UNL     1       0.636  10.136  13.137  1.00  0.00     0.240 C 
HETATM   27  O3  UNL     1       0.127  10.242  14.282  1.00  0.00    -0.271 OA
HETATM   28  N4  UNL     1       0.055   9.286  12.157  1.00  0.00    -0.311 N 
ATOM     29  H4  UNL     1      -0.495   9.675  11.392  1.00  0.00     0.170 HD
BRANCH  28  30
HETATM   30  C8  UNL     1       0.236   8.014  12.254  1.00  0.00     0.128 A 
HETATM   31  N5  UNL     1       1.292   7.498  12.910  1.00  0.00    -0.318 N 
HETATM   32  C9  UNL     1       1.425   6.161  12.975  1.00  0.00     0.179 A 
ATOM     33  H5  UNL     1       1.979   8.110  13.351  1.00  0.00     0.170 HD
HETATM   34  S1  UNL     1       2.723   5.585  13.784  1.00  0.00    -0.040 SA
HETATM   35  N6  UNL     1       0.549   5.312  12.411  1.00  0.00    -0.318 N 
HETATM   36  C10 UNL     1      -0.524   5.767  11.742  1.00  0.00     0.126 A 
ATOM     37  H6  UNL     1       0.701   4.306  12.493  1.00  0.00     0.170 HD
HETATM   38  N7  UNL     1      -1.424   4.962  11.163  1.00  0.00    -0.338 N 
HETATM   39  C15 UNL     1      -0.674   7.154  11.668  1.00  0.00     0.098 A 
HETATM   40  C11 UNL     1      -2.470   5.499  10.513  1.00  0.00     0.183 A 
ATOM     41  H7  UNL     1      -1.316   3.949  11.215  1.00  0.00     0.168 HD
HETATM   42  N8  UNL     1      -2.631   6.827  10.430  1.00  0.00    -0.337 N 
HETATM   43  C12 UNL     1      -1.760   7.667  10.991  1.00  0.00     0.138 A 
ATOM     44  H8  UNL     1      -3.436   7.202   9.928  1.00  0.00     0.168 HD
BRANCH  43  45
HETATM   45  N9  UNL     1      -1.871   8.951  10.940  1.00  0.00    -0.289 N 
ATOM     46  H9  UNL     1      -1.209   9.548  11.436  1.00  0.00     0.188 HD
BRANCH  45  47
HETATM   47  N10 UNL     1      -2.909   9.510  10.196  1.00  0.00    -0.333 N 
ATOM     48  H10 UNL     1      -3.807   9.660  10.657  1.00  0.00     0.180 HD
BRANCH  47  49
HETATM   49  C13 UNL     1      -2.785   9.886   8.818  1.00  0.00     0.165 C 
BRANCH  49  50
HETATM   50  C14 UNL     1      -3.738   9.121   7.920  1.00  0.00     0.185 C 
BRANCH  50  51
HETATM   51  O4  UNL     1      -3.193   7.901   7.555  1.00  0.00    -0.399 OA
ATOM     52  H4  UNL     1      -3.470   7.218   8.154  1.00  0.00     0.209 HD
ENDBRANCH  50  51
ENDBRANCH  49  50
ENDBRANCH  47  49
ENDBRANCH  45  47
ENDBRANCH  43  45
ENDBRANCH  28  30
ENDBRANCH  25  26
ENDBRANCH  23  25
ENDBRANCH   4  21
ENDBRANCH   1   4
TORSDOF 12
ENDMDL
