MODEL 1
REMARK VINA RESULT: -6.598819566      0.000      0.000
REMARK  7 active torsions:
REMARK  status: ('A' for Active; 'I' for Inactive)
REMARK    1  A    between atoms: C2_2  and  C3_3 
REMARK    2  A    between atoms: C3_3  and  N1_4 
REMARK    3  A    between atoms: C10_12  and  O2_13 
REMARK    4  A    between atoms: C15_20  and  C16_21 
REMARK    5  A    between atoms: C16_21  and  O4_22 
REMARK    6  A    between atoms: C17_24  and  O5_25 
REMARK    7  A    between atoms: C19_28  and  C20_29 
ROOT
HETATM    1  N1  UNL     1      24.257  45.384  21.329  1.00  0.00    -0.362 N 
HETATM    2  C4  UNL     1      23.711  45.359  20.005  1.00  0.00     0.126 C 
HETATM    3  C5  UNL     1      22.227  45.158  19.926  1.00  0.00     0.038 C 
HETATM    4  C6  UNL     1      21.319  46.307  19.991  1.00  0.00     0.044 C 
HETATM    5  C7  UNL     1      22.067  47.636  19.810  1.00  0.00     0.079 C 
HETATM    6  C8  UNL     1      22.720  48.076  21.088  1.00  0.00     0.264 C 
HETATM    7  O1  UNL     1      21.892  48.022  22.121  1.00  0.00    -0.352 OA
HETATM    8  C9  UNL     1      20.929  47.140  22.318  1.00  0.00     0.167 C 
HETATM    9  C10 UNL     1      21.326  46.334  23.512  1.00  0.00     0.148 C 
HETATM   10  C11 UNL     1      22.658  45.689  23.539  1.00  0.00     0.039 C 
HETATM   11  C12 UNL     1      23.830  46.605  23.333  1.00  0.00     0.063 C 
HETATM   12  C13 UNL     1      24.401  46.635  21.957  1.00  0.00     0.135 C 
HETATM   13  C14 UNL     1      25.890  47.034  22.148  1.00  0.00     0.071 C 
HETATM   14  O3  UNL     1      23.965  47.603  21.123  1.00  0.00    -0.331 OA
HETATM   15  C15 UNL     1      20.334  46.401  21.135  1.00  0.00     0.050 C 
HETATM   16  C17 UNL     1      19.166  47.306  20.696  1.00  0.00     0.135 C 
HETATM   17  C18 UNL     1      18.292  46.890  19.619  1.00  0.00     0.074 C 
HETATM   18  C19 UNL     1      18.525  47.543  18.251  1.00  0.00     0.106 A 
HETATM   19  O6  UNL     1      19.439  48.542  18.217  1.00  0.00    -0.355 OA
HETATM   20  C23 UNL     1      19.948  47.346  17.838  1.00  0.00     0.150 A 
HETATM   21  C24 UNL     1      20.304  47.271  16.365  1.00  0.00     0.058 C 
HETATM   22  C25 UNL     1      20.531  46.305  18.672  1.00  0.00     0.173 C 
HETATM   23  O7  UNL     1      20.330  45.195  18.186  1.00  0.00    -0.294 OA
ENDROOT
BRANCH   1  24
HETATM   24  C3  UNL     1      25.043  44.289  21.718  1.00  0.00     0.060 C 
BRANCH  24  25
HETATM   25  C2  UNL     1      24.708  42.949  21.166  1.00  0.00     0.040 C 
HETATM   26  C1  UNL     1      23.511  42.425  21.974  1.00  0.00     0.010 C 
ENDBRANCH  24  25
ENDBRANCH   1  24
BRANCH  15  27
HETATM   27  C16 UNL     1      19.658  45.149  21.482  1.00  0.00     0.180 C 
BRANCH  27  28
HETATM   28  O4  UNL     1      18.594  45.018  22.287  1.00  0.00    -0.400 OA
ATOM     29  H4  UNL     1      18.564  45.211  23.216  1.00  0.00     0.209 HD
ENDBRANCH  27  28
ENDBRANCH  15  27
BRANCH   9  30
HETATM   30  O2  UNL     1      21.474  47.296  24.567  1.00  0.00    -0.393 OA
ATOM     31  H2  UNL     1      22.357  47.629  24.466  1.00  0.00     0.210 HD
ENDBRANCH   9  30
BRANCH  16  32
HETATM   32  O5  UNL     1      19.494  48.647  20.746  1.00  0.00    -0.394 OA
ATOM     33  H5  UNL     1      18.751  49.191  20.979  1.00  0.00     0.210 HD
ENDBRANCH  16  32
BRANCH  18  34
HETATM   34  C20 UNL     1      17.419  47.522  17.252  1.00  0.00     0.016 C 
HETATM   35  C21 UNL     1      16.280  46.599  17.621  1.00  0.00     0.012 C 
HETATM   36  C22 UNL     1      16.816  48.909  17.091  1.00  0.00     0.012 C 
ENDBRANCH  18  34
TORSDOF 7
ENDMDL
MODEL 2
REMARK VINA RESULT: -6.241400790      1.865      2.720
REMARK  7 active torsions:
REMARK  status: ('A' for Active; 'I' for Inactive)
REMARK    1  A    between atoms: C2_2  and  C3_3 
REMARK    2  A    between atoms: C3_3  and  N1_4 
REMARK    3  A    between atoms: C10_12  and  O2_13 
REMARK    4  A    between atoms: C15_20  and  C16_21 
REMARK    5  A    between atoms: C16_21  and  O4_22 
REMARK    6  A    between atoms: C17_24  and  O5_25 
REMARK    7  A    between atoms: C19_28  and  C20_29 
ROOT
HETATM    1  N1  UNL     1      24.723  46.103  20.995  1.00  0.00    -0.362 N 
HETATM    2  C4  UNL     1      23.799  46.750  20.112  1.00  0.00     0.126 C 
HETATM    3  C5  UNL     1      22.689  45.884  19.597  1.00  0.00     0.038 C 
HETATM    4  C6  UNL     1      21.445  45.739  20.362  1.00  0.00     0.044 C 
HETATM    5  C7  UNL     1      21.336  46.790  21.476  1.00  0.00     0.079 C 
HETATM    6  C8  UNL     1      22.130  46.390  22.685  1.00  0.00     0.264 C 
HETATM    7  O1  UNL     1      21.892  45.140  23.053  1.00  0.00    -0.352 OA
HETATM    8  C9  UNL     1      21.625  44.119  22.259  1.00  0.00     0.167 C 
HETATM    9  C10 UNL     1      22.777  43.175  22.374  1.00  0.00     0.148 C 
HETATM   10  C11 UNL     1      24.151  43.681  22.153  1.00  0.00     0.039 C 
HETATM   11  C12 UNL     1      24.565  44.841  23.013  1.00  0.00     0.063 C 
HETATM   12  C13 UNL     1      24.480  46.187  22.378  1.00  0.00     0.135 C 
HETATM   13  C14 UNL     1      25.543  47.046  23.115  1.00  0.00     0.071 C 
HETATM   14  O3  UNL     1      23.356  46.904  22.588  1.00  0.00    -0.331 OA
HETATM   15  C15 UNL     1      21.055  44.372  20.877  1.00  0.00     0.050 C 
HETATM   16  C17 UNL     1      19.531  44.358  21.107  1.00  0.00     0.135 C 
HETATM   17  C18 UNL     1      18.627  44.492  19.983  1.00  0.00     0.074 C 
HETATM   18  C19 UNL     1      17.980  45.868  19.780  1.00  0.00     0.106 A 
HETATM   19  O6  UNL     1      18.216  46.785  20.749  1.00  0.00    -0.355 OA
HETATM   20  C23 UNL     1      19.045  46.913  19.687  1.00  0.00     0.150 A 
HETATM   21  C24 UNL     1      18.803  48.168  18.869  1.00  0.00     0.058 C 
HETATM   22  C25 UNL     1      20.320  46.253  19.450  1.00  0.00     0.173 C 
HETATM   23  O7  UNL     1      20.506  46.084  18.247  1.00  0.00    -0.294 OA
ENDROOT
BRANCH   1  24
HETATM   24  C3  UNL     1      26.016  45.865  20.505  1.00  0.00     0.060 C 
BRANCH  24  25
HETATM   25  C2  UNL     1      26.171  45.505  19.069  1.00  0.00     0.040 C 
HETATM   26  C1  UNL     1      26.095  43.973  18.987  1.00  0.00     0.010 C 
ENDBRANCH  24  25
ENDBRANCH   1  24
BRANCH  15  27
HETATM   27  C16 UNL     1      21.248  43.269  19.933  1.00  0.00     0.180 C 
BRANCH  27  28
HETATM   28  O4  UNL     1      20.713  42.044  20.023  1.00  0.00    -0.400 OA
ATOM     29  H4  UNL     1      21.190  41.223  20.070  1.00  0.00     0.209 HD
ENDBRANCH  27  28
ENDBRANCH  15  27
BRANCH   9  30
HETATM   30  O2  UNL     1      22.837  42.842  23.769  1.00  0.00    -0.393 OA
ATOM     31  H2  UNL     1      22.808  41.893  23.791  1.00  0.00     0.210 HD
ENDBRANCH   9  30
BRANCH  16  32
HETATM   32  O5  UNL     1      19.171  45.003  22.274  1.00  0.00    -0.394 OA
ATOM     33  H5  UNL     1      18.801  45.863  22.111  1.00  0.00     0.210 HD
ENDBRANCH  16  32
BRANCH  18  34
HETATM   34  C20 UNL     1      16.734  45.958  18.968  1.00  0.00     0.016 C 
HETATM   35  C21 UNL     1      16.865  45.370  17.582  1.00  0.00     0.012 C 
HETATM   36  C22 UNL     1      15.597  45.212  19.648  1.00  0.00     0.012 C 
ENDBRANCH  18  34
TORSDOF 7
ENDMDL
MODEL 3
REMARK VINA RESULT: -6.130433909      1.884      2.853
REMARK  7 active torsions:
REMARK  status: ('A' for Active; 'I' for Inactive)
REMARK    1  A    between atoms: C2_2  and  C3_3 
REMARK    2  A    between atoms: C3_3  and  N1_4 
REMARK    3  A    between atoms: C10_12  and  O2_13 
REMARK    4  A    between atoms: C15_20  and  C16_21 
REMARK    5  A    between atoms: C16_21  and  O4_22 
REMARK    6  A    between atoms: C17_24  and  O5_25 
REMARK    7  A    between atoms: C19_28  and  C20_29 
ROOT
HETATM    1  N1  UNL     1      22.571  46.504  20.394  1.00  0.00    -0.362 N 
HETATM    2  C4  UNL     1      22.210  45.761  19.223  1.00  0.00     0.126 C 
HETATM    3  C5  UNL     1      20.755  45.425  19.098  1.00  0.00     0.038 C 
HETATM    4  C6  UNL     1      19.828  46.366  18.461  1.00  0.00     0.044 C 
HETATM    5  C7  UNL     1      20.573  47.474  17.702  1.00  0.00     0.079 C 
HETATM    6  C8  UNL     1      21.038  48.557  18.631  1.00  0.00     0.264 C 
HETATM    7  O1  UNL     1      20.079  48.969  19.446  1.00  0.00    -0.352 OA
HETATM    8  C9  UNL     1      19.112  48.233  19.965  1.00  0.00     0.167 C 
HETATM    9  C10 UNL     1      19.355  48.185  21.438  1.00  0.00     0.148 C 
HETATM   10  C11 UNL     1      20.681  47.758  21.939  1.00  0.00     0.039 C 
HETATM   11  C12 UNL     1      21.856  48.536  21.418  1.00  0.00     0.063 C 
HETATM   12  C13 UNL     1      22.608  47.907  20.296  1.00  0.00     0.135 C 
HETATM   13  C14 UNL     1      24.051  48.471  20.414  1.00  0.00     0.071 C 
HETATM   14  O3  UNL     1      22.275  48.274  19.040  1.00  0.00    -0.331 OA
HETATM   15  C15 UNL     1      18.695  46.947  19.277  1.00  0.00     0.050 C 
HETATM   16  C17 UNL     1      17.584  47.400  18.310  1.00  0.00     0.135 C 
HETATM   17  C18 UNL     1      16.871  46.421  17.515  1.00  0.00     0.074 C 
HETATM   18  C19 UNL     1      17.278  46.303  16.041  1.00  0.00     0.106 A 
HETATM   19  O6  UNL     1      18.172  47.217  15.596  1.00  0.00    -0.355 OA
HETATM   20  C23 UNL     1      18.747  46.043  15.947  1.00  0.00     0.150 A 
HETATM   21  C24 UNL     1      19.302  45.256  14.773  1.00  0.00     0.058 C 
HETATM   22  C25 UNL     1      19.227  45.626  17.256  1.00  0.00     0.173 C 
HETATM   23  O7  UNL     1      19.112  44.410  17.395  1.00  0.00    -0.294 OA
ENDROOT
BRANCH   1  24
HETATM   24  C3  UNL     1      23.314  45.831  21.375  1.00  0.00     0.060 C 
BRANCH  24  25
HETATM   25  C2  UNL     1      22.643  44.753  22.151  1.00  0.00     0.040 C 
HETATM   26  C1  UNL     1      22.740  45.151  23.632  1.00  0.00     0.010 C 
ENDBRANCH  24  25
ENDBRANCH   1  24
BRANCH  15  27
HETATM   27  C16 UNL     1      17.998  45.997  20.146  1.00  0.00     0.180 C 
BRANCH  27  28
HETATM   28  O4  UNL     1      16.699  46.027  20.476  1.00  0.00    -0.400 OA
ATOM     29  H4  UNL     1      16.048  46.633  20.142  1.00  0.00     0.209 HD
ENDBRANCH  27  28
ENDBRANCH  15  27
BRANCH   9  30
HETATM   30  O2  UNL     1      19.343  49.559  21.853  1.00  0.00    -0.393 OA
ATOM     31  H2  UNL     1      19.830  49.569  22.669  1.00  0.00     0.210 HD
ENDBRANCH   9  30
BRANCH  16  32
HETATM   32  O5  UNL     1      17.881  48.601  17.695  1.00  0.00    -0.394 OA
ATOM     33  H5  UNL     1      18.438  48.489  16.934  1.00  0.00     0.210 HD
ENDBRANCH  16  32
BRANCH  18  34
HETATM   34  C20 UNL     1      16.319  45.682  15.084  1.00  0.00     0.016 C 
HETATM   35  C21 UNL     1      15.202  44.912  15.750  1.00  0.00     0.012 C 
HETATM   36  C22 UNL     1      15.655  46.748  14.225  1.00  0.00     0.012 C 
ENDBRANCH  18  34
TORSDOF 7
ENDMDL
MODEL 4
REMARK VINA RESULT: -6.071388348      1.670      3.235
REMARK  7 active torsions:
REMARK  status: ('A' for Active; 'I' for Inactive)
REMARK    1  A    between atoms: C2_2  and  C3_3 
REMARK    2  A    between atoms: C3_3  and  N1_4 
REMARK    3  A    between atoms: C10_12  and  O2_13 
REMARK    4  A    between atoms: C15_20  and  C16_21 
REMARK    5  A    between atoms: C16_21  and  O4_22 
REMARK    6  A    between atoms: C17_24  and  O5_25 
REMARK    7  A    between atoms: C19_28  and  C20_29 
ROOT
HETATM    1  N1  UNL     1      22.266  45.529  22.949  1.00  0.00    -0.362 N 
HETATM    2  C4  UNL     1      20.983  45.056  22.520  1.00  0.00     0.126 C 
HETATM    3  C5  UNL     1      20.066  46.102  21.962  1.00  0.00     0.038 C 
HETATM    4  C6  UNL     1      20.116  46.450  20.538  1.00  0.00     0.044 C 
HETATM    5  C7  UNL     1      20.923  45.423  19.730  1.00  0.00     0.079 C 
HETATM    6  C8  UNL     1      22.399  45.672  19.846  1.00  0.00     0.264 C 
HETATM    7  O1  UNL     1      22.713  46.941  19.634  1.00  0.00    -0.352 OA
HETATM    8  C9  UNL     1      21.991  48.000  19.956  1.00  0.00     0.167 C 
HETATM    9  C10 UNL     1      22.755  48.733  21.010  1.00  0.00     0.148 C 
HETATM   10  C11 UNL     1      23.203  48.003  22.217  1.00  0.00     0.039 C 
HETATM   11  C12 UNL     1      24.043  46.782  21.967  1.00  0.00     0.063 C 
HETATM   12  C13 UNL     1      23.327  45.476  22.026  1.00  0.00     0.135 C 
HETATM   13  C14 UNL     1      24.413  44.442  22.432  1.00  0.00     0.071 C 
HETATM   14  O3  UNL     1      22.879  44.958  20.863  1.00  0.00    -0.331 OA
HETATM   15  C15 UNL     1      20.493  47.859  20.139  1.00  0.00     0.050 C 
HETATM   16  C17 UNL     1      19.930  48.130  18.730  1.00  0.00     0.135 C 
HETATM   17  C18 UNL     1      18.498  48.160  18.514  1.00  0.00     0.074 C 
HETATM   18  C19 UNL     1      17.872  46.916  17.872  1.00  0.00     0.106 A 
HETATM   19  O6  UNL     1      18.738  45.965  17.450  1.00  0.00    -0.355 OA
HETATM   20  C23 UNL     1      18.226  45.706  18.676  1.00  0.00     0.150 A 
HETATM   21  C24 UNL     1      17.283  44.518  18.708  1.00  0.00     0.058 C 
HETATM   22  C25 UNL     1      18.721  46.142  19.974  1.00  0.00     0.173 C 
HETATM   23  O7  UNL     1      17.794  46.287  20.767  1.00  0.00    -0.294 OA
ENDROOT
BRANCH   1  24
HETATM   24  C3  UNL     1      22.513  45.548  24.329  1.00  0.00     0.060 C 
BRANCH  24  25
HETATM   25  C2  UNL     1      21.952  46.670  25.131  1.00  0.00     0.040 C 
HETATM   26  C1  UNL     1      22.132  46.289  26.609  1.00  0.00     0.010 C 
ENDBRANCH  24  25
ENDBRANCH   1  24
BRANCH  15  27
HETATM   27  C16 UNL     1      19.880  48.920  20.940  1.00  0.00     0.180 C 
BRANCH  27  28
HETATM   28  O4  UNL     1      18.577  49.044  21.231  1.00  0.00    -0.400 OA
ATOM     29  H4  UNL     1      18.204  49.579  21.922  1.00  0.00     0.209 HD
ENDBRANCH  27  28
ENDBRANCH  15  27
BRANCH   9  30
HETATM   30  O2  UNL     1      24.017  49.039  20.399  1.00  0.00    -0.393 OA
ATOM     31  H2  UNL     1      24.325  49.812  20.857  1.00  0.00     0.210 HD
ENDBRANCH   9  30
BRANCH  16  32
HETATM   32  O5  UNL     1      20.695  47.545  17.738  1.00  0.00    -0.394 OA
ATOM     33  H5  UNL     1      21.453  47.092  18.088  1.00  0.00     0.210 HD
ENDBRANCH  16  32
BRANCH  18  34
HETATM   34  C20 UNL     1      16.541  47.046  17.215  1.00  0.00     0.016 C 
HETATM   35  C21 UNL     1      16.091  48.476  17.024  1.00  0.00     0.012 C 
HETATM   36  C22 UNL     1      16.563  46.412  15.832  1.00  0.00     0.012 C 
ENDBRANCH  18  34
TORSDOF 7
ENDMDL
MODEL 5
REMARK VINA RESULT: -5.993286901      1.069      1.137
REMARK  7 active torsions:
REMARK  status: ('A' for Active; 'I' for Inactive)
REMARK    1  A    between atoms: C2_2  and  C3_3 
REMARK    2  A    between atoms: C3_3  and  N1_4 
REMARK    3  A    between atoms: C10_12  and  O2_13 
REMARK    4  A    between atoms: C15_20  and  C16_21 
REMARK    5  A    between atoms: C16_21  and  O4_22 
REMARK    6  A    between atoms: C17_24  and  O5_25 
REMARK    7  A    between atoms: C19_28  and  C20_29 
ROOT
HETATM    1  N1  UNL     1      23.835  46.078  20.194  1.00  0.00    -0.362 N 
HETATM    2  C4  UNL     1      23.167  46.062  18.926  1.00  0.00     0.126 C 
HETATM    3  C5  UNL     1      21.731  45.632  18.961  1.00  0.00     0.038 C 
HETATM    4  C6  UNL     1      20.669  46.614  19.208  1.00  0.00     0.044 C 
HETATM    5  C7  UNL     1      21.184  48.054  19.078  1.00  0.00     0.079 C 
HETATM    6  C8  UNL     1      21.888  48.499  20.327  1.00  0.00     0.264 C 
HETATM    7  O1  UNL     1      21.187  48.238  21.421  1.00  0.00    -0.352 OA
HETATM    8  C9  UNL     1      20.395  47.201  21.624  1.00  0.00     0.167 C 
HETATM    9  C10 UNL     1      21.029  46.384  22.703  1.00  0.00     0.148 C 
HETATM   10  C11 UNL     1      22.439  45.961  22.555  1.00  0.00     0.039 C 
HETATM   11  C12 UNL     1      23.432  47.066  22.327  1.00  0.00     0.063 C 
HETATM   12  C13 UNL     1      23.849  47.287  20.914  1.00  0.00     0.135 C 
HETATM   13  C14 UNL     1      25.271  47.904  21.007  1.00  0.00     0.071 C 
HETATM   14  O3  UNL     1      23.188  48.231  20.210  1.00  0.00    -0.331 OA
HETATM   15  C15 UNL     1      19.803  46.465  20.438  1.00  0.00     0.050 C 
HETATM   16  C17 UNL     1      18.472  47.200  20.185  1.00  0.00     0.135 C 
HETATM   17  C18 UNL     1      17.567  46.729  19.157  1.00  0.00     0.074 C 
HETATM   18  C19 UNL     1      17.558  47.509  17.836  1.00  0.00     0.106 A 
HETATM   19  O6  UNL     1      18.301  48.641  17.810  1.00  0.00    -0.355 OA
HETATM   20  C23 UNL     1      18.946  47.573  17.284  1.00  0.00     0.150 A 
HETATM   21  C24 UNL     1      19.158  47.664  15.784  1.00  0.00     0.058 C 
HETATM   22  C25 UNL     1      19.761  46.581  17.968  1.00  0.00     0.173 C 
HETATM   23  O7  UNL     1      19.684  45.492  17.406  1.00  0.00    -0.294 OA
ENDROOT
BRANCH   1  24
HETATM   24  C3  UNL     1      24.814  45.098  20.414  1.00  0.00     0.060 C 
BRANCH  24  25
HETATM   25  C2  UNL     1      24.502  43.693  20.036  1.00  0.00     0.040 C 
HETATM   26  C1  UNL     1      24.146  42.954  21.336  1.00  0.00     0.010 C 
ENDBRANCH  24  25
ENDBRANCH   1  24
BRANCH  15  27
HETATM   27  C16 UNL     1      19.365  45.099  20.732  1.00  0.00     0.180 C 
BRANCH  27  28
HETATM   28  O4  UNL     1      18.437  44.739  21.631  1.00  0.00    -0.400 OA
ATOM     29  H4  UNL     1      17.785  44.056  21.524  1.00  0.00     0.209 HD
ENDBRANCH  27  28
ENDBRANCH  15  27
BRANCH   9  30
HETATM   30  O2  UNL     1      21.134  47.278  23.821  1.00  0.00    -0.393 OA
ATOM     31  H2  UNL     1      21.656  48.004  23.500  1.00  0.00     0.210 HD
ENDBRANCH   9  30
BRANCH  16  32
HETATM   32  O5  UNL     1      18.595  48.569  20.324  1.00  0.00    -0.394 OA
ATOM     33  H5  UNL     1      18.890  48.819  21.191  1.00  0.00     0.210 HD
ENDBRANCH  16  32
BRANCH  18  34
HETATM   34  C20 UNL     1      16.373  47.384  16.941  1.00  0.00     0.016 C 
HETATM   35  C21 UNL     1      15.325  46.419  17.447  1.00  0.00     0.012 C 
HETATM   36  C22 UNL     1      15.680  48.728  16.780  1.00  0.00     0.012 C 
ENDBRANCH  18  34
TORSDOF 7
ENDMDL
