MODEL 1
REMARK VINA RESULT: -5.575241409      0.000      0.000
REMARK  3 active torsions:
REMARK  status: ('A' for Active; 'I' for Inactive)
REMARK    1  A    between atoms: N1_2  and  C2_4 
REMARK    2  A    between atoms: N2_5  and  C3_7 
REMARK    3  A    between atoms: N3_8  and  N4_10 
ROOT
HETATM    1  C3  UNL     1      31.486  28.927  67.325  1.00  0.00     0.199 C 
HETATM    2  N3  UNL     1      30.778  29.959  67.135  1.00  0.00    -0.282 N 
ATOM      3  H3  UNL     1      30.986  30.778  67.708  1.00  0.00     0.189 HD
ENDROOT
BRANCH   1   4
HETATM    4  N2  UNL     1      32.511  28.940  68.295  1.00  0.00    -0.348 N 
HETATM    5  C2  UNL     1      33.753  28.894  67.961  1.00  0.00     0.176 C 
ATOM      6  H2  UNL     1      32.262  28.988  69.283  1.00  0.00     0.167 HD
BRANCH   5   7
HETATM    7  N1  UNL     1      34.812  28.904  68.891  1.00  0.00    -0.390 N 
HETATM    8  C1  UNL     1      36.031  28.124  68.703  1.00  0.00     0.147 C 
ATOM      9  H1  UNL     1      34.723  29.480  69.728  1.00  0.00     0.159 HD
ENDBRANCH   5   7
ENDBRANCH   1   4
BRANCH   2  10
HETATM   10  N4  UNL     1      29.750  30.075  66.220  1.00  0.00    -0.248 N 
HETATM   11  N5  UNL     1      29.279  31.177  65.871  1.00  0.00    -0.331 N 
ATOM     12  H52 UNL     1      29.682  32.017  66.288  1.00  0.00     0.178 HD
ATOM     13  H51 UNL     1      28.519  31.263  65.195  1.00  0.00     0.178 HD
ATOM     14  H4  UNL     1      29.358  29.226  65.814  1.00  0.00     0.207 HD
ENDBRANCH   2  10
TORSDOF 3
ENDMDL
MODEL 2
REMARK VINA RESULT: -4.771905986      1.855      5.573
REMARK  3 active torsions:
REMARK  status: ('A' for Active; 'I' for Inactive)
REMARK    1  A    between atoms: N1_2  and  C2_4 
REMARK    2  A    between atoms: N2_5  and  C3_7 
REMARK    3  A    between atoms: N3_8  and  N4_10 
ROOT
HETATM    1  C3  UNL     1      35.035  28.273  68.282  1.00  0.00     0.199 C 
HETATM    2  N3  UNL     1      35.711  28.694  69.266  1.00  0.00    -0.282 N 
ATOM      3  H3  UNL     1      35.197  29.135  70.029  1.00  0.00     0.189 HD
ENDROOT
BRANCH   1   4
HETATM    4  N2  UNL     1      33.632  28.421  68.272  1.00  0.00    -0.348 N 
HETATM    5  C2  UNL     1      32.982  28.593  67.175  1.00  0.00     0.176 C 
ATOM      6  H2  UNL     1      33.121  28.391  69.154  1.00  0.00     0.167 HD
BRANCH   5   7
HETATM    7  N1  UNL     1      31.583  28.746  67.112  1.00  0.00    -0.390 N 
HETATM    8  C1  UNL     1      30.700  28.357  68.207  1.00  0.00     0.147 C 
ATOM      9  H1  UNL     1      31.171  29.144  66.268  1.00  0.00     0.159 HD
ENDBRANCH   5   7
ENDBRANCH   1   4
BRANCH   2  10
HETATM   10  N4  UNL     1      37.084  28.610  69.398  1.00  0.00    -0.248 N 
HETATM   11  N5  UNL     1      37.741  29.386  70.123  1.00  0.00    -0.331 N 
ATOM     12  H52 UNL     1      37.227  30.106  70.632  1.00  0.00     0.178 HD
ATOM     13  H51 UNL     1      38.754  29.324  70.220  1.00  0.00     0.178 HD
ATOM     14  H4  UNL     1      37.581  27.885  68.882  1.00  0.00     0.207 HD
ENDBRANCH   2  10
TORSDOF 3
ENDMDL
MODEL 3
REMARK VINA RESULT: -4.730243120      1.383      1.926
REMARK  3 active torsions:
REMARK  status: ('A' for Active; 'I' for Inactive)
REMARK    1  A    between atoms: N1_2  and  C2_4 
REMARK    2  A    between atoms: N2_5  and  C3_7 
REMARK    3  A    between atoms: N3_8  and  N4_10 
ROOT
HETATM    1  C3  UNL     1      33.102  28.520  67.202  1.00  0.00     0.199 C 
HETATM    2  N3  UNL     1      32.581  29.486  67.833  1.00  0.00    -0.282 N 
ATOM      3  H3  UNL     1      33.156  29.943  68.541  1.00  0.00     0.189 HD
ENDROOT
BRANCH   1   4
HETATM    4  N2  UNL     1      34.423  28.116  67.490  1.00  0.00    -0.348 N 
HETATM    5  C2  UNL     1      35.035  28.524  68.546  1.00  0.00     0.176 C 
ATOM      6  H2  UNL     1      34.904  27.488  66.846  1.00  0.00     0.167 HD
BRANCH   5   7
HETATM    7  N1  UNL     1      36.353  28.150  68.877  1.00  0.00    -0.390 N 
HETATM    8  C1  UNL     1      37.196  28.946  69.763  1.00  0.00     0.147 C 
ATOM      9  H1  UNL     1      36.733  27.291  68.481  1.00  0.00     0.159 HD
ENDBRANCH   5   7
ENDBRANCH   1   4
BRANCH   2  10
HETATM   10  N4  UNL     1      31.304  29.977  67.647  1.00  0.00    -0.248 N 
HETATM   11  N5  UNL     1      30.507  29.488  66.819  1.00  0.00    -0.331 N 
ATOM     12  H52 UNL     1      30.829  28.694  66.265  1.00  0.00     0.178 HD
ATOM     13  H51 UNL     1      29.564  29.851  66.681  1.00  0.00     0.178 HD
ATOM     14  H4  UNL     1      30.998  30.771  68.208  1.00  0.00     0.207 HD
ENDBRANCH   2  10
TORSDOF 3
ENDMDL
MODEL 4
REMARK VINA RESULT: -4.602826945      1.209      1.298
REMARK  3 active torsions:
REMARK  status: ('A' for Active; 'I' for Inactive)
REMARK    1  A    between atoms: N1_2  and  C2_4 
REMARK    2  A    between atoms: N2_5  and  C3_7 
REMARK    3  A    between atoms: N3_8  and  N4_10 
ROOT
HETATM    1  C3  UNL     1      30.729  29.605  67.123  1.00  0.00     0.199 C 
HETATM    2  N3  UNL     1      29.960  29.759  66.129  1.00  0.00    -0.282 N 
ATOM      3  H3  UNL     1      30.059  29.098  65.358  1.00  0.00     0.189 HD
ENDROOT
BRANCH   1   4
HETATM    4  N2  UNL     1      31.672  28.554  67.133  1.00  0.00    -0.348 N 
HETATM    5  C2  UNL     1      32.894  28.752  67.481  1.00  0.00     0.176 C 
ATOM      6  H2  UNL     1      31.376  27.617  66.858  1.00  0.00     0.167 HD
BRANCH   5   7
HETATM    7  N1  UNL     1      33.872  27.737  67.507  1.00  0.00    -0.390 N 
HETATM    8  C1  UNL     1      35.132  27.877  68.231  1.00  0.00     0.147 C 
ATOM      9  H1  UNL     1      33.692  26.870  67.000  1.00  0.00     0.159 HD
ENDBRANCH   5   7
ENDBRANCH   1   4
BRANCH   2  10
HETATM   10  N4  UNL     1      28.999  30.742  65.996  1.00  0.00    -0.248 N 
HETATM   11  N5  UNL     1      28.791  31.341  64.921  1.00  0.00    -0.331 N 
ATOM     12  H52 UNL     1      29.364  31.083  64.117  1.00  0.00     0.178 HD
ATOM     13  H51 UNL     1      28.082  32.068  64.823  1.00  0.00     0.178 HD
ATOM     14  H4  UNL     1      28.437  30.989  66.810  1.00  0.00     0.207 HD
ENDBRANCH   2  10
TORSDOF 3
ENDMDL
MODEL 5
REMARK VINA RESULT: -4.228596822      3.416      4.714
REMARK  3 active torsions:
REMARK  status: ('A' for Active; 'I' for Inactive)
REMARK    1  A    between atoms: N1_2  and  C2_4 
REMARK    2  A    between atoms: N2_5  and  C3_7 
REMARK    3  A    between atoms: N3_8  and  N4_10 
ROOT
HETATM    1  C3  UNL     1      34.633  27.061  66.538  1.00  0.00     0.199 C 
HETATM    2  N3  UNL     1      34.238  27.113  65.336  1.00  0.00    -0.282 N 
ATOM      3  H3  UNL     1      33.309  27.499  65.167  1.00  0.00     0.189 HD
ENDROOT
BRANCH   1   4
HETATM    4  N2  UNL     1      33.799  27.527  67.577  1.00  0.00    -0.348 N 
HETATM    5  C2  UNL     1      32.958  28.482  67.386  1.00  0.00     0.176 C 
ATOM      6  H2  UNL     1      33.865  27.098  68.500  1.00  0.00     0.167 HD
BRANCH   5   7
HETATM    7  N1  UNL     1      32.104  28.982  68.390  1.00  0.00    -0.390 N 
HETATM    8  C1  UNL     1      30.915  28.266  68.839  1.00  0.00     0.147 C 
ATOM      9  H1  UNL     1      32.327  29.881  68.818  1.00  0.00     0.159 HD
ENDBRANCH   5   7
ENDBRANCH   1   4
BRANCH   2  10
HETATM   10  N4  UNL     1      34.955  26.692  64.232  1.00  0.00    -0.248 N 
HETATM   11  N5  UNL     1      34.421  26.122  63.259  1.00  0.00    -0.331 N 
ATOM     12  H52 UNL     1      33.414  25.967  63.295  1.00  0.00     0.178 HD
ATOM     13  H51 UNL     1      34.951  25.810  62.444  1.00  0.00     0.178 HD
ATOM     14  H4  UNL     1      35.962  26.853  64.212  1.00  0.00     0.207 HD
ENDBRANCH   2  10
TORSDOF 3
ENDMDL
