MODEL 1
REMARK VINA RESULT: -3.913881261      0.000      0.000
REMARK  4 active torsions:
REMARK  status: ('A' for Active; 'I' for Inactive)
REMARK    1  A    between atoms: C2_2  and  N1_3 
REMARK    2  A    between atoms: N1_3  and  C4_5 
REMARK    3  A    between atoms: N1_3  and  N3_9 
REMARK    4  A    between atoms: N3_9  and  N4_10 
ROOT
HETATM    1  N1  UNL     1      33.690  28.094  67.692  1.00  0.00     0.059 N 
HETATM    2  C3  UNL     1      33.769  29.443  68.154  1.00  0.00     0.307 C 
ENDROOT
BRANCH   1   3
HETATM    3  C2  UNL     1      34.859  27.293  67.952  1.00  0.00     0.265 C 
HETATM    4  C1  UNL     1      35.956  28.064  68.669  1.00  0.00     0.037 C 
ENDBRANCH   1   3
BRANCH   1   5
HETATM    5  C4  UNL     1      32.483  27.504  68.155  1.00  0.00     0.313 C 
HETATM    6  N2  UNL     1      31.314  27.929  67.959  1.00  0.00    -0.383 N 
HETATM    7  C5  UNL     1      30.900  29.075  67.244  1.00  0.00     0.146 C 
ATOM      8  H2  UNL     1      30.566  27.372  68.372  1.00  0.00     0.159 HD
ENDBRANCH   1   5
BRANCH   1   9
HETATM    9  N3  UNL     1      33.621  28.181  66.271  1.00  0.00     0.071 NA
BRANCH   9  10
HETATM   10  N4  UNL     1      34.252  27.118  65.656  1.00  0.00    -0.322 N 
ATOM     11  H42 UNL     1      33.789  26.229  65.464  1.00  0.00     0.174 HD
ATOM     12  H41 UNL     1      35.222  27.331  65.424  1.00  0.00     0.174 HD
ENDBRANCH   9  10
ENDBRANCH   1   9
TORSDOF 4
ENDMDL
MODEL 2
REMARK VINA RESULT: -3.759919796      1.051      3.220
REMARK  4 active torsions:
REMARK  status: ('A' for Active; 'I' for Inactive)
REMARK    1  A    between atoms: C2_2  and  N1_3 
REMARK    2  A    between atoms: N1_3  and  C4_5 
REMARK    3  A    between atoms: N1_3  and  N3_9 
REMARK    4  A    between atoms: N3_9  and  N4_10 
ROOT
HETATM    1  N1  UNL     1      33.178  28.381  67.603  1.00  0.00     0.059 N 
HETATM    2  C3  UNL     1      33.500  27.046  67.993  1.00  0.00     0.307 C 
ENDROOT
BRANCH   1   3
HETATM    3  C2  UNL     1      31.769  28.676  67.550  1.00  0.00     0.265 C 
HETATM    4  C1  UNL     1      30.971  27.940  68.615  1.00  0.00     0.037 C 
ENDBRANCH   1   3
BRANCH   1   5
HETATM    5  C4  UNL     1      33.921  29.299  68.395  1.00  0.00     0.313 C 
HETATM    6  N2  UNL     1      35.090  29.137  68.835  1.00  0.00    -0.383 N 
HETATM    7  C5  UNL     1      35.953  28.032  68.665  1.00  0.00     0.146 C 
ATOM      8  H2  UNL     1      35.463  29.907  69.390  1.00  0.00     0.159 HD
ENDBRANCH   1   5
BRANCH   1   9
HETATM    9  N3  UNL     1      33.622  28.502  66.254  1.00  0.00     0.071 NA
BRANCH   9  10
HETATM   10  N4  UNL     1      34.167  27.325  65.781  1.00  0.00    -0.322 N 
ATOM     11  H42 UNL     1      35.027  27.289  65.233  1.00  0.00     0.174 HD
ATOM     12  H41 UNL     1      33.611  26.512  66.046  1.00  0.00     0.174 HD
ENDBRANCH   9  10
ENDBRANCH   1   9
TORSDOF 4
ENDMDL
MODEL 3
REMARK VINA RESULT: -3.628680817      1.018      1.104
REMARK  4 active torsions:
REMARK  status: ('A' for Active; 'I' for Inactive)
REMARK    1  A    between atoms: C2_2  and  N1_3 
REMARK    2  A    between atoms: N1_3  and  C4_5 
REMARK    3  A    between atoms: N1_3  and  N3_9 
REMARK    4  A    between atoms: N3_9  and  N4_10 
ROOT
HETATM    1  N1  UNL     1      33.701  27.987  67.608  1.00  0.00     0.059 N 
HETATM    2  C3  UNL     1      33.083  28.894  66.695  1.00  0.00     0.307 C 
ENDROOT
BRANCH   1   3
HETATM    3  C2  UNL     1      34.433  28.609  68.681  1.00  0.00     0.265 C 
HETATM    4  C1  UNL     1      35.898  28.200  68.711  1.00  0.00     0.037 C 
ENDBRANCH   1   3
BRANCH   1   5
HETATM    5  C4  UNL     1      32.744  27.034  68.051  1.00  0.00     0.313 C 
HETATM    6  N2  UNL     1      31.586  27.277  68.482  1.00  0.00    -0.383 N 
HETATM    7  C5  UNL     1      30.943  28.526  68.635  1.00  0.00     0.146 C 
ATOM      8  H2  UNL     1      31.037  26.463  68.758  1.00  0.00     0.159 HD
ENDBRANCH   1   5
BRANCH   1   9
HETATM    9  N3  UNL     1      34.691  27.297  66.849  1.00  0.00     0.071 NA
BRANCH   9  10
HETATM   10  N4  UNL     1      34.302  27.114  65.537  1.00  0.00    -0.322 N 
ATOM     11  H42 UNL     1      34.057  27.885  64.915  1.00  0.00     0.174 HD
ATOM     12  H41 UNL     1      34.292  26.128  65.275  1.00  0.00     0.174 HD
ENDBRANCH   9  10
ENDBRANCH   1   9
TORSDOF 4
ENDMDL
MODEL 4
REMARK VINA RESULT: -3.469407811      1.477      3.531
REMARK  4 active torsions:
REMARK  status: ('A' for Active; 'I' for Inactive)
REMARK    1  A    between atoms: C2_2  and  N1_3 
REMARK    2  A    between atoms: N1_3  and  C4_5 
REMARK    3  A    between atoms: N1_3  and  N3_9 
REMARK    4  A    between atoms: N3_9  and  N4_10 
ROOT
HETATM    1  N1  UNL     1      33.056  28.400  67.714  1.00  0.00     0.059 N 
HETATM    2  C3  UNL     1      33.716  27.892  66.555  1.00  0.00     0.307 C 
ENDROOT
BRANCH   1   3
HETATM    3  C2  UNL     1      32.525  27.396  68.601  1.00  0.00     0.265 C 
HETATM    4  C1  UNL     1      31.009  27.297  68.540  1.00  0.00     0.037 C 
ENDBRANCH   1   3
BRANCH   1   5
HETATM    5  C4  UNL     1      33.898  29.343  68.365  1.00  0.00     0.313 C 
HETATM    6  N2  UNL     1      35.079  29.151  68.759  1.00  0.00    -0.383 N 
HETATM    7  C5  UNL     1      35.863  27.980  68.662  1.00  0.00     0.146 C 
ATOM      8  H2  UNL     1      35.530  29.948  69.208  1.00  0.00     0.159 HD
ENDBRANCH   1   5
BRANCH   1   9
HETATM    9  N3  UNL     1      31.910  29.094  67.228  1.00  0.00     0.071 NA
BRANCH   9  10
HETATM   10  N4  UNL     1      31.696  30.277  67.905  1.00  0.00    -0.322 N 
ATOM     11  H42 UNL     1      32.004  31.185  67.555  1.00  0.00     0.174 HD
ATOM     12  H41 UNL     1      31.200  30.131  68.784  1.00  0.00     0.174 HD
ENDBRANCH   9  10
ENDBRANCH   1   9
TORSDOF 4
ENDMDL
MODEL 5
REMARK VINA RESULT: -2.715136601      8.660      9.421
REMARK  4 active torsions:
REMARK  status: ('A' for Active; 'I' for Inactive)
REMARK    1  A    between atoms: C2_2  and  N1_3 
REMARK    2  A    between atoms: N1_3  and  C4_5 
REMARK    3  A    between atoms: N1_3  and  N3_9 
REMARK    4  A    between atoms: N3_9  and  N4_10 
ROOT
HETATM    1  N1  UNL     1      28.750  21.465  72.196  1.00  0.00     0.059 N 
HETATM    2  C3  UNL     1      27.398  21.895  72.351  1.00  0.00     0.307 C 
ENDROOT
BRANCH   1   3
HETATM    3  C2  UNL     1      29.310  20.791  73.339  1.00  0.00     0.265 C 
HETATM    4  C1  UNL     1      28.512  21.027  74.612  1.00  0.00     0.037 C 
ENDBRANCH   1   3
BRANCH   1   5
HETATM    5  C4  UNL     1      28.878  20.731  70.985  1.00  0.00     0.313 C 
HETATM    6  N2  UNL     1      28.347  21.009  69.877  1.00  0.00    -0.383 N 
HETATM    7  C5  UNL     1      27.507  22.095  69.548  1.00  0.00     0.146 C 
ATOM      8  H2  UNL     1      28.551  20.362  69.115  1.00  0.00     0.159 HD
ENDBRANCH   1   5
BRANCH   1   9
HETATM    9  N3  UNL     1      29.518  22.659  72.069  1.00  0.00     0.071 NA
BRANCH   9  10
HETATM   10  N4  UNL     1      30.841  22.462  72.410  1.00  0.00    -0.322 N 
ATOM     11  H42 UNL     1      31.185  21.603  72.841  1.00  0.00     0.174 HD
ATOM     12  H41 UNL     1      31.420  23.269  72.179  1.00  0.00     0.174 HD
ENDBRANCH   9  10
ENDBRANCH   1   9
TORSDOF 4
ENDMDL
