MODEL 1
REMARK VINA RESULT: -5.534392196      0.000      0.000
REMARK  4 active torsions:
REMARK  status: ('A' for Active; 'I' for Inactive)
REMARK    1  A    between atoms: N2_4  and  N3_6 
REMARK    2  A    between atoms: N3_6  and  C1_8 
REMARK    3  A    between atoms: N4_9  and  N5_11 
REMARK    4  A    between atoms: N5_11  and  C2_13 
ROOT
HETATM    1  N3  UNL     1      34.055  28.589  68.619  1.00  0.00    -0.281 N 
ATOM      2  H3  UNL     1      33.393  28.172  69.273  1.00  0.00     0.189 HD
ENDROOT
BRANCH   1   3
HETATM    3  N2  UNL     1      35.246  29.090  69.138  1.00  0.00    -0.248 N 
HETATM    4  N1  UNL     1      36.311  28.410  69.068  1.00  0.00    -0.331 N 
ATOM      5  H12 UNL     1      36.279  27.491  68.626  1.00  0.00     0.178 HD
ATOM      6  H11 UNL     1      37.183  28.777  69.448  1.00  0.00     0.178 HD
ATOM      7  H2  UNL     1      35.260  30.011  69.576  1.00  0.00     0.207 HD
ENDBRANCH   1   3
BRANCH   1   8
HETATM    8  C1  UNL     1      33.699  28.616  67.261  1.00  0.00     0.215 C 
HETATM    9  N4  UNL     1      32.512  28.927  66.931  1.00  0.00    -0.293 N 
ATOM     10  H4  UNL     1      32.245  28.949  65.946  1.00  0.00     0.187 HD
BRANCH   9  11
HETATM   11  N5  UNL     1      31.579  29.237  67.906  1.00  0.00    -0.276 N 
ATOM     12  H5  UNL     1      31.381  30.222  68.087  1.00  0.00     0.189 HD
BRANCH  11  13
HETATM   13  C2  UNL     1      30.885  28.273  68.665  1.00  0.00     0.368 C 
HETATM   14  O1  UNL     1      31.229  28.068  69.842  1.00  0.00    -0.282 OA
ENDBRANCH  11  13
ENDBRANCH   9  11
ENDBRANCH   1   8
TORSDOF 4
ENDMDL
MODEL 2
REMARK VINA RESULT: -5.481919064      1.186      1.291
REMARK  4 active torsions:
REMARK  status: ('A' for Active; 'I' for Inactive)
REMARK    1  A    between atoms: N2_4  and  N3_6 
REMARK    2  A    between atoms: N3_6  and  C1_8 
REMARK    3  A    between atoms: N4_9  and  N5_11 
REMARK    4  A    between atoms: N5_11  and  C2_13 
ROOT
HETATM    1  N3  UNL     1      34.481  28.461  68.656  1.00  0.00    -0.281 N 
ATOM      2  H3  UNL     1      33.626  28.596  69.196  1.00  0.00     0.189 HD
ENDROOT
BRANCH   1   3
HETATM    3  N2  UNL     1      35.642  29.074  69.121  1.00  0.00    -0.248 N 
HETATM    4  N1  UNL     1      36.702  28.402  69.275  1.00  0.00    -0.331 N 
ATOM      5  H12 UNL     1      36.690  27.406  69.054  1.00  0.00     0.178 HD
ATOM      6  H11 UNL     1      37.552  28.851  69.616  1.00  0.00     0.178 HD
ATOM      7  H2  UNL     1      35.636  30.070  69.338  1.00  0.00     0.207 HD
ENDBRANCH   1   3
BRANCH   1   8
HETATM    8  C1  UNL     1      34.401  27.671  67.498  1.00  0.00     0.215 C 
HETATM    9  N4  UNL     1      33.500  27.914  66.635  1.00  0.00    -0.293 N 
ATOM     10  H4  UNL     1      33.435  27.345  65.791  1.00  0.00     0.187 HD
BRANCH   9  11
HETATM   11  N5  UNL     1      32.605  28.951  66.839  1.00  0.00    -0.276 N 
ATOM     12  H5  UNL     1      32.866  29.882  66.514  1.00  0.00     0.189 HD
BRANCH  11  13
HETATM   13  C2  UNL     1      31.354  28.797  67.470  1.00  0.00     0.368 C 
HETATM   14  O1  UNL     1      30.909  27.652  67.658  1.00  0.00    -0.282 OA
ENDBRANCH  11  13
ENDBRANCH   9  11
ENDBRANCH   1   8
TORSDOF 4
ENDMDL
MODEL 3
REMARK VINA RESULT: -5.357702238      1.937      2.559
REMARK  4 active torsions:
REMARK  status: ('A' for Active; 'I' for Inactive)
REMARK    1  A    between atoms: N2_4  and  N3_6 
REMARK    2  A    between atoms: N3_6  and  C1_8 
REMARK    3  A    between atoms: N4_9  and  N5_11 
REMARK    4  A    between atoms: N5_11  and  C2_13 
ROOT
HETATM    1  N3  UNL     1      33.536  27.947  66.419  1.00  0.00    -0.281 N 
ATOM      2  H3  UNL     1      32.587  28.010  66.050  1.00  0.00     0.189 HD
ENDROOT
BRANCH   1   3
HETATM    3  N2  UNL     1      34.374  26.973  65.883  1.00  0.00    -0.248 N 
HETATM    4  N1  UNL     1      34.527  26.879  64.630  1.00  0.00    -0.331 N 
ATOM      5  H12 UNL     1      34.025  27.528  64.024  1.00  0.00     0.178 HD
ATOM      6  H11 UNL     1      35.141  26.166  64.238  1.00  0.00     0.178 HD
ATOM      7  H2  UNL     1      34.868  26.332  66.503  1.00  0.00     0.207 HD
ENDBRANCH   1   3
BRANCH   1   8
HETATM    8  C1  UNL     1      33.901  28.849  67.431  1.00  0.00     0.215 C 
HETATM    9  N4  UNL     1      32.998  29.496  68.049  1.00  0.00    -0.293 N 
ATOM     10  H4  UNL     1      33.255  30.153  68.786  1.00  0.00     0.187 HD
BRANCH   9  11
HETATM   11  N5  UNL     1      31.665  29.309  67.724  1.00  0.00    -0.276 N 
ATOM     12  H5  UNL     1      31.276  29.860  66.959  1.00  0.00     0.189 HD
BRANCH  11  13
HETATM   13  C2  UNL     1      30.813  28.404  68.388  1.00  0.00     0.368 C 
HETATM   14  O1  UNL     1      30.923  27.188  68.154  1.00  0.00    -0.282 OA
ENDBRANCH  11  13
ENDBRANCH   9  11
ENDBRANCH   1   8
TORSDOF 4
ENDMDL
MODEL 4
REMARK VINA RESULT: -5.188420726      2.162      4.254
REMARK  4 active torsions:
REMARK  status: ('A' for Active; 'I' for Inactive)
REMARK    1  A    between atoms: N2_4  and  N3_6 
REMARK    2  A    between atoms: N3_6  and  C1_8 
REMARK    3  A    between atoms: N4_9  and  N5_11 
REMARK    4  A    between atoms: N5_11  and  C2_13 
ROOT
HETATM    1  N3  UNL     1      31.068  28.714  67.092  1.00  0.00    -0.281 N 
ATOM      2  H3  UNL     1      31.402  28.125  66.329  1.00  0.00     0.189 HD
ENDROOT
BRANCH   1   3
HETATM    3  N2  UNL     1      30.624  29.994  66.772  1.00  0.00    -0.248 N 
HETATM    4  N1  UNL     1      29.518  30.159  66.181  1.00  0.00    -0.331 N 
ATOM      5  H12 UNL     1      28.960  29.338  65.944  1.00  0.00     0.178 HD
ATOM      6  H11 UNL     1      29.193  31.096  65.947  1.00  0.00     0.178 HD
ATOM      7  H2  UNL     1      31.195  30.804  67.016  1.00  0.00     0.207 HD
ENDBRANCH   1   3
BRANCH   1   8
HETATM    8  C1  UNL     1      31.091  28.175  68.388  1.00  0.00     0.215 C 
HETATM    9  N4  UNL     1      32.173  28.192  69.055  1.00  0.00    -0.293 N 
ATOM     10  H4  UNL     1      32.198  27.802  69.997  1.00  0.00     0.187 HD
BRANCH   9  11
HETATM   11  N5  UNL     1      33.319  28.741  68.504  1.00  0.00    -0.276 N 
ATOM     12  H5  UNL     1      33.448  29.751  68.569  1.00  0.00     0.189 HD
BRANCH  11  13
HETATM   13  C2  UNL     1      34.319  27.987  67.857  1.00  0.00     0.368 C 
HETATM   14  O1  UNL     1      34.132  27.613  66.687  1.00  0.00    -0.282 OA
ENDBRANCH  11  13
ENDBRANCH   9  11
ENDBRANCH   1   8
TORSDOF 4
ENDMDL
MODEL 5
REMARK VINA RESULT: -5.182262835      2.492      4.663
REMARK  4 active torsions:
REMARK  status: ('A' for Active; 'I' for Inactive)
REMARK    1  A    between atoms: N2_4  and  N3_6 
REMARK    2  A    between atoms: N3_6  and  C1_8 
REMARK    3  A    between atoms: N4_9  and  N5_11 
REMARK    4  A    between atoms: N5_11  and  C2_13 
ROOT
HETATM    1  N3  UNL     1      30.436  29.500  66.804  1.00  0.00    -0.281 N 
ATOM      2  H3  UNL     1      30.414  28.522  66.516  1.00  0.00     0.189 HD
ENDROOT
BRANCH   1   3
HETATM    3  N2  UNL     1      29.623  30.395  66.114  1.00  0.00    -0.248 N 
HETATM    4  N1  UNL     1      28.364  30.280  66.159  1.00  0.00    -0.331 N 
ATOM      5  H12 UNL     1      27.958  29.522  66.708  1.00  0.00     0.178 HD
ATOM      6  H11 UNL     1      27.768  30.935  65.654  1.00  0.00     0.178 HD
ATOM      7  H2  UNL     1      30.045  31.147  65.570  1.00  0.00     0.207 HD
ENDBRANCH   1   3
BRANCH   1   8
HETATM    8  C1  UNL     1      31.286  29.846  67.867  1.00  0.00     0.215 C 
HETATM    9  N4  UNL     1      32.512  29.513  67.824  1.00  0.00    -0.293 N 
ATOM     10  H4  UNL     1      33.135  29.761  68.592  1.00  0.00     0.187 HD
BRANCH   9  11
HETATM   11  N5  UNL     1      33.003  28.814  66.733  1.00  0.00    -0.276 N 
ATOM     12  H5  UNL     1      32.738  29.133  65.801  1.00  0.00     0.189 HD
BRANCH  11  13
HETATM   13  C2  UNL     1      33.845  27.689  66.836  1.00  0.00     0.368 C 
HETATM   14  O1  UNL     1      34.425  27.464  67.912  1.00  0.00    -0.282 OA
ENDBRANCH  11  13
ENDBRANCH   9  11
ENDBRANCH   1   8
TORSDOF 4
ENDMDL
