MODEL 1
REMARK VINA RESULT: -3.980363557      0.000      0.000
REMARK  4 active torsions:
REMARK  status: ('A' for Active; 'I' for Inactive)
REMARK    1  A    between atoms: N1_2  and  N2_4 
REMARK    2  A    between atoms: C2_6  and  N3_7 
REMARK    3  A    between atoms: C4_9  and  C5_10 
REMARK    4  A    between atoms: C5_10  and  N4_11 
ROOT
HETATM    1  N3  UNL     1      32.733  28.398  67.606  1.00  0.00    -0.366 N 
HETATM    2  C3  UNL     1      33.570  27.158  67.494  1.00  0.00     0.151 A 
HETATM    3  C4  UNL     1      34.149  28.538  67.659  1.00  0.00     0.128 A 
ENDROOT
BRANCH   1   4
HETATM    4  C2  UNL     1      31.409  28.907  67.625  1.00  0.00     0.195 C 
HETATM    5  N2  UNL     1      30.888  29.550  66.635  1.00  0.00    -0.301 N 
ATOM      6  H2  UNL     1      31.458  29.695  65.801  1.00  0.00     0.187 HD
BRANCH   5   7
HETATM    7  N1  UNL     1      29.594  30.052  66.644  1.00  0.00    -0.340 N 
HETATM    8  C1  UNL     1      29.067  30.761  65.502  1.00  0.00     0.167 C 
ATOM      9  H1  UNL     1      29.008  29.919  67.467  1.00  0.00     0.179 HD
ENDBRANCH   5   7
ENDBRANCH   1   4
BRANCH   3  10
HETATM   10  C5  UNL     1      34.883  28.778  68.929  1.00  0.00     0.256 C 
BRANCH  10  11
HETATM   11  N4  UNL     1      36.255  28.334  68.912  1.00  0.00    -0.077 N 
ATOM     12  H43 UNL     1      36.717  28.566  69.792  1.00  0.00     0.274 HD
ATOM     13  H42 UNL     1      36.302  27.316  68.957  1.00  0.00     0.274 HD
ATOM     14  H41 UNL     1      36.798  28.681  68.121  1.00  0.00     0.274 HD
ENDBRANCH  10  11
ENDBRANCH   3  10
TORSDOF 4
ENDMDL
MODEL 2
REMARK VINA RESULT: -3.836242689      1.279      1.573
REMARK  4 active torsions:
REMARK  status: ('A' for Active; 'I' for Inactive)
REMARK    1  A    between atoms: N1_2  and  N2_4 
REMARK    2  A    between atoms: C2_6  and  N3_7 
REMARK    3  A    between atoms: C4_9  and  C5_10 
REMARK    4  A    between atoms: C5_10  and  N4_11 
ROOT
HETATM    1  N3  UNL     1      31.520  28.720  67.621  1.00  0.00    -0.366 N 
HETATM    2  C3  UNL     1      31.477  27.433  68.392  1.00  0.00     0.151 A 
HETATM    3  C4  UNL     1      32.641  27.848  67.531  1.00  0.00     0.128 A 
ENDROOT
BRANCH   1   4
HETATM    4  C2  UNL     1      30.812  29.909  67.308  1.00  0.00     0.195 C 
HETATM    5  N2  UNL     1      29.923  29.972  66.376  1.00  0.00    -0.301 N 
ATOM      6  H2  UNL     1      29.722  29.127  65.842  1.00  0.00     0.187 HD
BRANCH   5   7
HETATM    7  N1  UNL     1      29.225  31.131  66.061  1.00  0.00    -0.340 N 
HETATM    8  C1  UNL     1      28.498  31.243  64.819  1.00  0.00     0.167 C 
ATOM      9  H1  UNL     1      29.227  31.913  66.715  1.00  0.00     0.179 HD
ENDBRANCH   5   7
ENDBRANCH   1   4
BRANCH   3  10
HETATM   10  C5  UNL     1      33.915  28.102  68.255  1.00  0.00     0.256 C 
BRANCH  10  11
HETATM   11  N4  UNL     1      34.305  29.491  68.296  1.00  0.00    -0.077 N 
ATOM     12  H43 UNL     1      33.691  30.051  67.705  1.00  0.00     0.274 HD
ATOM     13  H42 UNL     1      34.086  29.896  69.206  1.00  0.00     0.274 HD
ATOM     14  H41 UNL     1      35.282  29.658  68.056  1.00  0.00     0.274 HD
ENDBRANCH  10  11
ENDBRANCH   3  10
TORSDOF 4
ENDMDL
MODEL 3
REMARK VINA RESULT: -3.755948150      1.504      1.754
REMARK  4 active torsions:
REMARK  status: ('A' for Active; 'I' for Inactive)
REMARK    1  A    between atoms: N1_2  and  N2_4 
REMARK    2  A    between atoms: C2_6  and  N3_7 
REMARK    3  A    between atoms: C4_9  and  C5_10 
REMARK    4  A    between atoms: C5_10  and  N4_11 
ROOT
HETATM    1  N3  UNL     1      32.428  28.726  67.723  1.00  0.00    -0.366 N 
HETATM    2  C3  UNL     1      33.637  29.543  68.070  1.00  0.00     0.151 A 
HETATM    3  C4  UNL     1      33.580  28.044  68.206  1.00  0.00     0.128 A 
ENDROOT
BRANCH   1   4
HETATM    4  C2  UNL     1      31.094  28.774  67.240  1.00  0.00     0.195 C 
HETATM    5  N2  UNL     1      30.560  29.845  66.759  1.00  0.00    -0.301 N 
ATOM      6  H2  UNL     1      31.125  30.693  66.726  1.00  0.00     0.187 HD
BRANCH   5   7
HETATM    7  N1  UNL     1      29.256  29.903  66.285  1.00  0.00    -0.340 N 
HETATM    8  C1  UNL     1      28.798  31.034  65.513  1.00  0.00     0.167 C 
ATOM      9  H1  UNL     1      28.613  29.137  66.484  1.00  0.00     0.179 HD
ENDBRANCH   5   7
ENDBRANCH   1   4
BRANCH   3  10
HETATM   10  C5  UNL     1      34.495  27.284  67.313  1.00  0.00     0.256 C 
BRANCH  10  11
HETATM   11  N4  UNL     1      34.093  27.271  65.928  1.00  0.00    -0.077 N 
ATOM     12  H43 UNL     1      34.584  27.997  65.407  1.00  0.00     0.274 HD
ATOM     13  H42 UNL     1      34.460  26.443  65.458  1.00  0.00     0.274 HD
ATOM     14  H41 UNL     1      33.086  27.347  65.783  1.00  0.00     0.274 HD
ENDBRANCH  10  11
ENDBRANCH   3  10
TORSDOF 4
ENDMDL
MODEL 4
REMARK VINA RESULT: -3.680007987      8.511      8.964
REMARK  4 active torsions:
REMARK  status: ('A' for Active; 'I' for Inactive)
REMARK    1  A    between atoms: N1_2  and  N2_4 
REMARK    2  A    between atoms: C2_6  and  N3_7 
REMARK    3  A    between atoms: C4_9  and  C5_10 
REMARK    4  A    between atoms: C5_10  and  N4_11 
ROOT
HETATM    1  N3  UNL     1      29.044  21.245  72.186  1.00  0.00    -0.366 N 
HETATM    2  C3  UNL     1      29.159  20.647  73.557  1.00  0.00     0.151 A 
HETATM    3  C4  UNL     1      30.329  20.817  72.624  1.00  0.00     0.128 A 
ENDROOT
BRANCH   1   4
HETATM    4  C2  UNL     1      28.154  21.813  71.238  1.00  0.00     0.195 C 
HETATM    5  N2  UNL     1      28.413  21.866  69.975  1.00  0.00    -0.301 N 
ATOM      6  H2  UNL     1      29.298  21.481  69.647  1.00  0.00     0.187 HD
BRANCH   5   7
HETATM    7  N1  UNL     1      27.549  22.420  69.040  1.00  0.00    -0.340 N 
HETATM    8  C1  UNL     1      26.623  23.462  69.413  1.00  0.00     0.167 C 
ATOM      9  H1  UNL     1      27.569  22.086  68.076  1.00  0.00     0.179 HD
ENDBRANCH   5   7
ENDBRANCH   1   4
BRANCH   3  10
HETATM   10  C5  UNL     1      31.378  21.767  73.079  1.00  0.00     0.256 C 
BRANCH  10  11
HETATM   11  N4  UNL     1      32.584  21.741  72.287  1.00  0.00    -0.077 N 
ATOM     12  H43 UNL     1      32.897  22.689  72.081  1.00  0.00     0.274 HD
ATOM     13  H42 UNL     1      33.372  21.417  72.848  1.00  0.00     0.274 HD
ATOM     14  H41 UNL     1      32.508  21.196  71.428  1.00  0.00     0.274 HD
ENDBRANCH  10  11
ENDBRANCH   3  10
TORSDOF 4
ENDMDL
MODEL 5
REMARK VINA RESULT: -3.655379981      8.472     10.038
REMARK  4 active torsions:
REMARK  status: ('A' for Active; 'I' for Inactive)
REMARK    1  A    between atoms: N1_2  and  N2_4 
REMARK    2  A    between atoms: C2_6  and  N3_7 
REMARK    3  A    between atoms: C4_9  and  C5_10 
REMARK    4  A    between atoms: C5_10  and  N4_11 
ROOT
HETATM    1  N3  UNL     1      29.287  21.535  72.344  1.00  0.00    -0.366 N 
HETATM    2  C3  UNL     1      27.850  21.241  72.658  1.00  0.00     0.151 A 
HETATM    3  C4  UNL     1      28.331  21.679  71.300  1.00  0.00     0.128 A 
ENDROOT
BRANCH   1   4
HETATM    4  C2  UNL     1      30.604  21.583  72.871  1.00  0.00     0.195 C 
HETATM    5  N2  UNL     1      31.426  22.545  72.620  1.00  0.00    -0.301 N 
ATOM      6  H2  UNL     1      31.112  23.303  72.015  1.00  0.00     0.187 HD
BRANCH   5   7
HETATM    7  N1  UNL     1      32.717  22.601  73.130  1.00  0.00    -0.340 N 
HETATM    8  C1  UNL     1      33.152  23.729  73.918  1.00  0.00     0.167 C 
ATOM      9  H1  UNL     1      33.365  21.836  72.945  1.00  0.00     0.179 HD
ENDBRANCH   5   7
ENDBRANCH   1   4
BRANCH   3  10
HETATM   10  C5  UNL     1      28.176  20.677  70.212  1.00  0.00     0.256 C 
BRANCH  10  11
HETATM   11  N4  UNL     1      28.338  21.217  68.884  1.00  0.00    -0.077 N 
ATOM     12  H43 UNL     1      29.200  21.759  68.821  1.00  0.00     0.274 HD
ATOM     13  H42 UNL     1      28.554  20.473  68.220  1.00  0.00     0.274 HD
ATOM     14  H41 UNL     1      27.545  21.769  68.557  1.00  0.00     0.274 HD
ENDBRANCH  10  11
ENDBRANCH   3  10
TORSDOF 4
ENDMDL
