MODEL 1
REMARK VINA RESULT: -6.660278807      0.000      0.000
REMARK  15 active torsions:
REMARK  status: ('A' for Active; 'I' for Inactive)
REMARK    1  A    between atoms: N1_1  and  C1_4 
REMARK    2  A    between atoms: C2_7  and  N3_8 
REMARK    3  A    between atoms: N3_8  and  N4_10 
REMARK    4  A    between atoms: C4_16  and  N6_17 
REMARK    5  A    between atoms: N6_17  and  C5_19 
REMARK    6  A    between atoms: C5_19  and  C6_20 
REMARK    7  A    between atoms: C6_20  and  C7_21 
REMARK    8  A    between atoms: C7_21  and  N7_22 
REMARK    9  A    between atoms: N7_22  and  C8_24 
REMARK   10  A    between atoms: C8_24  and  C9_25 
REMARK   11  A    between atoms: C9_25  and  S1_26 
REMARK   12  A    between atoms: S1_26  and  C10_27 
REMARK   13  A    between atoms: C10_27  and  C11_28 
REMARK   14  A    between atoms: C11_28  and  C12_29 
REMARK   15  A    between atoms: C12_29  and  O1_30 
ROOT
HETATM    1  C1  UNL     1      -6.054 -23.374  26.163  1.00  0.00     0.679 A 
HETATM    2  N2  UNL     1      -7.279 -23.584  26.670  1.00  0.00    -0.173 N 
ATOM      3  H2  UNL     1      -7.966 -24.060  26.085  1.00  0.00     0.186 HD
HETATM    4  C2  UNL     1      -7.654 -23.206  27.899  1.00  0.00     0.166 A 
HETATM    5  C3  UNL     1      -6.733 -22.563  28.694  1.00  0.00     0.125 A 
HETATM    6  N5  UNL     1      -7.063 -22.165  29.933  1.00  0.00    -0.335 N 
ATOM      7  H5  UNL     1      -8.001 -22.340  30.292  1.00  0.00     0.168 HD
HETATM    8  C4  UNL     1      -6.154 -21.537  30.700  1.00  0.00     0.117 A 
HETATM    9  C13 UNL     1      -4.884 -21.323  30.166  1.00  0.00     0.138 A 
HETATM   10  N8  UNL     1      -4.536 -21.712  28.934  1.00  0.00    -0.346 N 
ATOM     11  H8  UNL     1      -3.597 -21.539  28.574  1.00  0.00     0.167 HD
HETATM   12  C14 UNL     1      -5.464 -22.340  28.182  1.00  0.00     0.151 A 
HETATM   13  N9  UNL     1      -5.143 -22.747  26.930  1.00  0.00    -0.174 N 
ATOM     14  H9  UNL     1      -4.205 -22.576  26.566  1.00  0.00     0.186 HD
ENDROOT
BRANCH   8  15
HETATM   15  N6  UNL     1      -6.452 -21.147  31.891  1.00  0.00    -0.375 N 
ATOM     16  H6  UNL     1      -5.941 -20.356  32.284  1.00  0.00     0.161 HD
BRANCH  15  17
HETATM   17  C5  UNL     1      -7.474 -21.775  32.694  1.00  0.00     0.123 C 
BRANCH  17  18
HETATM   18  C6  UNL     1      -6.825 -22.309  33.978  1.00  0.00     0.039 C 
BRANCH  18  19
HETATM   19  C7  UNL     1      -7.400 -21.471  35.103  1.00  0.00     0.115 C 
BRANCH  19  20
HETATM   20  N7  UNL     1      -8.710 -20.966  34.839  1.00  0.00    -0.420 N 
ATOM     21  H7  UNL     1      -8.988 -20.627  33.918  1.00  0.00     0.153 HD
BRANCH  20  22
HETATM   22  C8  UNL     1      -9.602 -20.968  35.949  1.00  0.00     0.124 C 
BRANCH  22  23
HETATM   23  C9  UNL     1     -11.014 -21.362  35.623  1.00  0.00     0.093 C 
BRANCH  23  24
HETATM   24  S1  UNL     1     -11.055 -21.704  33.819  1.00  0.00    -0.167 SA
BRANCH  24  25
HETATM   25  C10 UNL     1     -12.656 -22.540  33.519  1.00  0.00     0.076 C 
BRANCH  25  26
HETATM   26  C11 UNL     1     -12.455 -23.600  32.454  1.00  0.00     0.036 C 
BRANCH  26  27
HETATM   27  C12 UNL     1     -11.035 -23.627  31.958  1.00  0.00     0.165 C 
BRANCH  27  28
HETATM   28  O1  UNL     1     -11.055 -23.895  30.578  1.00  0.00    -0.401 OA
ATOM     29  H1  UNL     1     -11.345 -24.790  30.453  1.00  0.00     0.209 HD
ENDBRANCH  27  28
ENDBRANCH  26  27
ENDBRANCH  25  26
ENDBRANCH  24  25
ENDBRANCH  23  24
ENDBRANCH  22  23
ENDBRANCH  20  22
ENDBRANCH  19  20
ENDBRANCH  18  19
ENDBRANCH  17  18
ENDBRANCH  15  17
ENDBRANCH   8  15
BRANCH   4  30
HETATM   30  N3  UNL     1      -8.824 -23.407  28.386  1.00  0.00    -0.290 N 
ATOM     31  H3  UNL     1      -9.291 -22.617  28.832  1.00  0.00     0.188 HD
BRANCH  30  32
HETATM   32  N4  UNL     1      -9.503 -24.617  28.352  1.00  0.00    -0.344 N 
ATOM     33  H42 UNL     1      -9.113 -25.339  27.747  1.00  0.00     0.176 HD
ATOM     34  H41 UNL     1     -10.349 -24.827  28.882  1.00  0.00     0.176 HD
ENDBRANCH  30  32
ENDBRANCH   4  30
BRANCH   1  35
HETATM   35  N1  UNL     1      -5.758 -23.772  24.953  1.00  0.00    -0.234 N 
ATOM     36  H12 UNL     1      -6.154 -23.308  24.136  1.00  0.00     0.174 HD
ATOM     37  H11 UNL     1      -5.122 -24.556  24.805  1.00  0.00     0.174 HD
ENDBRANCH   1  35
TORSDOF 15
ENDMDL
MODEL 2
REMARK VINA RESULT: -6.337077906      1.333      1.775
REMARK  15 active torsions:
REMARK  status: ('A' for Active; 'I' for Inactive)
REMARK    1  A    between atoms: N1_1  and  C1_4 
REMARK    2  A    between atoms: C2_7  and  N3_8 
REMARK    3  A    between atoms: N3_8  and  N4_10 
REMARK    4  A    between atoms: C4_16  and  N6_17 
REMARK    5  A    between atoms: N6_17  and  C5_19 
REMARK    6  A    between atoms: C5_19  and  C6_20 
REMARK    7  A    between atoms: C6_20  and  C7_21 
REMARK    8  A    between atoms: C7_21  and  N7_22 
REMARK    9  A    between atoms: N7_22  and  C8_24 
REMARK   10  A    between atoms: C8_24  and  C9_25 
REMARK   11  A    between atoms: C9_25  and  S1_26 
REMARK   12  A    between atoms: S1_26  and  C10_27 
REMARK   13  A    between atoms: C10_27  and  C11_28 
REMARK   14  A    between atoms: C11_28  and  C12_29 
REMARK   15  A    between atoms: C12_29  and  O1_30 
ROOT
HETATM    1  C1  UNL     1      -6.597 -23.929  24.536  1.00  0.00     0.679 A 
HETATM    2  N2  UNL     1      -7.833 -24.070  25.041  1.00  0.00    -0.173 N 
ATOM      3  H2  UNL     1      -8.552 -24.478  24.443  1.00  0.00     0.186 HD
HETATM    4  C2  UNL     1      -8.178 -23.708  26.283  1.00  0.00     0.166 A 
HETATM    5  C3  UNL     1      -7.214 -23.156  27.094  1.00  0.00     0.125 A 
HETATM    6  N5  UNL     1      -7.513 -22.777  28.346  1.00  0.00    -0.335 N 
ATOM      7  H5  UNL     1      -8.461 -22.897  28.704  1.00  0.00     0.168 HD
HETATM    8  C4  UNL     1      -6.562 -22.238  29.130  1.00  0.00     0.117 A 
HETATM    9  C13 UNL     1      -5.281 -22.095  28.598  1.00  0.00     0.138 A 
HETATM   10  N8  UNL     1      -4.963 -22.467  27.353  1.00  0.00    -0.346 N 
ATOM     11  H8  UNL     1      -4.015 -22.348  26.995  1.00  0.00     0.167 HD
HETATM   12  C14 UNL     1      -5.933 -23.004  26.585  1.00  0.00     0.151 A 
HETATM   13  N9  UNL     1      -5.643 -23.391  25.318  1.00  0.00    -0.174 N 
ATOM     14  H9  UNL     1      -4.697 -23.274  24.957  1.00  0.00     0.186 HD
ENDROOT
BRANCH   8  15
HETATM   15  N6  UNL     1      -6.830 -21.867  30.334  1.00  0.00    -0.375 N 
ATOM     16  H6  UNL     1      -7.804 -21.863  30.635  1.00  0.00     0.161 HD
BRANCH  15  17
HETATM   17  C5  UNL     1      -5.816 -21.456  31.277  1.00  0.00     0.123 C 
BRANCH  17  18
HETATM   18  C6  UNL     1      -6.371 -21.632  32.697  1.00  0.00     0.039 C 
BRANCH  18  19
HETATM   19  C7  UNL     1      -7.201 -20.392  32.966  1.00  0.00     0.115 C 
BRANCH  19  20
HETATM   20  N7  UNL     1      -7.579 -20.233  34.335  1.00  0.00    -0.420 N 
ATOM     21  H7  UNL     1      -6.899 -20.031  35.068  1.00  0.00     0.153 HD
BRANCH  20  22
HETATM   22  C8  UNL     1      -8.970 -20.374  34.604  1.00  0.00     0.124 C 
BRANCH  22  23
HETATM   23  C9  UNL     1      -9.821 -20.647  33.397  1.00  0.00     0.093 C 
BRANCH  23  24
HETATM   24  S1  UNL     1     -11.344 -21.471  34.010  1.00  0.00    -0.167 SA
BRANCH  24  25
HETATM   25  C10 UNL     1     -11.441 -23.054  33.097  1.00  0.00     0.076 C 
BRANCH  25  26
HETATM   26  C11 UNL     1     -10.309 -23.101  32.089  1.00  0.00     0.036 C 
BRANCH  26  27
HETATM   27  C12 UNL     1     -10.624 -24.023  30.943  1.00  0.00     0.165 C 
BRANCH  27  28
HETATM   28  O1  UNL     1      -9.907 -23.586  29.815  1.00  0.00    -0.401 OA
ATOM     29  H1  UNL     1      -9.603 -24.350  29.341  1.00  0.00     0.209 HD
ENDBRANCH  27  28
ENDBRANCH  26  27
ENDBRANCH  25  26
ENDBRANCH  24  25
ENDBRANCH  23  24
ENDBRANCH  22  23
ENDBRANCH  20  22
ENDBRANCH  19  20
ENDBRANCH  18  19
ENDBRANCH  17  18
ENDBRANCH  15  17
ENDBRANCH   8  15
BRANCH   4  30
HETATM   30  N3  UNL     1      -9.359 -23.843  26.768  1.00  0.00    -0.290 N 
ATOM     31  H3  UNL     1      -9.845 -22.998  27.067  1.00  0.00     0.188 HD
BRANCH  30  32
HETATM   32  N4  UNL     1     -10.024 -25.052  26.917  1.00  0.00    -0.344 N 
ATOM     33  H42 UNL     1      -9.725 -25.812  26.306  1.00  0.00     0.176 HD
ATOM     34  H41 UNL     1     -10.777 -25.227  27.583  1.00  0.00     0.176 HD
ENDBRANCH  30  32
ENDBRANCH   4  30
BRANCH   1  35
HETATM   35  N1  UNL     1      -6.332 -24.307  23.312  1.00  0.00    -0.234 N 
ATOM     36  H12 UNL     1      -7.074 -24.613  22.684  1.00  0.00     0.174 HD
ATOM     37  H11 UNL     1      -5.373 -24.301  22.964  1.00  0.00     0.174 HD
ENDBRANCH   1  35
TORSDOF 15
ENDMDL
MODEL 3
REMARK VINA RESULT: -6.194435699      1.813      2.861
REMARK  15 active torsions:
REMARK  status: ('A' for Active; 'I' for Inactive)
REMARK    1  A    between atoms: N1_1  and  C1_4 
REMARK    2  A    between atoms: C2_7  and  N3_8 
REMARK    3  A    between atoms: N3_8  and  N4_10 
REMARK    4  A    between atoms: C4_16  and  N6_17 
REMARK    5  A    between atoms: N6_17  and  C5_19 
REMARK    6  A    between atoms: C5_19  and  C6_20 
REMARK    7  A    between atoms: C6_20  and  C7_21 
REMARK    8  A    between atoms: C7_21  and  N7_22 
REMARK    9  A    between atoms: N7_22  and  C8_24 
REMARK   10  A    between atoms: C8_24  and  C9_25 
REMARK   11  A    between atoms: C9_25  and  S1_26 
REMARK   12  A    between atoms: S1_26  and  C10_27 
REMARK   13  A    between atoms: C10_27  and  C11_28 
REMARK   14  A    between atoms: C11_28  and  C12_29 
REMARK   15  A    between atoms: C12_29  and  O1_30 
ROOT
HETATM    1  C1  UNL     1      -5.563 -23.324  26.203  1.00  0.00     0.679 A 
HETATM    2  N2  UNL     1      -6.868 -23.602  26.350  1.00  0.00    -0.173 N 
ATOM      3  H2  UNL     1      -7.348 -24.071  25.582  1.00  0.00     0.186 HD
HETATM    4  C2  UNL     1      -7.579 -23.300  27.444  1.00  0.00     0.166 A 
HETATM    5  C3  UNL     1      -6.938 -22.665  28.483  1.00  0.00     0.125 A 
HETATM    6  N5  UNL     1      -7.609 -22.342  29.600  1.00  0.00    -0.335 N 
ATOM      7  H5  UNL     1      -8.600 -22.567  29.684  1.00  0.00     0.168 HD
HETATM    8  C4  UNL     1      -6.972 -21.722  30.610  1.00  0.00     0.117 A 
HETATM    9  C13 UNL     1      -5.617 -21.438  30.450  1.00  0.00     0.138 A 
HETATM   10  N8  UNL     1      -4.930 -21.751  29.345  1.00  0.00    -0.346 N 
ATOM     11  H8  UNL     1      -3.939 -21.528  29.261  1.00  0.00     0.167 HD
HETATM   12  C14 UNL     1      -5.590 -22.372  28.345  1.00  0.00     0.151 A 
HETATM   13  N9  UNL     1      -4.924 -22.704  27.212  1.00  0.00    -0.174 N 
ATOM     14  H9  UNL     1      -3.932 -22.483  27.124  1.00  0.00     0.186 HD
ENDROOT
BRANCH   8  15
HETATM   15  N6  UNL     1      -7.598 -21.403  31.689  1.00  0.00    -0.375 N 
ATOM     16  H6  UNL     1      -7.051 -21.157  32.513  1.00  0.00     0.161 HD
BRANCH  15  17
HETATM   17  C5  UNL     1      -9.039 -21.378  31.787  1.00  0.00     0.123 C 
BRANCH  17  18
HETATM   18  C6  UNL     1      -9.508 -22.691  32.428  1.00  0.00     0.039 C 
BRANCH  18  19
HETATM   19  C7  UNL     1     -10.820 -22.362  33.114  1.00  0.00     0.115 C 
BRANCH  19  20
HETATM   20  N7  UNL     1     -10.772 -21.187  33.925  1.00  0.00    -0.420 N 
ATOM     21  H7  UNL     1     -10.561 -20.267  33.539  1.00  0.00     0.153 HD
BRANCH  20  22
HETATM   22  C8  UNL     1     -11.041 -21.389  35.308  1.00  0.00     0.124 C 
BRANCH  22  23
HETATM   23  C9  UNL     1      -9.946 -20.943  36.235  1.00  0.00     0.093 C 
BRANCH  23  24
HETATM   24  S1  UNL     1      -8.781 -19.947  35.222  1.00  0.00    -0.167 SA
BRANCH  24  25
HETATM   25  C10 UNL     1      -7.131 -20.686  35.511  1.00  0.00     0.076 C 
BRANCH  25  26
HETATM   26  C11 UNL     1      -7.315 -22.141  35.894  1.00  0.00     0.036 C 
BRANCH  26  27
HETATM   27  C12 UNL     1      -6.794 -23.066  34.828  1.00  0.00     0.165 C 
BRANCH  27  28
HETATM   28  O1  UNL     1      -5.818 -22.378  34.086  1.00  0.00    -0.401 OA
ATOM     29  H1  UNL     1      -5.143 -22.997  33.836  1.00  0.00     0.209 HD
ENDBRANCH  27  28
ENDBRANCH  26  27
ENDBRANCH  25  26
ENDBRANCH  24  25
ENDBRANCH  23  24
ENDBRANCH  22  23
ENDBRANCH  20  22
ENDBRANCH  19  20
ENDBRANCH  18  19
ENDBRANCH  17  18
ENDBRANCH  15  17
ENDBRANCH   8  15
BRANCH   4  30
HETATM   30  N3  UNL     1      -8.826 -23.566  27.586  1.00  0.00    -0.290 N 
ATOM     31  H3  UNL     1      -9.325 -23.095  28.341  1.00  0.00     0.188 HD
BRANCH  30  32
HETATM   32  N4  UNL     1      -9.548 -24.445  26.791  1.00  0.00    -0.344 N 
ATOM     33  H42 UNL     1      -9.357 -25.438  26.924  1.00  0.00     0.176 HD
ATOM     34  H41 UNL     1     -10.243 -24.170  26.097  1.00  0.00     0.176 HD
ENDBRANCH  30  32
ENDBRANCH   4  30
BRANCH   1  35
HETATM   35  N1  UNL     1      -4.933 -23.649  25.104  1.00  0.00    -0.234 N 
ATOM     36  H12 UNL     1      -4.414 -22.953  24.571  1.00  0.00     0.174 HD
ATOM     37  H11 UNL     1      -4.950 -24.610  24.761  1.00  0.00     0.174 HD
ENDBRANCH   1  35
TORSDOF 15
ENDMDL
MODEL 4
REMARK VINA RESULT: -6.171264741      1.805      3.094
REMARK  15 active torsions:
REMARK  status: ('A' for Active; 'I' for Inactive)
REMARK    1  A    between atoms: N1_1  and  C1_4 
REMARK    2  A    between atoms: C2_7  and  N3_8 
REMARK    3  A    between atoms: N3_8  and  N4_10 
REMARK    4  A    between atoms: C4_16  and  N6_17 
REMARK    5  A    between atoms: N6_17  and  C5_19 
REMARK    6  A    between atoms: C5_19  and  C6_20 
REMARK    7  A    between atoms: C6_20  and  C7_21 
REMARK    8  A    between atoms: C7_21  and  N7_22 
REMARK    9  A    between atoms: N7_22  and  C8_24 
REMARK   10  A    between atoms: C8_24  and  C9_25 
REMARK   11  A    between atoms: C9_25  and  S1_26 
REMARK   12  A    between atoms: S1_26  and  C10_27 
REMARK   13  A    between atoms: C10_27  and  C11_28 
REMARK   14  A    between atoms: C11_28  and  C12_29 
REMARK   15  A    between atoms: C12_29  and  O1_30 
ROOT
HETATM    1  C1  UNL     1      -7.663 -24.384  23.317  1.00  0.00     0.679 A 
HETATM    2  N2  UNL     1      -8.697 -24.478  24.167  1.00  0.00    -0.173 N 
ATOM      3  H2  UNL     1      -9.592 -24.803  23.800  1.00  0.00     0.186 HD
HETATM    4  C2  UNL     1      -8.625 -24.172  25.468  1.00  0.00     0.166 A 
HETATM    5  C3  UNL     1      -7.422 -23.733  25.971  1.00  0.00     0.125 A 
HETATM    6  N5  UNL     1      -7.302 -23.414  27.269  1.00  0.00    -0.335 N 
ATOM      7  H5  UNL     1      -8.105 -23.497  27.892  1.00  0.00     0.168 HD
HETATM    8  C4  UNL     1      -6.120 -22.985  27.748  1.00  0.00     0.117 A 
HETATM    9  C13 UNL     1      -5.051 -22.891  26.859  1.00  0.00     0.138 A 
HETATM   10  N8  UNL     1      -5.150 -23.204  25.562  1.00  0.00    -0.346 N 
ATOM     11  H8  UNL     1      -4.346 -23.123  24.938  1.00  0.00     0.167 HD
HETATM   12  C14 UNL     1      -6.345 -23.631  25.104  1.00  0.00     0.151 A 
HETATM   13  N9  UNL     1      -6.479 -23.956  23.794  1.00  0.00    -0.174 N 
ATOM     14  H9  UNL     1      -5.678 -23.877  23.168  1.00  0.00     0.186 HD
ENDROOT
BRANCH   8  15
HETATM   15  N6  UNL     1      -5.985 -22.673  28.990  1.00  0.00    -0.375 N 
ATOM     16  H6  UNL     1      -6.676 -23.021  29.655  1.00  0.00     0.161 HD
BRANCH  15  17
HETATM   17  C5  UNL     1      -4.903 -21.855  29.485  1.00  0.00     0.123 C 
BRANCH  17  18
HETATM   18  C6  UNL     1      -5.379 -21.131  30.752  1.00  0.00     0.039 C 
BRANCH  18  19
HETATM   19  C7  UNL     1      -6.526 -21.965  31.289  1.00  0.00     0.115 C 
BRANCH  19  20
HETATM   20  N7  UNL     1      -7.776 -21.273  31.329  1.00  0.00    -0.420 N 
ATOM     21  H7  UNL     1      -8.374 -21.179  30.509  1.00  0.00     0.153 HD
BRANCH  20  22
HETATM   22  C8  UNL     1      -8.130 -20.726  32.595  1.00  0.00     0.124 C 
BRANCH  22  23
HETATM   23  C9  UNL     1      -9.579 -20.353  32.738  1.00  0.00     0.093 C 
BRANCH  23  24
HETATM   24  S1  UNL     1     -10.267 -21.434  34.053  1.00  0.00    -0.167 SA
BRANCH  24  25
HETATM   25  C10 UNL     1     -11.276 -22.685  33.176  1.00  0.00     0.076 C 
BRANCH  25  26
HETATM   26  C11 UNL     1     -10.344 -23.661  32.487  1.00  0.00     0.036 C 
BRANCH  26  27
HETATM   27  C12 UNL     1     -10.773 -23.935  31.072  1.00  0.00     0.165 C 
BRANCH  27  28
HETATM   28  O1  UNL     1      -9.880 -23.279  30.206  1.00  0.00    -0.401 OA
ATOM     29  H1  UNL     1      -9.510 -22.535  30.667  1.00  0.00     0.209 HD
ENDBRANCH  27  28
ENDBRANCH  26  27
ENDBRANCH  25  26
ENDBRANCH  24  25
ENDBRANCH  23  24
ENDBRANCH  22  23
ENDBRANCH  20  22
ENDBRANCH  19  20
ENDBRANCH  18  19
ENDBRANCH  17  18
ENDBRANCH  15  17
ENDBRANCH   8  15
BRANCH   4  30
HETATM   30  N3  UNL     1      -9.613 -24.263  26.283  1.00  0.00    -0.290 N 
ATOM     31  H3  UNL     1      -9.880 -23.423  26.795  1.00  0.00     0.188 HD
BRANCH  30  32
HETATM   32  N4  UNL     1     -10.345 -25.418  26.520  1.00  0.00    -0.344 N 
ATOM     33  H42 UNL     1      -9.812 -26.247  26.781  1.00  0.00     0.176 HD
ATOM     34  H41 UNL     1     -11.360 -25.491  26.452  1.00  0.00     0.176 HD
ENDBRANCH  30  32
ENDBRANCH   4  30
BRANCH   1  35
HETATM   35  N1  UNL     1      -7.806 -24.701  22.056  1.00  0.00    -0.234 N 
ATOM     36  H12 UNL     1      -7.695 -24.001  21.323  1.00  0.00     0.174 HD
ATOM     37  H11 UNL     1      -8.032 -25.658  21.784  1.00  0.00     0.174 HD
ENDBRANCH   1  35
TORSDOF 15
ENDMDL
MODEL 5
REMARK VINA RESULT: -6.163742438      2.232      3.274
REMARK  15 active torsions:
REMARK  status: ('A' for Active; 'I' for Inactive)
REMARK    1  A    between atoms: N1_1  and  C1_4 
REMARK    2  A    between atoms: C2_7  and  N3_8 
REMARK    3  A    between atoms: N3_8  and  N4_10 
REMARK    4  A    between atoms: C4_16  and  N6_17 
REMARK    5  A    between atoms: N6_17  and  C5_19 
REMARK    6  A    between atoms: C5_19  and  C6_20 
REMARK    7  A    between atoms: C6_20  and  C7_21 
REMARK    8  A    between atoms: C7_21  and  N7_22 
REMARK    9  A    between atoms: N7_22  and  C8_24 
REMARK   10  A    between atoms: C8_24  and  C9_25 
REMARK   11  A    between atoms: C9_25  and  S1_26 
REMARK   12  A    between atoms: S1_26  and  C10_27 
REMARK   13  A    between atoms: C10_27  and  C11_28 
REMARK   14  A    between atoms: C11_28  and  C12_29 
REMARK   15  A    between atoms: C12_29  and  O1_30 
ROOT
HETATM    1  C1  UNL     1      -6.545 -23.970  24.506  1.00  0.00     0.679 A 
HETATM    2  N2  UNL     1      -7.770 -24.143  25.026  1.00  0.00    -0.173 N 
ATOM      3  H2  UNL     1      -8.486 -24.568  24.436  1.00  0.00     0.186 HD
HETATM    4  C2  UNL     1      -8.110 -23.791  26.272  1.00  0.00     0.166 A 
HETATM    5  C3  UNL     1      -7.150 -23.216  27.073  1.00  0.00     0.125 A 
HETATM    6  N5  UNL     1      -7.444 -22.847  28.329  1.00  0.00    -0.335 N 
ATOM      7  H5  UNL     1      -8.383 -22.992  28.698  1.00  0.00     0.168 HD
HETATM    8  C4  UNL     1      -6.496 -22.285  29.103  1.00  0.00     0.117 A 
HETATM    9  C13 UNL     1      -5.226 -22.110  28.555  1.00  0.00     0.138 A 
HETATM   10  N8  UNL     1      -4.914 -22.472  27.306  1.00  0.00    -0.346 N 
ATOM     11  H8  UNL     1      -3.973 -22.329  26.937  1.00  0.00     0.167 HD
HETATM   12  C14 UNL     1      -5.880 -23.032  26.549  1.00  0.00     0.151 A 
HETATM   13  N9  UNL     1      -5.595 -23.410  25.278  1.00  0.00    -0.174 N 
ATOM     14  H9  UNL     1      -4.657 -23.269  24.905  1.00  0.00     0.186 HD
ENDROOT
BRANCH   8  15
HETATM   15  N6  UNL     1      -6.759 -21.923  30.310  1.00  0.00    -0.375 N 
ATOM     16  H6  UNL     1      -7.710 -22.045  30.657  1.00  0.00     0.161 HD
BRANCH  15  17
HETATM   17  C5  UNL     1      -5.771 -21.353  31.195  1.00  0.00     0.123 C 
BRANCH  17  18
HETATM   18  C6  UNL     1      -6.387 -21.222  32.595  1.00  0.00     0.039 C 
BRANCH  18  19
HETATM   19  C7  UNL     1      -7.881 -21.387  32.398  1.00  0.00     0.115 C 
BRANCH  19  20
HETATM   20  N7  UNL     1      -8.619 -20.168  32.505  1.00  0.00    -0.420 N 
ATOM     21  H7  UNL     1      -8.213 -19.262  32.273  1.00  0.00     0.153 HD
BRANCH  20  22
HETATM   22  C8  UNL     1      -9.962 -20.306  32.959  1.00  0.00     0.124 C 
BRANCH  22  23
HETATM   23  C9  UNL     1     -10.268 -21.611  33.636  1.00  0.00     0.093 C 
BRANCH  23  24
HETATM   24  S1  UNL     1     -10.465 -21.237  35.423  1.00  0.00    -0.167 SA
BRANCH  24  25
HETATM   25  C10 UNL     1      -8.771 -21.266  36.115  1.00  0.00     0.076 C 
BRANCH  25  26
HETATM   26  C11 UNL     1      -8.512 -19.946  36.814  1.00  0.00     0.036 C 
BRANCH  26  27
HETATM   27  C12 UNL     1      -7.338 -19.221  36.214  1.00  0.00     0.165 C 
BRANCH  27  28
HETATM   28  O1  UNL     1      -7.775 -18.561  35.052  1.00  0.00    -0.401 OA
ATOM     29  H1  UNL     1      -8.725 -18.573  35.043  1.00  0.00     0.209 HD
ENDBRANCH  27  28
ENDBRANCH  26  27
ENDBRANCH  25  26
ENDBRANCH  24  25
ENDBRANCH  23  24
ENDBRANCH  22  23
ENDBRANCH  20  22
ENDBRANCH  19  20
ENDBRANCH  18  19
ENDBRANCH  17  18
ENDBRANCH  15  17
ENDBRANCH   8  15
BRANCH   4  30
HETATM   30  N3  UNL     1      -9.281 -23.956  26.771  1.00  0.00    -0.290 N 
ATOM     31  H3  UNL     1      -9.606 -23.266  27.448  1.00  0.00     0.188 HD
BRANCH  30  32
HETATM   32  N4  UNL     1     -10.137 -25.003  26.460  1.00  0.00    -0.344 N 
ATOM     33  H42 UNL     1     -10.512 -25.016  25.512  1.00  0.00     0.176 HD
ATOM     34  H41 UNL     1     -10.412 -25.744  27.104  1.00  0.00     0.176 HD
ENDBRANCH  30  32
ENDBRANCH   4  30
BRANCH   1  35
HETATM   35  N1  UNL     1      -6.284 -24.339  23.278  1.00  0.00    -0.234 N 
ATOM     36  H12 UNL     1      -6.714 -23.864  22.485  1.00  0.00     0.174 HD
ATOM     37  H11 UNL     1      -5.644 -25.111  23.093  1.00  0.00     0.174 HD
ENDBRANCH   1  35
TORSDOF 15
ENDMDL
