MODEL 1
REMARK VINA RESULT: -7.086128154      0.000      0.000
REMARK  14 active torsions:
REMARK  status: ('A' for Active; 'I' for Inactive)
REMARK    1  A    between atoms: C2_2  and  C3_3 
REMARK    2  A    between atoms: C4_4  and  N1_5 
REMARK    3  A    between atoms: N1_5  and  C5_6 
REMARK    4  A    between atoms: N1_5  and  C7_10 
REMARK    5  A    between atoms: C5_6  and  C6_7 
REMARK    6  A    between atoms: C6_7  and  O1_8 
REMARK    7  A    between atoms: C9_14  and  N3_15 
REMARK    8  A    between atoms: C10_20  and  N5_21 
REMARK    9  A    between atoms: N5_21  and  C11_23 
REMARK   10  A    between atoms: C11_23  and  C12_24 
REMARK   11  A    between atoms: C12_24  and  N6_25 
REMARK   12  A    between atoms: N6_25  and  N7_26 
REMARK   13  A    between atoms: C14_32  and  N9_33 
REMARK   14  A    between atoms: N9_33  and  O2_35 
ROOT
HETATM    1  C7  UNL     1      -8.408 -21.198  33.995  1.00  0.00     0.686 A 
HETATM    2  N2  UNL     1      -9.155 -21.822  33.058  1.00  0.00    -0.185 N 
ATOM      3  H2  UNL     1     -10.068 -22.181  33.337  1.00  0.00     0.184 HD
HETATM    4  C8  UNL     1      -8.771 -22.000  31.776  1.00  0.00     0.124 A 
HETATM    5  C9  UNL     1      -9.599 -22.742  30.924  1.00  0.00     0.144 A 
HETATM    6  N4  UNL     1      -9.064 -22.955  29.657  1.00  0.00    -0.175 N 
ATOM      7  H4  UNL     1      -9.616 -23.490  28.987  1.00  0.00     0.186 HD
HETATM    8  C10 UNL     1      -7.892 -22.508  29.272  1.00  0.00     0.684 A 
HETATM    9  N8  UNL     1      -7.161 -21.797  30.132  1.00  0.00    -0.185 N 
ATOM     10  H8  UNL     1      -6.254 -21.441  29.830  1.00  0.00     0.184 HD
HETATM   11  C13 UNL     1      -7.575 -21.532  31.381  1.00  0.00     0.126 A 
HETATM   12  C14 UNL     1      -6.784 -20.882  32.290  1.00  0.00     0.170 A 
HETATM   13  N10 UNL     1      -7.210 -20.727  33.568  1.00  0.00    -0.172 N 
ATOM     14  H10 UNL     1      -6.607 -20.241  34.231  1.00  0.00     0.186 HD
ENDROOT
BRANCH   1  15
HETATM   15  N1  UNL     1      -8.721 -21.119  35.384  1.00  0.00    -0.191 N 
BRANCH  15  16
HETATM   16  C4  UNL     1      -9.923 -21.573  35.938  1.00  0.00     0.108 C 
HETATM   17  C3  UNL     1     -11.281 -21.126  35.764  1.00  0.00     0.013 C 
BRANCH  17  18
HETATM   18  C2  UNL     1     -12.101 -21.206  34.552  1.00  0.00    -0.030 C 
HETATM   19  C1  UNL     1     -12.769 -22.454  34.133  1.00  0.00     0.036 C 
ENDBRANCH  17  18
ENDBRANCH  15  16
BRANCH  15  20
HETATM   20  C5  UNL     1      -7.642 -20.626  36.263  1.00  0.00     0.172 C 
BRANCH  20  21
HETATM   21  C6  UNL     1      -7.813 -19.242  36.768  1.00  0.00     0.185 C 
BRANCH  21  22
HETATM   22  O1  UNL     1      -7.902 -18.410  35.625  1.00  0.00    -0.399 OA
ATOM     23  H1  UNL     1      -8.816 -18.165  35.544  1.00  0.00     0.209 HD
ENDBRANCH  21  22
ENDBRANCH  20  21
ENDBRANCH  15  20
ENDBRANCH   1  15
BRANCH  12  24
HETATM   24  N9  UNL     1      -5.635 -20.424  31.945  1.00  0.00    -0.251 N 
ATOM     25  H9  UNL     1      -4.857 -20.586  32.583  1.00  0.00     0.196 HD
BRANCH  24  26
HETATM   26  O2  UNL     1      -5.377 -19.759  30.831  1.00  0.00    -0.288 OA
ATOM     27  H2  UNL     1      -5.378 -20.128  29.955  1.00  0.00     0.244 HD
ENDBRANCH  24  26
ENDBRANCH  12  24
BRANCH   5  28
HETATM   28  N3  UNL     1     -10.681 -23.184  31.258  1.00  0.00    -0.383 N 
ATOM     29  H32 UNL     1     -10.838 -23.619  32.167  1.00  0.00     0.157 HD
ATOM     30  H31 UNL     1     -11.514 -23.139  30.670  1.00  0.00     0.157 HD
ENDBRANCH   5  28
BRANCH   8  31
HETATM   31  N5  UNL     1      -7.371 -22.844  28.102  1.00  0.00    -0.204 N 
ATOM     32  H5  UNL     1      -7.936 -22.764  27.257  1.00  0.00     0.183 HD
BRANCH  31  33
HETATM   33  C11 UNL     1      -6.058 -23.307  28.013  1.00  0.00     0.096 C 
BRANCH  33  34
HETATM   34  C12 UNL     1      -5.309 -22.773  26.795  1.00  0.00     0.179 C 
BRANCH  34  35
HETATM   35  N6  UNL     1      -4.974 -23.906  25.918  1.00  0.00    -0.143 NA
BRANCH  35  36
HETATM   36  N7  UNL     1      -5.836 -23.800  24.752  1.00  0.00    -0.348 N 
ATOM     37  H72 UNL     1      -6.035 -22.946  24.230  1.00  0.00     0.172 HD
ATOM     38  H71 UNL     1      -6.193 -24.737  24.566  1.00  0.00     0.172 HD
ENDBRANCH  35  36
ENDBRANCH  34  35
ENDBRANCH  33  34
ENDBRANCH  31  33
ENDBRANCH   8  31
TORSDOF 14
ENDMDL
MODEL 2
REMARK VINA RESULT: -6.917152040      1.233      1.438
REMARK  14 active torsions:
REMARK  status: ('A' for Active; 'I' for Inactive)
REMARK    1  A    between atoms: C2_2  and  C3_3 
REMARK    2  A    between atoms: C4_4  and  N1_5 
REMARK    3  A    between atoms: N1_5  and  C5_6 
REMARK    4  A    between atoms: N1_5  and  C7_10 
REMARK    5  A    between atoms: C5_6  and  C6_7 
REMARK    6  A    between atoms: C6_7  and  O1_8 
REMARK    7  A    between atoms: C9_14  and  N3_15 
REMARK    8  A    between atoms: C10_20  and  N5_21 
REMARK    9  A    between atoms: N5_21  and  C11_23 
REMARK   10  A    between atoms: C11_23  and  C12_24 
REMARK   11  A    between atoms: C12_24  and  N6_25 
REMARK   12  A    between atoms: N6_25  and  N7_26 
REMARK   13  A    between atoms: C14_32  and  N9_33 
REMARK   14  A    between atoms: N9_33  and  O2_35 
ROOT
HETATM    1  C7  UNL     1      -8.869 -21.109  34.207  1.00  0.00     0.686 A 
HETATM    2  N2  UNL     1      -9.507 -21.872  33.293  1.00  0.00    -0.185 N 
ATOM      3  H2  UNL     1     -10.348 -22.369  33.589  1.00  0.00     0.184 HD
HETATM    4  C8  UNL     1      -9.104 -22.020  32.013  1.00  0.00     0.124 A 
HETATM    5  C9  UNL     1      -9.803 -22.911  31.188  1.00  0.00     0.144 A 
HETATM    6  N4  UNL     1      -9.245 -23.068  29.923  1.00  0.00    -0.175 N 
ATOM      7  H4  UNL     1      -9.705 -23.704  29.272  1.00  0.00     0.186 HD
HETATM    8  C10 UNL     1      -8.163 -22.446  29.516  1.00  0.00     0.684 A 
HETATM    9  N8  UNL     1      -7.556 -21.601  30.351  1.00  0.00    -0.185 N 
ATOM     10  H8  UNL     1      -6.721 -21.110  30.032  1.00  0.00     0.184 HD
HETATM   11  C13 UNL     1      -8.003 -21.374  31.596  1.00  0.00     0.126 A 
HETATM   12  C14 UNL     1      -7.325 -20.578  32.481  1.00  0.00     0.170 A 
HETATM   13  N10 UNL     1      -7.765 -20.461  33.758  1.00  0.00    -0.172 N 
ATOM     14  H10 UNL     1      -7.248 -19.864  34.403  1.00  0.00     0.186 HD
ENDROOT
BRANCH   1  15
HETATM   15  N1  UNL     1      -9.185 -21.045  35.597  1.00  0.00    -0.191 N 
BRANCH  15  16
HETATM   16  C4  UNL     1     -10.430 -21.397  36.128  1.00  0.00     0.108 C 
HETATM   17  C3  UNL     1     -11.762 -20.948  35.812  1.00  0.00     0.013 C 
BRANCH  17  18
HETATM   18  C2  UNL     1     -12.510 -21.170  34.573  1.00  0.00    -0.030 C 
HETATM   19  C1  UNL     1     -12.937 -22.515  34.138  1.00  0.00     0.036 C 
ENDBRANCH  17  18
ENDBRANCH  15  16
BRANCH  15  20
HETATM   20  C5  UNL     1      -8.071 -20.688  36.497  1.00  0.00     0.172 C 
BRANCH  20  21
HETATM   21  C6  UNL     1      -8.117 -19.314  37.055  1.00  0.00     0.185 C 
BRANCH  21  22
HETATM   22  O1  UNL     1      -7.927 -18.434  35.960  1.00  0.00    -0.399 OA
ATOM     23  H1  UNL     1      -8.096 -17.560  36.289  1.00  0.00     0.209 HD
ENDBRANCH  21  22
ENDBRANCH  20  21
ENDBRANCH  15  20
ENDBRANCH   1  15
BRANCH  12  24
HETATM   24  N9  UNL     1      -6.268 -19.948  32.114  1.00  0.00    -0.251 N 
ATOM     25  H9  UNL     1      -6.343 -18.937  32.001  1.00  0.00     0.196 HD
BRANCH  24  26
HETATM   26  O2  UNL     1      -5.091 -20.500  31.871  1.00  0.00    -0.288 OA
ATOM     27  H2  UNL     1      -4.248 -20.118  32.084  1.00  0.00     0.244 HD
ENDBRANCH  24  26
ENDBRANCH  12  24
BRANCH   5  28
HETATM   28  N3  UNL     1     -10.797 -23.515  31.543  1.00  0.00    -0.383 N 
ATOM     29  H32 UNL     1     -10.897 -23.902  32.481  1.00  0.00     0.157 HD
ATOM     30  H31 UNL     1     -11.608 -23.666  30.943  1.00  0.00     0.157 HD
ENDBRANCH   5  28
BRANCH   8  31
HETATM   31  N5  UNL     1      -7.599 -22.724  28.351  1.00  0.00    -0.204 N 
ATOM     32  H5  UNL     1      -8.091 -22.500  27.487  1.00  0.00     0.183 HD
BRANCH  31  33
HETATM   33  C11 UNL     1      -6.339 -23.320  28.293  1.00  0.00     0.096 C 
BRANCH  33  34
HETATM   34  C12 UNL     1      -5.235 -22.361  27.855  1.00  0.00     0.179 C 
BRANCH  34  35
HETATM   35  N6  UNL     1      -4.662 -21.730  29.054  1.00  0.00    -0.143 NA
BRANCH  35  36
HETATM   36  N7  UNL     1      -4.603 -22.759  30.080  1.00  0.00    -0.348 N 
ATOM     37  H72 UNL     1      -3.916 -23.511  30.135  1.00  0.00     0.172 HD
ATOM     38  H71 UNL     1      -5.375 -22.577  30.721  1.00  0.00     0.172 HD
ENDBRANCH  35  36
ENDBRANCH  34  35
ENDBRANCH  33  34
ENDBRANCH  31  33
ENDBRANCH   8  31
TORSDOF 14
ENDMDL
MODEL 3
REMARK VINA RESULT: -6.797801395      2.016      3.194
REMARK  14 active torsions:
REMARK  status: ('A' for Active; 'I' for Inactive)
REMARK    1  A    between atoms: C2_2  and  C3_3 
REMARK    2  A    between atoms: C4_4  and  N1_5 
REMARK    3  A    between atoms: N1_5  and  C5_6 
REMARK    4  A    between atoms: N1_5  and  C7_10 
REMARK    5  A    between atoms: C5_6  and  C6_7 
REMARK    6  A    between atoms: C6_7  and  O1_8 
REMARK    7  A    between atoms: C9_14  and  N3_15 
REMARK    8  A    between atoms: C10_20  and  N5_21 
REMARK    9  A    between atoms: N5_21  and  C11_23 
REMARK   10  A    between atoms: C11_23  and  C12_24 
REMARK   11  A    between atoms: C12_24  and  N6_25 
REMARK   12  A    between atoms: N6_25  and  N7_26 
REMARK   13  A    between atoms: C14_32  and  N9_33 
REMARK   14  A    between atoms: N9_33  and  O2_35 
ROOT
HETATM    1  C7  UNL     1      -9.269 -21.857  32.304  1.00  0.00     0.686 A 
HETATM    2  N2  UNL     1      -9.263 -22.304  31.030  1.00  0.00    -0.185 N 
ATOM      3  H2  UNL     1     -10.122 -22.716  30.664  1.00  0.00     0.184 HD
HETATM    4  C8  UNL     1      -8.194 -22.241  30.208  1.00  0.00     0.124 A 
HETATM    5  C9  UNL     1      -8.289 -22.821  28.936  1.00  0.00     0.144 A 
HETATM    6  N4  UNL     1      -7.101 -22.794  28.211  1.00  0.00    -0.175 N 
ATOM      7  H4  UNL     1      -7.102 -23.202  27.276  1.00  0.00     0.186 HD
HETATM    8  C10 UNL     1      -5.982 -22.275  28.656  1.00  0.00     0.684 A 
HETATM    9  N8  UNL     1      -5.967 -21.727  29.873  1.00  0.00    -0.185 N 
ATOM     10  H8  UNL     1      -5.100 -21.315  30.216  1.00  0.00     0.184 HD
HETATM   11  C13 UNL     1      -7.052 -21.699  30.663  1.00  0.00     0.126 A 
HETATM   12  C14 UNL     1      -7.009 -21.220  31.945  1.00  0.00     0.170 A 
HETATM   13  N10 UNL     1      -8.107 -21.306  32.735  1.00  0.00    -0.172 N 
ATOM     14  H10 UNL     1      -8.057 -20.944  33.688  1.00  0.00     0.186 HD
ENDROOT
BRANCH   1  15
HETATM   15  N1  UNL     1     -10.332 -22.037  33.239  1.00  0.00    -0.191 N 
BRANCH  15  16
HETATM   16  C4  UNL     1     -10.580 -21.172  34.310  1.00  0.00     0.108 C 
HETATM   17  C3  UNL     1     -10.093 -21.172  35.666  1.00  0.00     0.013 C 
BRANCH  17  18
HETATM   18  C2  UNL     1      -8.721 -20.939  36.123  1.00  0.00    -0.030 C 
HETATM   19  C1  UNL     1      -7.749 -22.036  36.296  1.00  0.00     0.036 C 
ENDBRANCH  17  18
ENDBRANCH  15  16
BRANCH  15  20
HETATM   20  C5  UNL     1     -11.262 -23.147  32.954  1.00  0.00     0.172 C 
BRANCH  20  21
HETATM   21  C6  UNL     1     -12.684 -22.892  33.292  1.00  0.00     0.185 C 
BRANCH  21  22
HETATM   22  O1  UNL     1     -13.449 -23.756  32.470  1.00  0.00    -0.399 OA
ATOM     23  H1  UNL     1     -13.580 -24.552  32.970  1.00  0.00     0.209 HD
ENDBRANCH  21  22
ENDBRANCH  20  21
ENDBRANCH  15  20
ENDBRANCH   1  15
BRANCH  12  24
HETATM   24  N9  UNL     1      -5.932 -20.697  32.410  1.00  0.00    -0.251 N 
ATOM     25  H9  UNL     1      -5.400 -21.246  33.085  1.00  0.00     0.196 HD
BRANCH  24  26
HETATM   26  O2  UNL     1      -5.456 -19.506  32.088  1.00  0.00    -0.288 OA
ATOM     27  H2  UNL     1      -5.818 -18.673  32.367  1.00  0.00     0.244 HD
ENDBRANCH  24  26
ENDBRANCH  12  24
BRANCH   5  28
HETATM   28  N3  UNL     1      -9.307 -23.326  28.504  1.00  0.00    -0.383 N 
ATOM     29  H32 UNL     1     -10.109 -22.772  28.204  1.00  0.00     0.157 HD
ATOM     30  H31 UNL     1      -9.432 -24.333  28.391  1.00  0.00     0.157 HD
ENDBRANCH   5  28
BRANCH   8  31
HETATM   31  N5  UNL     1      -4.848 -22.386  27.982  1.00  0.00    -0.204 N 
ATOM     32  H5  UNL     1      -3.999 -22.672  28.468  1.00  0.00     0.183 HD
BRANCH  31  33
HETATM   33  C11 UNL     1      -4.803 -22.117  26.613  1.00  0.00     0.096 C 
BRANCH  33  34
HETATM   34  C12 UNL     1      -4.958 -23.363  25.745  1.00  0.00     0.179 C 
BRANCH  34  35
HETATM   35  N6  UNL     1      -6.310 -23.362  25.166  1.00  0.00    -0.143 NA
BRANCH  35  36
HETATM   36  N7  UNL     1      -6.228 -24.098  23.914  1.00  0.00    -0.348 N 
ATOM     37  H72 UNL     1      -5.703 -24.959  23.759  1.00  0.00     0.172 HD
ATOM     38  H71 UNL     1      -6.794 -23.587  23.237  1.00  0.00     0.172 HD
ENDBRANCH  35  36
ENDBRANCH  34  35
ENDBRANCH  33  34
ENDBRANCH  31  33
ENDBRANCH   8  31
TORSDOF 14
ENDMDL
MODEL 4
REMARK VINA RESULT: -6.792190169      1.994      3.099
REMARK  14 active torsions:
REMARK  status: ('A' for Active; 'I' for Inactive)
REMARK    1  A    between atoms: C2_2  and  C3_3 
REMARK    2  A    between atoms: C4_4  and  N1_5 
REMARK    3  A    between atoms: N1_5  and  C5_6 
REMARK    4  A    between atoms: N1_5  and  C7_10 
REMARK    5  A    between atoms: C5_6  and  C6_7 
REMARK    6  A    between atoms: C6_7  and  O1_8 
REMARK    7  A    between atoms: C9_14  and  N3_15 
REMARK    8  A    between atoms: C10_20  and  N5_21 
REMARK    9  A    between atoms: N5_21  and  C11_23 
REMARK   10  A    between atoms: C11_23  and  C12_24 
REMARK   11  A    between atoms: C12_24  and  N6_25 
REMARK   12  A    between atoms: N6_25  and  N7_26 
REMARK   13  A    between atoms: C14_32  and  N9_33 
REMARK   14  A    between atoms: N9_33  and  O2_35 
ROOT
HETATM    1  C7  UNL     1      -9.934 -21.586  33.897  1.00  0.00     0.686 A 
HETATM    2  N2  UNL     1     -10.542 -22.515  33.128  1.00  0.00    -0.185 N 
ATOM      3  H2  UNL     1     -11.333 -23.021  33.526  1.00  0.00     0.184 HD
HETATM    4  C8  UNL     1     -10.170 -22.818  31.865  1.00  0.00     0.124 A 
HETATM    5  C9  UNL     1     -10.825 -23.865  31.204  1.00  0.00     0.144 A 
HETATM    6  N4  UNL     1     -10.297 -24.163  29.952  1.00  0.00    -0.175 N 
ATOM      7  H4  UNL     1     -10.728 -24.917  29.418  1.00  0.00     0.186 HD
HETATM    8  C10 UNL     1      -9.279 -23.533  29.416  1.00  0.00     0.684 A 
HETATM    9  N8  UNL     1      -8.710 -22.536  30.097  1.00  0.00    -0.185 N 
ATOM     10  H8  UNL     1      -7.925 -22.039  29.678  1.00  0.00     0.184 HD
HETATM   11  C13 UNL     1      -9.133 -22.163  31.315  1.00  0.00     0.126 A 
HETATM   12  C14 UNL     1      -8.490 -21.203  32.050  1.00  0.00     0.170 A 
HETATM   13  N10 UNL     1      -8.897 -20.934  33.314  1.00  0.00    -0.172 N 
ATOM     14  H10 UNL     1      -8.406 -20.215  33.846  1.00  0.00     0.186 HD
ENDROOT
BRANCH   1  15
HETATM   15  N1  UNL     1     -10.210 -21.344  35.275  1.00  0.00    -0.191 N 
BRANCH  15  16
HETATM   16  C4  UNL     1      -9.236 -20.985  36.213  1.00  0.00     0.108 C 
HETATM   17  C3  UNL     1      -8.086 -21.696  36.710  1.00  0.00     0.013 C 
BRANCH  17  18
HETATM   18  C2  UNL     1      -6.877 -22.071  35.972  1.00  0.00    -0.030 C 
HETATM   19  C1  UNL     1      -6.876 -23.135  34.949  1.00  0.00     0.036 C 
ENDBRANCH  17  18
ENDBRANCH  15  16
BRANCH  15  20
HETATM   20  C5  UNL     1     -11.634 -21.377  35.664  1.00  0.00     0.172 C 
BRANCH  20  21
HETATM   21  C6  UNL     1     -12.600 -21.091  34.576  1.00  0.00     0.185 C 
BRANCH  21  22
HETATM   22  O1  UNL     1     -13.242 -22.320  34.282  1.00  0.00    -0.399 OA
ATOM     23  H1  UNL     1     -14.089 -22.287  34.712  1.00  0.00     0.209 HD
ENDBRANCH  21  22
ENDBRANCH  20  21
ENDBRANCH  15  20
ENDBRANCH   1  15
BRANCH  12  24
HETATM   24  N9  UNL     1      -7.495 -20.560  31.553  1.00  0.00    -0.251 N 
ATOM     25  H9  UNL     1      -7.534 -19.541  31.587  1.00  0.00     0.196 HD
BRANCH  24  26
HETATM   26  O2  UNL     1      -6.425 -21.108  31.003  1.00  0.00    -0.288 OA
ATOM     27  H2  UNL     1      -6.123 -20.957  30.114  1.00  0.00     0.244 HD
ENDBRANCH  24  26
ENDBRANCH  12  24
BRANCH   5  28
HETATM   28  N3  UNL     1     -11.759 -24.479  31.683  1.00  0.00    -0.383 N 
ATOM     29  H32 UNL     1     -11.853 -25.490  31.594  1.00  0.00     0.157 HD
ATOM     30  H31 UNL     1     -12.505 -24.039  32.222  1.00  0.00     0.157 HD
ENDBRANCH   5  28
BRANCH   8  31
HETATM   31  N5  UNL     1      -8.732 -23.935  28.280  1.00  0.00    -0.204 N 
ATOM     32  H5  UNL     1      -8.883 -24.892  27.959  1.00  0.00     0.183 HD
BRANCH  31  33
HETATM   33  C11 UNL     1      -7.952 -23.066  27.516  1.00  0.00     0.096 C 
BRANCH  33  34
HETATM   34  C12 UNL     1      -6.489 -23.491  27.421  1.00  0.00     0.179 C 
BRANCH  34  35
HETATM   35  N6  UNL     1      -5.885 -23.388  28.758  1.00  0.00    -0.143 NA
BRANCH  35  36
HETATM   36  N7  UNL     1      -5.100 -22.164  28.769  1.00  0.00    -0.348 N 
ATOM     37  H72 UNL     1      -5.465 -21.218  28.658  1.00  0.00     0.172 HD
ATOM     38  H71 UNL     1      -4.128 -22.441  28.907  1.00  0.00     0.172 HD
ENDBRANCH  35  36
ENDBRANCH  34  35
ENDBRANCH  33  34
ENDBRANCH  31  33
ENDBRANCH   8  31
TORSDOF 14
ENDMDL
MODEL 5
REMARK VINA RESULT: -6.785350352      2.766      4.800
REMARK  14 active torsions:
REMARK  status: ('A' for Active; 'I' for Inactive)
REMARK    1  A    between atoms: C2_2  and  C3_3 
REMARK    2  A    between atoms: C4_4  and  N1_5 
REMARK    3  A    between atoms: N1_5  and  C5_6 
REMARK    4  A    between atoms: N1_5  and  C7_10 
REMARK    5  A    between atoms: C5_6  and  C6_7 
REMARK    6  A    between atoms: C6_7  and  O1_8 
REMARK    7  A    between atoms: C9_14  and  N3_15 
REMARK    8  A    between atoms: C10_20  and  N5_21 
REMARK    9  A    between atoms: N5_21  and  C11_23 
REMARK   10  A    between atoms: C11_23  and  C12_24 
REMARK   11  A    between atoms: C12_24  and  N6_25 
REMARK   12  A    between atoms: N6_25  and  N7_26 
REMARK   13  A    between atoms: C14_32  and  N9_33 
REMARK   14  A    between atoms: N9_33  and  O2_35 
ROOT
HETATM    1  C7  UNL     1      -7.788 -22.039  30.724  1.00  0.00     0.686 A 
HETATM    2  N2  UNL     1      -6.620 -21.903  30.059  1.00  0.00    -0.185 N 
ATOM      3  H2  UNL     1      -5.872 -21.377  30.511  1.00  0.00     0.184 HD
HETATM    4  C8  UNL     1      -6.380 -22.418  28.833  1.00  0.00     0.124 A 
HETATM    5  C9  UNL     1      -5.158 -22.129  28.212  1.00  0.00     0.144 A 
HETATM    6  N4  UNL     1      -5.053 -22.619  26.913  1.00  0.00    -0.175 N 
ATOM      7  H4  UNL     1      -4.188 -22.442  26.403  1.00  0.00     0.186 HD
HETATM    8  C10 UNL     1      -6.000 -23.294  26.306  1.00  0.00     0.684 A 
HETATM    9  N8  UNL     1      -7.135 -23.544  26.963  1.00  0.00    -0.185 N 
ATOM     10  H8  UNL     1      -7.867 -24.077  26.495  1.00  0.00     0.184 HD
HETATM   11  C13 UNL     1      -7.347 -23.118  28.218  1.00  0.00     0.126 A 
HETATM   12  C14 UNL     1      -8.546 -23.295  28.855  1.00  0.00     0.170 A 
HETATM   13  N10 UNL     1      -8.744 -22.758  30.085  1.00  0.00    -0.172 N 
ATOM     14  H10 UNL     1      -9.643 -22.900  30.544  1.00  0.00     0.186 HD
ENDROOT
BRANCH   1  15
HETATM   15  N1  UNL     1      -8.121 -21.392  31.951  1.00  0.00    -0.191 N 
BRANCH  15  16
HETATM   16  C4  UNL     1      -7.173 -20.962  32.886  1.00  0.00     0.108 C 
HETATM   17  C3  UNL     1      -7.195 -20.949  34.326  1.00  0.00     0.013 C 
BRANCH  17  18
HETATM   18  C2  UNL     1      -7.196 -22.101  35.232  1.00  0.00    -0.030 C 
HETATM   19  C1  UNL     1      -7.602 -21.991  36.647  1.00  0.00     0.036 C 
ENDBRANCH  17  18
ENDBRANCH  15  16
BRANCH  15  20
HETATM   20  C5  UNL     1      -9.550 -21.079  32.149  1.00  0.00     0.172 C 
BRANCH  20  21
HETATM   21  C6  UNL     1     -10.308 -22.052  32.972  1.00  0.00     0.185 C 
BRANCH  21  22
HETATM   22  O1  UNL     1     -11.003 -22.886  32.061  1.00  0.00    -0.399 OA
ATOM     23  H1  UNL     1     -11.093 -23.730  32.489  1.00  0.00     0.209 HD
ENDBRANCH  21  22
ENDBRANCH  20  21
ENDBRANCH  15  20
ENDBRANCH   1  15
BRANCH  12  24
HETATM   24  N9  UNL     1      -9.492 -23.958  28.294  1.00  0.00    -0.251 N 
ATOM     25  H9  UNL     1      -9.742 -23.699  27.340  1.00  0.00     0.196 HD
BRANCH  24  26
HETATM   26  O2  UNL     1     -10.169 -24.950  28.850  1.00  0.00    -0.288 OA
ATOM     27  H2  UNL     1     -11.064 -24.899  29.162  1.00  0.00     0.244 HD
ENDBRANCH  24  26
ENDBRANCH  12  24
BRANCH   5  28
HETATM   28  N3  UNL     1      -4.270 -21.490  28.743  1.00  0.00    -0.383 N 
ATOM     29  H32 UNL     1      -3.467 -21.934  29.188  1.00  0.00     0.157 HD
ATOM     30  H31 UNL     1      -4.249 -20.471  28.768  1.00  0.00     0.157 HD
ENDBRANCH   5  28
BRANCH   8  31
HETATM   31  N5  UNL     1      -5.905 -23.628  25.028  1.00  0.00    -0.204 N 
ATOM     32  H5  UNL     1      -4.992 -23.624  24.573  1.00  0.00     0.183 HD
BRANCH  31  33
HETATM   33  C11 UNL     1      -7.039 -23.986  24.298  1.00  0.00     0.096 C 
BRANCH  33  34
HETATM   34  C12 UNL     1      -6.717 -24.744  23.013  1.00  0.00     0.179 C 
BRANCH  34  35
HETATM   35  N6  UNL     1      -7.292 -26.094  23.112  1.00  0.00    -0.143 NA
BRANCH  35  36
HETATM   36  N7  UNL     1      -7.295 -26.647  21.766  1.00  0.00    -0.348 N 
ATOM     37  H72 UNL     1      -6.613 -26.445  21.035  1.00  0.00     0.172 HD
ATOM     38  H71 UNL     1      -8.103 -27.265  21.706  1.00  0.00     0.172 HD
ENDBRANCH  35  36
ENDBRANCH  34  35
ENDBRANCH  33  34
ENDBRANCH  31  33
ENDBRANCH   8  31
TORSDOF 14
ENDMDL
