MODEL 1
REMARK VINA RESULT: -6.423384056      0.000      0.000
REMARK  14 active torsions:
REMARK  status: ('A' for Active; 'I' for Inactive)
REMARK    1  A    between atoms: N1_1  and  C1_4 
REMARK    2  A    between atoms: C3_10  and  N4_11 
REMARK    3  A    between atoms: C4_16  and  N6_17 
REMARK    4  A    between atoms: C6_21  and  S1_22 
REMARK    5  A    between atoms: S1_22  and  C7_23 
REMARK    6  A    between atoms: C7_23  and  C8_24 
REMARK    7  A    between atoms: C8_24  and  C9_25 
REMARK    8  A    between atoms: C9_25  and  N7_26 
REMARK    9  A    between atoms: N7_26  and  C10_27 
REMARK   10  A    between atoms: N7_26  and  C12_31 
REMARK   11  A    between atoms: C10_27  and  C11_28 
REMARK   12  A    between atoms: C11_28  and  O1_29 
REMARK   13  A    between atoms: C12_31  and  C13_32 
REMARK   14  A    between atoms: C13_32  and  O2_33 
ROOT
HETATM    1  C1  UNL     1      -5.556 -21.017  30.767  1.00  0.00     0.678 A 
HETATM    2  N2  UNL     1      -4.973 -21.393  29.613  1.00  0.00    -0.175 N 
ATOM      3  H2  UNL     1      -4.009 -21.114  29.437  1.00  0.00     0.186 HD
HETATM    4  C2  UNL     1      -5.612 -22.118  28.690  1.00  0.00     0.153 A 
HETATM    5  N3  UNL     1      -5.037 -22.502  27.525  1.00  0.00    -0.175 N 
ATOM      6  H3  UNL     1      -4.073 -22.226  27.343  1.00  0.00     0.186 HD
HETATM    7  C3  UNL     1      -5.684 -23.232  26.597  1.00  0.00     0.679 A 
HETATM    8  N5  UNL     1      -6.957 -23.609  26.812  1.00  0.00    -0.176 N 
ATOM      9  H5  UNL     1      -7.451 -24.162  26.111  1.00  0.00     0.186 HD
HETATM   10  C4  UNL     1      -7.581 -23.251  27.960  1.00  0.00     0.131 A 
HETATM   11  C5  UNL     1      -6.917 -22.504  28.909  1.00  0.00     0.087 A 
HETATM   12  C6  UNL     1      -7.518 -22.110  30.111  1.00  0.00     0.104 A 
HETATM   13  N8  UNL     1      -6.833 -21.381  31.010  1.00  0.00    -0.185 N 
ATOM     14  H8  UNL     1      -7.282 -21.100  31.881  1.00  0.00     0.185 HD
ENDROOT
BRANCH  12  15
HETATM   15  S1  UNL     1      -9.188 -22.610  30.348  1.00  0.00    -0.110 SA
BRANCH  15  16
HETATM   16  C7  UNL     1      -9.703 -22.806  32.042  1.00  0.00     0.086 C 
BRANCH  16  17
HETATM   17  C8  UNL     1      -9.934 -21.520  32.761  1.00  0.00     0.055 C 
BRANCH  17  18
HETATM   18  C9  UNL     1      -9.769 -21.629  34.256  1.00  0.00     0.069 C 
BRANCH  18  19
HETATM   19  N7  UNL     1      -8.594 -21.085  34.797  1.00  0.00    -0.350 N 
BRANCH  19  20
HETATM   20  C10 UNL     1      -8.398 -19.700  34.806  1.00  0.00     0.094 C 
BRANCH  20  21
HETATM   21  C11 UNL     1      -7.011 -19.263  35.232  1.00  0.00     0.209 C 
BRANCH  21  22
HETATM   22  O1  UNL     1      -6.280 -18.930  34.071  1.00  0.00    -0.396 OA
ATOM     23  H1  UNL     1      -5.372 -18.801  34.320  1.00  0.00     0.209 HD
ENDBRANCH  21  22
ENDBRANCH  20  21
ENDBRANCH  19  20
BRANCH  19  24
HETATM   24  C12 UNL     1      -7.704 -21.956  35.436  1.00  0.00     0.094 C 
BRANCH  24  25
HETATM   25  C13 UNL     1      -6.887 -22.850  34.558  1.00  0.00     0.209 C 
BRANCH  25  26
HETATM   26  O2  UNL     1      -5.839 -22.163  33.937  1.00  0.00    -0.396 OA
ATOM     27  H2  UNL     1      -5.060 -22.701  33.851  1.00  0.00     0.209 HD
ENDBRANCH  25  26
ENDBRANCH  24  25
ENDBRANCH  19  24
ENDBRANCH  18  19
ENDBRANCH  17  18
ENDBRANCH  16  17
ENDBRANCH  15  16
ENDBRANCH  12  15
BRANCH  10  28
HETATM   28  N6  UNL     1      -8.804 -23.614  28.163  1.00  0.00    -0.384 N 
ATOM     29  H62 UNL     1      -9.077 -24.587  28.032  1.00  0.00     0.157 HD
ATOM     30  H61 UNL     1      -9.494 -22.922  28.457  1.00  0.00     0.157 HD
ENDBRANCH  10  28
BRANCH   1  31
HETATM   31  N1  UNL     1      -4.911 -20.312  31.650  1.00  0.00    -0.234 N 
ATOM     32  H12 UNL     1      -3.892 -20.348  31.675  1.00  0.00     0.174 HD
ATOM     33  H11 UNL     1      -5.406 -19.722  32.319  1.00  0.00     0.174 HD
ENDBRANCH   1  31
BRANCH   7  34
HETATM   34  N4  UNL     1      -5.113 -23.591  25.484  1.00  0.00    -0.234 N 
ATOM     35  H42 UNL     1      -4.797 -22.862  24.844  1.00  0.00     0.174 HD
ATOM     36  H41 UNL     1      -4.975 -24.572  25.241  1.00  0.00     0.174 HD
ENDBRANCH   7  34
TORSDOF 14
ENDMDL
MODEL 2
REMARK VINA RESULT: -6.407791005      0.063      1.585
REMARK  14 active torsions:
REMARK  status: ('A' for Active; 'I' for Inactive)
REMARK    1  A    between atoms: N1_1  and  C1_4 
REMARK    2  A    between atoms: C3_10  and  N4_11 
REMARK    3  A    between atoms: C4_16  and  N6_17 
REMARK    4  A    between atoms: C6_21  and  S1_22 
REMARK    5  A    between atoms: S1_22  and  C7_23 
REMARK    6  A    between atoms: C7_23  and  C8_24 
REMARK    7  A    between atoms: C8_24  and  C9_25 
REMARK    8  A    between atoms: C9_25  and  N7_26 
REMARK    9  A    between atoms: N7_26  and  C10_27 
REMARK   10  A    between atoms: N7_26  and  C12_31 
REMARK   11  A    between atoms: C10_27  and  C11_28 
REMARK   12  A    between atoms: C11_28  and  O1_29 
REMARK   13  A    between atoms: C12_31  and  C13_32 
REMARK   14  A    between atoms: C13_32  and  O2_33 
ROOT
HETATM    1  C1  UNL     1      -5.558 -21.034  30.770  1.00  0.00     0.678 A 
HETATM    2  N2  UNL     1      -4.966 -21.412  29.622  1.00  0.00    -0.175 N 
ATOM      3  H2  UNL     1      -3.997 -21.141  29.457  1.00  0.00     0.186 HD
HETATM    4  C2  UNL     1      -5.601 -22.128  28.689  1.00  0.00     0.153 A 
HETATM    5  N3  UNL     1      -5.016 -22.514  27.530  1.00  0.00    -0.175 N 
ATOM      6  H3  UNL     1      -4.047 -22.247  27.360  1.00  0.00     0.186 HD
HETATM    7  C3  UNL     1      -5.659 -23.235  26.592  1.00  0.00     0.679 A 
HETATM    8  N5  UNL     1      -6.938 -23.600  26.792  1.00  0.00    -0.176 N 
ATOM      9  H5  UNL     1      -7.430 -24.146  26.084  1.00  0.00     0.186 HD
HETATM   10  C4  UNL     1      -7.572 -23.240  27.934  1.00  0.00     0.131 A 
HETATM   11  C5  UNL     1      -6.912 -22.502  28.893  1.00  0.00     0.087 A 
HETATM   12  C6  UNL     1      -7.523 -22.106  30.089  1.00  0.00     0.104 A 
HETATM   13  N8  UNL     1      -6.841 -21.386  30.998  1.00  0.00    -0.185 N 
ATOM     14  H8  UNL     1      -7.297 -21.103  31.865  1.00  0.00     0.185 HD
ENDROOT
BRANCH  12  15
HETATM   15  S1  UNL     1      -9.200 -22.590  30.305  1.00  0.00    -0.110 SA
BRANCH  15  16
HETATM   16  C7  UNL     1      -9.725 -22.828  31.991  1.00  0.00     0.086 C 
BRANCH  16  17
HETATM   17  C8  UNL     1      -9.917 -21.560  32.752  1.00  0.00     0.055 C 
BRANCH  17  18
HETATM   18  C9  UNL     1      -9.774 -21.727  34.244  1.00  0.00     0.069 C 
BRANCH  18  19
HETATM   19  N7  UNL     1      -8.626 -21.171  34.829  1.00  0.00    -0.350 N 
BRANCH  19  20
HETATM   20  C10 UNL     1      -7.672 -21.996  35.432  1.00  0.00     0.094 C 
BRANCH  20  21
HETATM   21  C11 UNL     1      -6.914 -22.890  34.471  1.00  0.00     0.209 C 
BRANCH  21  22
HETATM   22  O1  UNL     1      -5.826 -22.154  33.954  1.00  0.00    -0.396 OA
ATOM     23  H1  UNL     1      -5.481 -22.624  33.203  1.00  0.00     0.209 HD
ENDBRANCH  21  22
ENDBRANCH  20  21
ENDBRANCH  19  20
BRANCH  19  24
HETATM   24  C12 UNL     1      -8.412 -19.797  34.670  1.00  0.00     0.094 C 
BRANCH  24  25
HETATM   25  C13 UNL     1      -7.090 -19.263  35.126  1.00  0.00     0.209 C 
BRANCH  25  26
HETATM   26  O2  UNL     1      -6.264 -18.916  34.052  1.00  0.00    -0.396 OA
ATOM     27  H2  UNL     1      -6.541 -18.109  33.634  1.00  0.00     0.209 HD
ENDBRANCH  25  26
ENDBRANCH  24  25
ENDBRANCH  19  24
ENDBRANCH  18  19
ENDBRANCH  17  18
ENDBRANCH  16  17
ENDBRANCH  15  16
ENDBRANCH  12  15
BRANCH  10  28
HETATM   28  N6  UNL     1      -8.801 -23.591  28.122  1.00  0.00    -0.384 N 
ATOM     29  H62 UNL     1      -9.455 -23.597  27.340  1.00  0.00     0.157 HD
ATOM     30  H61 UNL     1      -9.112 -23.863  29.055  1.00  0.00     0.157 HD
ENDBRANCH  10  28
BRANCH   1  31
HETATM   31  N1  UNL     1      -4.917 -20.337  31.663  1.00  0.00    -0.234 N 
ATOM     32  H12 UNL     1      -4.701 -19.358  31.476  1.00  0.00     0.174 HD
ATOM     33  H11 UNL     1      -4.624 -20.752  32.547  1.00  0.00     0.174 HD
ENDBRANCH   1  31
BRANCH   7  34
HETATM   34  N4  UNL     1      -5.079 -23.597  25.485  1.00  0.00    -0.234 N 
ATOM     35  H42 UNL     1      -4.177 -23.180  25.253  1.00  0.00     0.174 HD
ATOM     36  H41 UNL     1      -5.500 -24.278  24.853  1.00  0.00     0.174 HD
ENDBRANCH   7  34
TORSDOF 14
ENDMDL
MODEL 3
REMARK VINA RESULT: -6.288563192      2.900      7.105
REMARK  14 active torsions:
REMARK  status: ('A' for Active; 'I' for Inactive)
REMARK    1  A    between atoms: N1_1  and  C1_4 
REMARK    2  A    between atoms: C3_10  and  N4_11 
REMARK    3  A    between atoms: C4_16  and  N6_17 
REMARK    4  A    between atoms: C6_21  and  S1_22 
REMARK    5  A    between atoms: S1_22  and  C7_23 
REMARK    6  A    between atoms: C7_23  and  C8_24 
REMARK    7  A    between atoms: C8_24  and  C9_25 
REMARK    8  A    between atoms: C9_25  and  N7_26 
REMARK    9  A    between atoms: N7_26  and  C10_27 
REMARK   10  A    between atoms: N7_26  and  C12_31 
REMARK   11  A    between atoms: C10_27  and  C11_28 
REMARK   12  A    between atoms: C11_28  and  O1_29 
REMARK   13  A    between atoms: C12_31  and  C13_32 
REMARK   14  A    between atoms: C13_32  and  O2_33 
ROOT
HETATM    1  C1  UNL     1      -7.642 -19.801  35.105  1.00  0.00     0.678 A 
HETATM    2  N2  UNL     1      -8.903 -20.145  35.428  1.00  0.00    -0.175 N 
ATOM      3  H2  UNL     1      -9.297 -19.801  36.304  1.00  0.00     0.186 HD
HETATM    4  C2  UNL     1      -9.657 -20.922  34.645  1.00  0.00     0.153 A 
HETATM    5  N3  UNL     1     -10.926 -21.276  34.959  1.00  0.00    -0.175 N 
ATOM      6  H3  UNL     1     -11.325 -20.935  35.833  1.00  0.00     0.186 HD
HETATM    7  C3  UNL     1     -11.683 -22.060  34.168  1.00  0.00     0.679 A 
HETATM    8  N5  UNL     1     -11.179 -22.524  33.011  1.00  0.00    -0.176 N 
ATOM      9  H5  UNL     1     -11.749 -23.118  32.408  1.00  0.00     0.186 HD
HETATM   10  C4  UNL     1      -9.914 -22.201  32.647  1.00  0.00     0.131 A 
HETATM   11  C5  UNL     1      -9.141 -21.399  33.459  1.00  0.00     0.087 A 
HETATM   12  C6  UNL     1      -7.830 -21.037  33.128  1.00  0.00     0.104 A 
HETATM   13  N8  UNL     1      -7.110 -20.252  33.950  1.00  0.00    -0.185 N 
ATOM     14  H8  UNL     1      -6.156 -19.996  33.698  1.00  0.00     0.185 HD
ENDROOT
BRANCH  12  15
HETATM   15  S1  UNL     1      -7.203 -21.677  31.614  1.00  0.00    -0.110 SA
BRANCH  15  16
HETATM   16  C7  UNL     1      -5.550 -21.170  31.186  1.00  0.00     0.086 C 
BRANCH  16  17
HETATM   17  C8  UNL     1      -5.083 -21.673  29.862  1.00  0.00     0.055 C 
BRANCH  17  18
HETATM   18  C9  UNL     1      -5.877 -22.848  29.351  1.00  0.00     0.069 C 
BRANCH  18  19
HETATM   19  N7  UNL     1      -6.071 -22.917  27.963  1.00  0.00    -0.350 N 
BRANCH  19  20
HETATM   20  C10 UNL     1      -7.305 -23.320  27.443  1.00  0.00     0.094 C 
BRANCH  20  21
HETATM   21  C11 UNL     1      -8.504 -22.909  28.273  1.00  0.00     0.209 C 
BRANCH  21  22
HETATM   22  O1  UNL     1      -9.148 -24.083  28.724  1.00  0.00    -0.396 OA
ATOM     23  H1  UNL     1      -8.497 -24.633  29.145  1.00  0.00     0.209 HD
ENDBRANCH  21  22
ENDBRANCH  20  21
ENDBRANCH  19  20
BRANCH  19  24
HETATM   24  C12 UNL     1      -5.044 -22.447  27.135  1.00  0.00     0.094 C 
BRANCH  24  25
HETATM   25  C13 UNL     1      -5.009 -22.977  25.736  1.00  0.00     0.209 C 
BRANCH  25  26
HETATM   26  O2  UNL     1      -4.512 -24.283  25.680  1.00  0.00    -0.396 OA
ATOM     27  H2  UNL     1      -4.726 -24.712  24.860  1.00  0.00     0.209 HD
ENDBRANCH  25  26
ENDBRANCH  24  25
ENDBRANCH  19  24
ENDBRANCH  18  19
ENDBRANCH  17  18
ENDBRANCH  16  17
ENDBRANCH  15  16
ENDBRANCH  12  15
BRANCH  10  28
HETATM   28  N6  UNL     1      -9.433 -22.650  31.536  1.00  0.00    -0.384 N 
ATOM     29  H62 UNL     1      -9.250 -22.009  30.763  1.00  0.00     0.157 HD
ATOM     30  H61 UNL     1      -9.237 -23.645  31.435  1.00  0.00     0.157 HD
ENDBRANCH  10  28
BRANCH   1  31
HETATM   31  N1  UNL     1      -6.929 -19.042  35.886  1.00  0.00    -0.234 N 
ATOM     32  H12 UNL     1      -6.949 -19.197  36.894  1.00  0.00     0.174 HD
ATOM     33  H11 UNL     1      -6.349 -18.292  35.509  1.00  0.00     0.174 HD
ENDBRANCH   1  31
BRANCH   7  34
HETATM   34  N4  UNL     1     -12.901 -22.388  34.488  1.00  0.00    -0.234 N 
ATOM     35  H42 UNL     1     -13.668 -21.844  34.093  1.00  0.00     0.174 HD
ATOM     36  H41 UNL     1     -13.102 -23.166  35.116  1.00  0.00     0.174 HD
ENDBRANCH   7  34
TORSDOF 14
ENDMDL
MODEL 4
REMARK VINA RESULT: -6.265426295      2.928      7.144
REMARK  14 active torsions:
REMARK  status: ('A' for Active; 'I' for Inactive)
REMARK    1  A    between atoms: N1_1  and  C1_4 
REMARK    2  A    between atoms: C3_10  and  N4_11 
REMARK    3  A    between atoms: C4_16  and  N6_17 
REMARK    4  A    between atoms: C6_21  and  S1_22 
REMARK    5  A    between atoms: S1_22  and  C7_23 
REMARK    6  A    between atoms: C7_23  and  C8_24 
REMARK    7  A    between atoms: C8_24  and  C9_25 
REMARK    8  A    between atoms: C9_25  and  N7_26 
REMARK    9  A    between atoms: N7_26  and  C10_27 
REMARK   10  A    between atoms: N7_26  and  C12_31 
REMARK   11  A    between atoms: C10_27  and  C11_28 
REMARK   12  A    between atoms: C11_28  and  O1_29 
REMARK   13  A    between atoms: C12_31  and  C13_32 
REMARK   14  A    between atoms: C13_32  and  O2_33 
ROOT
HETATM    1  C1  UNL     1      -7.648 -19.853  34.974  1.00  0.00     0.678 A 
HETATM    2  N2  UNL     1      -8.909 -20.190  35.305  1.00  0.00    -0.175 N 
ATOM      3  H2  UNL     1      -9.295 -19.847  36.184  1.00  0.00     0.186 HD
HETATM    4  C2  UNL     1      -9.675 -20.958  34.523  1.00  0.00     0.153 A 
HETATM    5  N3  UNL     1     -10.944 -21.305  34.845  1.00  0.00    -0.175 N 
ATOM      6  H3  UNL     1     -11.335 -20.964  35.723  1.00  0.00     0.186 HD
HETATM    7  C3  UNL     1     -11.712 -22.079  34.055  1.00  0.00     0.679 A 
HETATM    8  N5  UNL     1     -11.220 -22.542  32.892  1.00  0.00    -0.176 N 
ATOM      9  H5  UNL     1     -11.798 -23.129  32.291  1.00  0.00     0.186 HD
HETATM   10  C4  UNL     1      -9.955 -22.226  32.521  1.00  0.00     0.131 A 
HETATM   11  C5  UNL     1      -9.171 -21.433  33.332  1.00  0.00     0.087 A 
HETATM   12  C6  UNL     1      -7.859 -21.079  32.993  1.00  0.00     0.104 A 
HETATM   13  N8  UNL     1      -7.128 -20.302  33.813  1.00  0.00    -0.185 N 
ATOM     14  H8  UNL     1      -6.174 -20.052  33.555  1.00  0.00     0.185 HD
ENDROOT
BRANCH  12  15
HETATM   15  S1  UNL     1      -7.248 -21.716  31.471  1.00  0.00    -0.110 SA
BRANCH  15  16
HETATM   16  C7  UNL     1      -5.545 -21.342  31.105  1.00  0.00     0.086 C 
BRANCH  16  17
HETATM   17  C8  UNL     1      -5.121 -21.725  29.728  1.00  0.00     0.055 C 
BRANCH  17  18
HETATM   18  C9  UNL     1      -5.866 -22.915  29.178  1.00  0.00     0.069 C 
BRANCH  18  19
HETATM   19  N7  UNL     1      -6.131 -22.906  27.800  1.00  0.00    -0.350 N 
BRANCH  19  20
HETATM   20  C10 UNL     1      -5.112 -22.613  26.888  1.00  0.00     0.094 C 
BRANCH  20  21
HETATM   21  C11 UNL     1      -5.285 -23.250  25.524  1.00  0.00     0.209 C 
BRANCH  21  22
HETATM   22  O1  UNL     1      -4.391 -24.339  25.432  1.00  0.00    -0.396 OA
ATOM     23  H1  UNL     1      -3.546 -24.005  25.152  1.00  0.00     0.209 HD
ENDBRANCH  21  22
ENDBRANCH  20  21
ENDBRANCH  19  20
BRANCH  19  24
HETATM   24  C12 UNL     1      -7.398 -23.323  27.375  1.00  0.00     0.094 C 
BRANCH  24  25
HETATM   25  C13 UNL     1      -8.553 -22.986  28.264  1.00  0.00     0.209 C 
BRANCH  25  26
HETATM   26  O2  UNL     1      -9.172 -24.129  28.779  1.00  0.00    -0.396 OA
ATOM     27  H2  UNL     1      -9.155 -24.148  29.729  1.00  0.00     0.209 HD
ENDBRANCH  25  26
ENDBRANCH  24  25
ENDBRANCH  19  24
ENDBRANCH  18  19
ENDBRANCH  17  18
ENDBRANCH  16  17
ENDBRANCH  15  16
ENDBRANCH  12  15
BRANCH  10  28
HETATM   28  N6  UNL     1      -9.485 -22.673  31.404  1.00  0.00    -0.384 N 
ATOM     29  H62 UNL     1      -8.878 -23.492  31.397  1.00  0.00     0.157 HD
ATOM     30  H61 UNL     1      -9.725 -22.203  30.532  1.00  0.00     0.157 HD
ENDBRANCH  10  28
BRANCH   1  31
HETATM   31  N1  UNL     1      -6.925 -19.103  35.753  1.00  0.00    -0.234 N 
ATOM     32  H12 UNL     1      -7.381 -18.422  36.361  1.00  0.00     0.174 HD
ATOM     33  H11 UNL     1      -5.908 -19.181  35.767  1.00  0.00     0.174 HD
ENDBRANCH   1  31
BRANCH   7  34
HETATM   34  N4  UNL     1     -12.930 -22.400  34.383  1.00  0.00    -0.234 N 
ATOM     35  H42 UNL     1     -13.071 -22.999  35.196  1.00  0.00     0.174 HD
ATOM     36  H41 UNL     1     -13.735 -22.071  33.851  1.00  0.00     0.174 HD
ENDBRANCH   7  34
TORSDOF 14
ENDMDL
MODEL 5
REMARK VINA RESULT: -6.111069468      2.677      7.365
REMARK  14 active torsions:
REMARK  status: ('A' for Active; 'I' for Inactive)
REMARK    1  A    between atoms: N1_1  and  C1_4 
REMARK    2  A    between atoms: C3_10  and  N4_11 
REMARK    3  A    between atoms: C4_16  and  N6_17 
REMARK    4  A    between atoms: C6_21  and  S1_22 
REMARK    5  A    between atoms: S1_22  and  C7_23 
REMARK    6  A    between atoms: C7_23  and  C8_24 
REMARK    7  A    between atoms: C8_24  and  C9_25 
REMARK    8  A    between atoms: C9_25  and  N7_26 
REMARK    9  A    between atoms: N7_26  and  C10_27 
REMARK   10  A    between atoms: N7_26  and  C12_31 
REMARK   11  A    between atoms: C10_27  and  C11_28 
REMARK   12  A    between atoms: C11_28  and  O1_29 
REMARK   13  A    between atoms: C12_31  and  C13_32 
REMARK   14  A    between atoms: C13_32  and  O2_33 
ROOT
HETATM    1  C1  UNL     1     -11.269 -22.087  33.841  1.00  0.00     0.678 A 
HETATM    2  N2  UNL     1     -10.782 -21.339  34.850  1.00  0.00    -0.175 N 
ATOM      3  H2  UNL     1     -11.339 -21.237  35.698  1.00  0.00     0.186 HD
HETATM    4  C2  UNL     1      -9.596 -20.727  34.781  1.00  0.00     0.153 A 
HETATM    5  N3  UNL     1      -9.095 -19.973  35.788  1.00  0.00    -0.175 N 
ATOM      6  H3  UNL     1      -9.647 -19.866  36.639  1.00  0.00     0.186 HD
HETATM    7  C3  UNL     1      -7.900 -19.357  35.715  1.00  0.00     0.679 A 
HETATM    8  N5  UNL     1      -7.153 -19.480  34.604  1.00  0.00    -0.176 N 
ATOM      9  H5  UNL     1      -6.246 -19.015  34.544  1.00  0.00     0.186 HD
HETATM   10  C4  UNL     1      -7.606 -20.223  33.565  1.00  0.00     0.131 A 
HETATM   11  C5  UNL     1      -8.830 -20.853  33.643  1.00  0.00     0.087 A 
HETATM   12  C6  UNL     1      -9.341 -21.631  32.597  1.00  0.00     0.104 A 
HETATM   13  N8  UNL     1     -10.540 -22.229  32.714  1.00  0.00    -0.185 N 
ATOM     14  H8  UNL     1     -10.902 -22.793  31.946  1.00  0.00     0.185 HD
ENDROOT
BRANCH  12  15
HETATM   15  S1  UNL     1      -8.340 -21.756  31.156  1.00  0.00    -0.110 SA
BRANCH  15  16
HETATM   16  C7  UNL     1      -9.066 -22.629  29.783  1.00  0.00     0.086 C 
BRANCH  16  17
HETATM   17  C8  UNL     1      -8.434 -22.327  28.467  1.00  0.00     0.055 C 
BRANCH  17  18
HETATM   18  C9  UNL     1      -7.411 -23.351  28.043  1.00  0.00     0.069 C 
BRANCH  18  19
HETATM   19  N7  UNL     1      -6.065 -22.961  28.122  1.00  0.00    -0.350 N 
BRANCH  19  20
HETATM   20  C10 UNL     1      -5.343 -22.679  26.958  1.00  0.00     0.094 C 
BRANCH  20  21
HETATM   21  C11 UNL     1      -5.704 -23.543  25.767  1.00  0.00     0.209 C 
BRANCH  21  22
HETATM   22  O1  UNL     1      -4.544 -24.240  25.364  1.00  0.00    -0.396 OA
ATOM     23  H1  UNL     1      -4.226 -24.739  26.107  1.00  0.00     0.209 HD
ENDBRANCH  21  22
ENDBRANCH  20  21
ENDBRANCH  19  20
BRANCH  19  24
HETATM   24  C12 UNL     1      -5.522 -22.740  29.393  1.00  0.00     0.094 C 
BRANCH  24  25
HETATM   25  C13 UNL     1      -4.551 -21.610  29.525  1.00  0.00     0.209 C 
BRANCH  25  26
HETATM   26  O2  UNL     1      -5.077 -20.547  30.266  1.00  0.00    -0.396 OA
ATOM     27  H2  UNL     1      -5.247 -20.789  31.168  1.00  0.00     0.209 HD
ENDBRANCH  25  26
ENDBRANCH  24  25
ENDBRANCH  19  24
ENDBRANCH  18  19
ENDBRANCH  17  18
ENDBRANCH  16  17
ENDBRANCH  15  16
ENDBRANCH  12  15
BRANCH  10  28
HETATM   28  N6  UNL     1      -6.886 -20.339  32.499  1.00  0.00    -0.384 N 
ATOM     29  H62 UNL     1      -6.376 -19.533  32.137  1.00  0.00     0.157 HD
ATOM     30  H61 UNL     1      -6.829 -21.239  32.023  1.00  0.00     0.157 HD
ENDBRANCH  10  28
BRANCH   1  31
HETATM   31  N1  UNL     1     -12.427 -22.673  33.935  1.00  0.00    -0.234 N 
ATOM     32  H12 UNL     1     -12.599 -23.327  34.699  1.00  0.00     0.174 HD
ATOM     33  H11 UNL     1     -13.167 -22.491  33.258  1.00  0.00     0.174 HD
ENDBRANCH   1  31
BRANCH   7  34
HETATM   34  N4  UNL     1      -7.437 -18.636  36.695  1.00  0.00    -0.234 N 
ATOM     35  H42 UNL     1      -7.047 -19.116  37.506  1.00  0.00     0.174 HD
ATOM     36  H41 UNL     1      -7.454 -17.617  36.669  1.00  0.00     0.174 HD
ENDBRANCH   7  34
TORSDOF 14
ENDMDL
