MODEL 1
REMARK VINA RESULT: -7.313695789      0.000      0.000
REMARK  12 active torsions:
REMARK  status: ('A' for Active; 'I' for Inactive)
REMARK    1  A    between atoms: C2_2  and  N1_3 
REMARK    2  A    between atoms: N1_3  and  C3_6 
REMARK    3  A    between atoms: C3_6  and  C4_7 
REMARK    4  A    between atoms: C4_7  and  C5_8 
REMARK    5  A    between atoms: C5_8  and  C6_9 
REMARK    6  A    between atoms: C6_9  and  N2_10 
REMARK    7  A    between atoms: N2_10  and  C7_13 
REMARK    8  A    between atoms: C7_13  and  C8_14 
REMARK    9  A    between atoms: C9_16  and  N3_17 
REMARK   10  A    between atoms: C12_23  and  N6_24 
REMARK   11  A    between atoms: C13_29  and  N8_30 
REMARK   12  A    between atoms: C15_36  and  O2_37 
ROOT
HETATM    1  C8  UNL     1      -6.327 -21.742  32.499  1.00  0.00     0.182 C 
HETATM    2  O1  UNL     1      -7.030 -22.671  33.206  1.00  0.00    -0.354 OA
HETATM    3  C9  UNL     1      -7.495 -21.741  34.066  1.00  0.00     0.264 C 
HETATM    4  C15 UNL     1      -6.932 -20.629  33.277  1.00  0.00     0.198 C 
ENDROOT
BRANCH   3   5
HETATM    5  N3  UNL     1      -8.929 -21.716  34.277  1.00  0.00    -0.274 N 
HETATM    6  C10 UNL     1      -9.544 -21.073  35.279  1.00  0.00     0.199 A 
HETATM    7  N4  UNL     1      -8.992 -20.299  36.329  1.00  0.00    -0.063 NA
HETATM    8  N5  UNL     1     -10.873 -21.314  35.096  1.00  0.00    -0.324 N 
HETATM    9  C11 UNL     1     -11.091 -22.079  34.021  1.00  0.00     0.124 A 
ATOM     10  H5  UNL     1     -11.610 -20.955  35.703  1.00  0.00     0.169 HD
HETATM   11  C12 UNL     1     -12.196 -22.611  33.390  1.00  0.00     0.145 A 
HETATM   12  C14 UNL     1      -9.818 -22.338  33.492  1.00  0.00     0.158 A 
HETATM   13  N7  UNL     1     -12.088 -23.366  32.288  1.00  0.00    -0.175 N 
HETATM   14  C13 UNL     1     -10.852 -23.610  31.785  1.00  0.00     0.679 A 
ATOM     15  H7  UNL     1     -12.917 -23.749  31.836  1.00  0.00     0.186 HD
HETATM   16  N9  UNL     1      -9.766 -23.098  32.387  1.00  0.00    -0.174 N 
ATOM     17  H9  UNL     1      -8.851 -23.299  31.983  1.00  0.00     0.186 HD
BRANCH  11  18
HETATM   18  N6  UNL     1     -13.370 -22.386  33.860  1.00  0.00    -0.383 N 
ATOM     19  H62 UNL     1     -13.875 -23.160  34.289  1.00  0.00     0.157 HD
ATOM     20  H61 UNL     1     -13.770 -21.449  33.796  1.00  0.00     0.157 HD
ENDBRANCH  11  18
BRANCH  14  21
HETATM   21  N8  UNL     1     -10.714 -24.331  30.723  1.00  0.00    -0.234 N 
ATOM     22  H82 UNL     1     -11.003 -25.309  30.735  1.00  0.00     0.174 HD
ATOM     23  H81 UNL     1     -10.315 -23.926  29.875  1.00  0.00     0.174 HD
ENDBRANCH  14  21
ENDBRANCH   3   5
BRANCH   4  24
HETATM   24  O2  UNL     1      -7.835 -19.914  32.485  1.00  0.00    -0.389 OA
ATOM     25  H2  UNL     1      -8.117 -19.125  32.932  1.00  0.00     0.210 HD
ENDBRANCH   4  24
BRANCH   1  26
HETATM   26  C7  UNL     1      -6.619 -21.701  31.007  1.00  0.00     0.266 C 
BRANCH  26  27
HETATM   27  N2  UNL     1      -5.527 -21.023  30.372  1.00  0.00    -0.073 N 
ATOM     28  H22 UNL     1      -4.824 -20.741  31.056  1.00  0.00     0.277 HD
ATOM     29  H21 UNL     1      -5.812 -20.102  30.039  1.00  0.00     0.277 HD
BRANCH  27  30
HETATM   30  C6  UNL     1      -4.923 -21.809  29.293  1.00  0.00     0.232 C 
BRANCH  30  31
HETATM   31  C5  UNL     1      -5.852 -22.952  29.015  1.00  0.00     0.029 C 
BRANCH  31  32
HETATM   32  C4  UNL     1      -6.276 -23.071  27.573  1.00  0.00     0.029 C 
BRANCH  32  33
HETATM   33  C3  UNL     1      -5.109 -22.743  26.674  1.00  0.00     0.232 C 
BRANCH  33  34
HETATM   34  N1  UNL     1      -5.178 -23.412  25.398  1.00  0.00    -0.075 N 
ATOM     35  H12 UNL     1      -4.598 -24.250  25.371  1.00  0.00     0.277 HD
ATOM     36  H11 UNL     1      -4.709 -22.885  24.662  1.00  0.00     0.277 HD
BRANCH  34  37
HETATM   37  C2  UNL     1      -6.543 -23.691  25.076  1.00  0.00     0.228 C 
HETATM   38  C1  UNL     1      -6.664 -24.423  23.744  1.00  0.00     0.034 C 
ENDBRANCH  34  37
ENDBRANCH  33  34
ENDBRANCH  32  33
ENDBRANCH  31  32
ENDBRANCH  30  31
ENDBRANCH  27  30
ENDBRANCH  26  27
ENDBRANCH   1  26
TORSDOF 12
ENDMDL
MODEL 2
REMARK VINA RESULT: -7.151987530      1.205      1.348
REMARK  12 active torsions:
REMARK  status: ('A' for Active; 'I' for Inactive)
REMARK    1  A    between atoms: C2_2  and  N1_3 
REMARK    2  A    between atoms: N1_3  and  C3_6 
REMARK    3  A    between atoms: C3_6  and  C4_7 
REMARK    4  A    between atoms: C4_7  and  C5_8 
REMARK    5  A    between atoms: C5_8  and  C6_9 
REMARK    6  A    between atoms: C6_9  and  N2_10 
REMARK    7  A    between atoms: N2_10  and  C7_13 
REMARK    8  A    between atoms: C7_13  and  C8_14 
REMARK    9  A    between atoms: C9_16  and  N3_17 
REMARK   10  A    between atoms: C12_23  and  N6_24 
REMARK   11  A    between atoms: C13_29  and  N8_30 
REMARK   12  A    between atoms: C15_36  and  O2_37 
ROOT
HETATM    1  C8  UNL     1      -6.349 -21.696  32.546  1.00  0.00     0.182 C 
HETATM    2  O1  UNL     1      -7.038 -22.638  33.249  1.00  0.00    -0.354 OA
HETATM    3  C9  UNL     1      -7.539 -21.714  34.095  1.00  0.00     0.264 C 
HETATM    4  C15 UNL     1      -6.993 -20.593  33.306  1.00  0.00     0.198 C 
ENDROOT
BRANCH   3   5
HETATM    5  N3  UNL     1      -8.976 -21.724  34.286  1.00  0.00    -0.274 N 
HETATM    6  C10 UNL     1      -9.620 -21.115  35.290  1.00  0.00     0.199 A 
HETATM    7  N4  UNL     1      -9.100 -20.349  36.363  1.00  0.00    -0.063 NA
HETATM    8  N5  UNL     1     -10.940 -21.381  35.082  1.00  0.00    -0.324 N 
HETATM    9  C11 UNL     1     -11.126 -22.130  33.990  1.00  0.00     0.124 A 
ATOM     10  H5  UNL     1     -11.694 -21.051  35.685  1.00  0.00     0.169 HD
HETATM   11  C12 UNL     1     -12.209 -22.674  33.333  1.00  0.00     0.145 A 
HETATM   12  C14 UNL     1      -9.839 -22.350  33.475  1.00  0.00     0.158 A 
HETATM   13  N7  UNL     1     -12.068 -23.404  32.218  1.00  0.00    -0.175 N 
HETATM   14  C13 UNL     1     -10.820 -23.611  31.729  1.00  0.00     0.679 A 
ATOM     15  H7  UNL     1     -12.882 -23.797  31.747  1.00  0.00     0.186 HD
HETATM   16  N9  UNL     1      -9.754 -23.088  32.357  1.00  0.00    -0.174 N 
ATOM     17  H9  UNL     1      -8.830 -23.260  31.963  1.00  0.00     0.186 HD
BRANCH  11  18
HETATM   18  N6  UNL     1     -13.394 -22.483  33.789  1.00  0.00    -0.383 N 
ATOM     19  H62 UNL     1     -13.523 -21.789  34.524  1.00  0.00     0.157 HD
ATOM     20  H61 UNL     1     -14.175 -23.022  33.414  1.00  0.00     0.157 HD
ENDBRANCH  11  18
BRANCH  14  21
HETATM   21  N8  UNL     1     -10.651 -24.308  30.655  1.00  0.00    -0.234 N 
ATOM     22  H82 UNL     1     -11.314 -25.048  30.424  1.00  0.00     0.174 HD
ATOM     23  H81 UNL     1      -9.857 -24.123  30.043  1.00  0.00     0.174 HD
ENDBRANCH  14  21
ENDBRANCH   3   5
BRANCH   4  24
HETATM   24  O2  UNL     1      -7.903 -19.907  32.495  1.00  0.00    -0.389 OA
ATOM     25  H2  UNL     1      -8.784 -20.230  32.638  1.00  0.00     0.210 HD
ENDBRANCH   4  24
BRANCH   1  26
HETATM   26  C7  UNL     1      -6.620 -21.673  31.049  1.00  0.00     0.266 C 
BRANCH  26  27
HETATM   27  N2  UNL     1      -5.502 -21.035  30.418  1.00  0.00    -0.073 N 
ATOM     28  H22 UNL     1      -4.765 -20.836  31.094  1.00  0.00     0.277 HD
ATOM     29  H21 UNL     1      -5.734 -20.081  30.141  1.00  0.00     0.277 HD
BRANCH  27  30
HETATM   30  C6  UNL     1      -4.981 -21.799  29.282  1.00  0.00     0.232 C 
BRANCH  30  31
HETATM   31  C5  UNL     1      -5.839 -23.020  29.148  1.00  0.00     0.029 C 
BRANCH  31  32
HETATM   32  C4  UNL     1      -6.529 -23.152  27.814  1.00  0.00     0.029 C 
BRANCH  32  33
HETATM   33  C3  UNL     1      -8.009 -22.909  27.984  1.00  0.00     0.232 C 
BRANCH  33  34
HETATM   34  N1  UNL     1      -8.820 -23.925  27.360  1.00  0.00    -0.075 N 
ATOM     35  H12 UNL     1      -9.746 -23.992  27.783  1.00  0.00     0.277 HD
ATOM     36  H11 UNL     1      -8.493 -24.866  27.577  1.00  0.00     0.277 HD
BRANCH  34  37
HETATM   37  C2  UNL     1      -8.886 -23.688  25.952  1.00  0.00     0.228 C 
HETATM   38  C1  UNL     1      -9.947 -24.558  25.288  1.00  0.00     0.034 C 
ENDBRANCH  34  37
ENDBRANCH  33  34
ENDBRANCH  32  33
ENDBRANCH  31  32
ENDBRANCH  30  31
ENDBRANCH  27  30
ENDBRANCH  26  27
ENDBRANCH   1  26
TORSDOF 12
ENDMDL
MODEL 3
REMARK VINA RESULT: -6.276022815      1.795      3.763
REMARK  12 active torsions:
REMARK  status: ('A' for Active; 'I' for Inactive)
REMARK    1  A    between atoms: C2_2  and  N1_3 
REMARK    2  A    between atoms: N1_3  and  C3_6 
REMARK    3  A    between atoms: C3_6  and  C4_7 
REMARK    4  A    between atoms: C4_7  and  C5_8 
REMARK    5  A    between atoms: C5_8  and  C6_9 
REMARK    6  A    between atoms: C6_9  and  N2_10 
REMARK    7  A    between atoms: N2_10  and  C7_13 
REMARK    8  A    between atoms: C7_13  and  C8_14 
REMARK    9  A    between atoms: C9_16  and  N3_17 
REMARK   10  A    between atoms: C12_23  and  N6_24 
REMARK   11  A    between atoms: C13_29  and  N8_30 
REMARK   12  A    between atoms: C15_36  and  O2_37 
ROOT
HETATM    1  C8  UNL     1      -9.151 -21.812  31.089  1.00  0.00     0.182 C 
HETATM    2  O1  UNL     1      -9.623 -20.709  31.736  1.00  0.00    -0.354 OA
HETATM    3  C9  UNL     1     -10.302 -21.459  32.629  1.00  0.00     0.264 C 
HETATM    4  C15 UNL     1      -9.708 -22.715  32.131  1.00  0.00     0.198 C 
ENDROOT
BRANCH   3   5
HETATM    5  N3  UNL     1     -10.079 -21.157  34.029  1.00  0.00    -0.274 N 
HETATM    6  C10 UNL     1     -10.896 -21.514  35.029  1.00  0.00     0.199 A 
HETATM    7  N4  UNL     1     -12.114 -22.236  34.986  1.00  0.00    -0.063 NA
HETATM    8  N5  UNL     1     -10.309 -21.029  36.159  1.00  0.00    -0.324 N 
HETATM    9  C11 UNL     1      -9.167 -20.389  35.887  1.00  0.00     0.124 A 
ATOM     10  H5  UNL     1     -10.694 -21.140  37.098  1.00  0.00     0.169 HD
HETATM   11  C12 UNL     1      -8.200 -19.730  36.617  1.00  0.00     0.145 A 
HETATM   12  C14 UNL     1      -9.023 -20.476  34.494  1.00  0.00     0.158 A 
HETATM   13  N7  UNL     1      -7.130 -19.172  36.035  1.00  0.00    -0.175 N 
HETATM   14  C13 UNL     1      -7.000 -19.262  34.688  1.00  0.00     0.679 A 
ATOM     15  H7  UNL     1      -6.426 -18.690  36.593  1.00  0.00     0.186 HD
HETATM   16  N9  UNL     1      -7.933 -19.902  33.962  1.00  0.00    -0.174 N 
ATOM     17  H9  UNL     1      -7.805 -19.953  32.952  1.00  0.00     0.186 HD
BRANCH  11  18
HETATM   18  N6  UNL     1      -8.315 -19.640  37.893  1.00  0.00    -0.383 N 
ATOM     19  H62 UNL     1      -9.074 -20.148  38.347  1.00  0.00     0.157 HD
ATOM     20  H61 UNL     1      -7.655 -19.070  38.422  1.00  0.00     0.157 HD
ENDBRANCH  11  18
BRANCH  14  21
HETATM   21  N8  UNL     1      -5.979 -18.738  34.097  1.00  0.00    -0.234 N 
ATOM     22  H82 UNL     1      -6.037 -17.784  33.742  1.00  0.00     0.174 HD
ATOM     23  H81 UNL     1      -5.120 -19.275  33.983  1.00  0.00     0.174 HD
ENDBRANCH  14  21
ENDBRANCH   3   5
BRANCH   4  24
HETATM   24  O2  UNL     1      -8.680 -23.263  32.904  1.00  0.00    -0.389 OA
ATOM     25  H2  UNL     1      -9.021 -23.935  33.481  1.00  0.00     0.210 HD
ENDBRANCH   4  24
BRANCH   1  26
HETATM   26  C7  UNL     1      -7.639 -21.881  30.938  1.00  0.00     0.266 C 
BRANCH  26  27
HETATM   27  N2  UNL     1      -7.349 -21.964  29.537  1.00  0.00    -0.073 N 
ATOM     28  H22 UNL     1      -7.614 -21.104  29.057  1.00  0.00     0.277 HD
ATOM     29  H21 UNL     1      -7.980 -22.615  29.070  1.00  0.00     0.277 HD
BRANCH  27  30
HETATM   30  C6  UNL     1      -5.950 -22.305  29.268  1.00  0.00     0.232 C 
BRANCH  30  31
HETATM   31  C5  UNL     1      -5.960 -23.496  28.357  1.00  0.00     0.029 C 
BRANCH  31  32
HETATM   32  C4  UNL     1      -6.438 -23.204  26.957  1.00  0.00     0.029 C 
BRANCH  32  33
HETATM   33  C3  UNL     1      -5.252 -23.084  26.032  1.00  0.00     0.232 C 
BRANCH  33  34
HETATM   34  N1  UNL     1      -5.379 -23.898  24.848  1.00  0.00    -0.075 N 
ATOM     35  H12 UNL     1      -5.003 -24.837  24.985  1.00  0.00     0.277 HD
ATOM     36  H11 UNL     1      -4.750 -23.596  24.104  1.00  0.00     0.277 HD
BRANCH  34  37
HETATM   37  C2  UNL     1      -6.743 -23.920  24.425  1.00  0.00     0.228 C 
HETATM   38  C1  UNL     1      -6.902 -24.633  23.087  1.00  0.00     0.034 C 
ENDBRANCH  34  37
ENDBRANCH  33  34
ENDBRANCH  32  33
ENDBRANCH  31  32
ENDBRANCH  30  31
ENDBRANCH  27  30
ENDBRANCH  26  27
ENDBRANCH   1  26
TORSDOF 12
ENDMDL
MODEL 4
REMARK VINA RESULT: -6.131424838      1.824      7.409
REMARK  12 active torsions:
REMARK  status: ('A' for Active; 'I' for Inactive)
REMARK    1  A    between atoms: C2_2  and  N1_3 
REMARK    2  A    between atoms: N1_3  and  C3_6 
REMARK    3  A    between atoms: C3_6  and  C4_7 
REMARK    4  A    between atoms: C4_7  and  C5_8 
REMARK    5  A    between atoms: C5_8  and  C6_9 
REMARK    6  A    between atoms: C6_9  and  N2_10 
REMARK    7  A    between atoms: N2_10  and  C7_13 
REMARK    8  A    between atoms: C7_13  and  C8_14 
REMARK    9  A    between atoms: C9_16  and  N3_17 
REMARK   10  A    between atoms: C12_23  and  N6_24 
REMARK   11  A    between atoms: C13_29  and  N8_30 
REMARK   12  A    between atoms: C15_36  and  O2_37 
ROOT
HETATM    1  C8  UNL     1      -9.883 -22.253  32.368  1.00  0.00     0.182 C 
HETATM    2  O1  UNL     1      -9.588 -21.539  31.246  1.00  0.00    -0.354 OA
HETATM    3  C9  UNL     1      -8.339 -21.273  31.679  1.00  0.00     0.264 C 
HETATM    4  C15 UNL     1      -8.476 -22.171  32.842  1.00  0.00     0.198 C 
ENDROOT
BRANCH   3   5
HETATM    5  N3  UNL     1      -7.258 -21.574  30.761  1.00  0.00    -0.274 N 
HETATM    6  C10 UNL     1      -5.975 -21.240  30.953  1.00  0.00     0.199 A 
HETATM    7  N4  UNL     1      -5.373 -20.549  32.033  1.00  0.00    -0.063 NA
HETATM    8  N5  UNL     1      -5.316 -21.711  29.857  1.00  0.00    -0.324 N 
HETATM    9  C11 UNL     1      -6.148 -22.320  29.005  1.00  0.00     0.124 A 
ATOM     10  H5  UNL     1      -4.312 -21.613  29.705  1.00  0.00     0.169 HD
HETATM   11  C12 UNL     1      -6.030 -22.955  27.786  1.00  0.00     0.145 A 
HETATM   12  C14 UNL     1      -7.414 -22.226  29.602  1.00  0.00     0.158 A 
HETATM   13  N7  UNL     1      -7.089 -23.485  27.158  1.00  0.00    -0.175 N 
HETATM   14  C13 UNL     1      -8.308 -23.389  27.744  1.00  0.00     0.679 A 
ATOM     15  H7  UNL     1      -6.980 -23.951  26.258  1.00  0.00     0.186 HD
HETATM   16  N9  UNL     1      -8.440 -22.774  28.931  1.00  0.00    -0.174 N 
ATOM     17  H9  UNL     1      -9.370 -22.720  29.346  1.00  0.00     0.186 HD
BRANCH  11  18
HETATM   18  N6  UNL     1      -4.880 -23.050  27.225  1.00  0.00    -0.383 N 
ATOM     19  H62 UNL     1      -4.467 -22.208  26.823  1.00  0.00     0.157 HD
ATOM     20  H61 UNL     1      -4.406 -23.953  27.190  1.00  0.00     0.157 HD
ENDBRANCH  11  18
BRANCH  14  21
HETATM   21  N8  UNL     1      -9.348 -23.892  27.166  1.00  0.00    -0.234 N 
ATOM     22  H82 UNL     1      -9.619 -24.855  27.363  1.00  0.00     0.174 HD
ATOM     23  H81 UNL     1      -9.894 -23.330  26.513  1.00  0.00     0.174 HD
ENDBRANCH  14  21
ENDBRANCH   3   5
BRANCH   4  24
HETATM   24  O2  UNL     1      -7.852 -23.418  32.738  1.00  0.00    -0.389 OA
ATOM     25  H2  UNL     1      -8.500 -24.110  32.681  1.00  0.00     0.210 HD
ENDBRANCH   4  24
BRANCH   1  26
HETATM   26  C7  UNL     1     -10.386 -23.668  32.127  1.00  0.00     0.266 C 
BRANCH  26  27
HETATM   27  N2  UNL     1     -11.473 -23.900  33.032  1.00  0.00    -0.073 N 
ATOM     28  H22 UNL     1     -11.130 -24.080  33.976  1.00  0.00     0.277 HD
ATOM     29  H21 UNL     1     -11.919 -24.798  32.845  1.00  0.00     0.277 HD
BRANCH  27  30
HETATM   30  C6  UNL     1     -12.456 -22.814  33.028  1.00  0.00     0.232 C 
BRANCH  30  31
HETATM   31  C5  UNL     1     -12.714 -22.455  34.460  1.00  0.00     0.029 C 
BRANCH  31  32
HETATM   32  C4  UNL     1     -12.134 -21.130  34.884  1.00  0.00     0.029 C 
BRANCH  32  33
HETATM   33  C3  UNL     1     -11.082 -21.353  35.943  1.00  0.00     0.232 C 
BRANCH  33  34
HETATM   34  N1  UNL     1      -9.762 -20.963  35.514  1.00  0.00    -0.075 N 
ATOM     35  H12 UNL     1      -9.774 -20.104  34.964  1.00  0.00     0.277 HD
ATOM     36  H11 UNL     1      -9.389 -21.588  34.799  1.00  0.00     0.277 HD
BRANCH  34  37
HETATM   37  C2  UNL     1      -8.898 -20.865  36.648  1.00  0.00     0.228 C 
HETATM   38  C1  UNL     1      -7.744 -21.857  36.559  1.00  0.00     0.034 C 
ENDBRANCH  34  37
ENDBRANCH  33  34
ENDBRANCH  32  33
ENDBRANCH  31  32
ENDBRANCH  30  31
ENDBRANCH  27  30
ENDBRANCH  26  27
ENDBRANCH   1  26
TORSDOF 12
ENDMDL
MODEL 5
REMARK VINA RESULT: -6.016898218      1.719      6.843
REMARK  12 active torsions:
REMARK  status: ('A' for Active; 'I' for Inactive)
REMARK    1  A    between atoms: C2_2  and  N1_3 
REMARK    2  A    between atoms: N1_3  and  C3_6 
REMARK    3  A    between atoms: C3_6  and  C4_7 
REMARK    4  A    between atoms: C4_7  and  C5_8 
REMARK    5  A    between atoms: C5_8  and  C6_9 
REMARK    6  A    between atoms: C6_9  and  N2_10 
REMARK    7  A    between atoms: N2_10  and  C7_13 
REMARK    8  A    between atoms: C7_13  and  C8_14 
REMARK    9  A    between atoms: C9_16  and  N3_17 
REMARK   10  A    between atoms: C12_23  and  N6_24 
REMARK   11  A    between atoms: C13_29  and  N8_30 
REMARK   12  A    between atoms: C15_36  and  O2_37 
ROOT
HETATM    1  C8  UNL     1      -6.330 -20.554  32.856  1.00  0.00     0.182 C 
HETATM    2  O1  UNL     1      -6.640 -20.090  31.613  1.00  0.00    -0.354 OA
HETATM    3  C9  UNL     1      -6.262 -21.247  31.030  1.00  0.00     0.264 C 
HETATM    4  C15 UNL     1      -6.068 -21.920  32.329  1.00  0.00     0.198 C 
ENDROOT
BRANCH   3   5
HETATM    5  N3  UNL     1      -7.218 -21.859  30.128  1.00  0.00    -0.274 N 
HETATM    6  C10 UNL     1      -8.526 -22.002  30.381  1.00  0.00     0.199 A 
HETATM    7  N4  UNL     1      -9.273 -21.619  31.523  1.00  0.00    -0.063 NA
HETATM    8  N5  UNL     1      -9.037 -22.620  29.279  1.00  0.00    -0.324 N 
HETATM    9  C11 UNL     1      -8.091 -22.859  28.365  1.00  0.00     0.124 A 
ATOM     10  H5  UNL     1     -10.020 -22.870  29.165  1.00  0.00     0.169 HD
HETATM   11  C12 UNL     1      -8.045 -23.435  27.113  1.00  0.00     0.145 A 
HETATM   12  C14 UNL     1      -6.906 -22.360  28.926  1.00  0.00     0.158 A 
HETATM   13  N7  UNL     1      -6.902 -23.531  26.418  1.00  0.00    -0.175 N 
HETATM   14  C13 UNL     1      -5.763 -23.045  26.970  1.00  0.00     0.679 A 
ATOM     15  H7  UNL     1      -6.890 -23.960  25.494  1.00  0.00     0.186 HD
HETATM   16  N9  UNL     1      -5.791 -22.480  28.189  1.00  0.00    -0.174 N 
ATOM     17  H9  UNL     1      -4.918 -22.123  28.575  1.00  0.00     0.186 HD
BRANCH  11  18
HETATM   18  N6  UNL     1      -9.119 -23.898  26.583  1.00  0.00    -0.383 N 
ATOM     19  H62 UNL     1     -10.006 -23.716  27.052  1.00  0.00     0.157 HD
ATOM     20  H61 UNL     1      -9.067 -24.432  25.715  1.00  0.00     0.157 HD
ENDBRANCH  11  18
BRANCH  14  21
HETATM   21  N8  UNL     1      -4.646 -23.119  26.326  1.00  0.00    -0.234 N 
ATOM     22  H82 UNL     1      -4.644 -23.424  25.353  1.00  0.00     0.174 HD
ATOM     23  H81 UNL     1      -3.770 -22.878  26.788  1.00  0.00     0.174 HD
ENDBRANCH  14  21
ENDBRANCH   3   5
BRANCH   4  24
HETATM   24  O2  UNL     1      -7.080 -22.799  32.728  1.00  0.00    -0.389 OA
ATOM     25  H2  UNL     1      -7.052 -23.594  32.209  1.00  0.00     0.210 HD
ENDBRANCH   4  24
BRANCH   1  26
HETATM   26  C7  UNL     1      -7.453 -20.478  33.879  1.00  0.00     0.266 C 
BRANCH  26  27
HETATM   27  N2  UNL     1      -7.032 -21.210  35.038  1.00  0.00    -0.073 N 
ATOM     28  H22 UNL     1      -6.275 -20.726  35.521  1.00  0.00     0.277 HD
ATOM     29  H21 UNL     1      -6.540 -22.063  34.773  1.00  0.00     0.277 HD
BRANCH  27  30
HETATM   30  C6  UNL     1      -8.136 -21.503  35.954  1.00  0.00     0.232 C 
BRANCH  30  31
HETATM   31  C5  UNL     1      -9.383 -20.960  35.323  1.00  0.00     0.029 C 
BRANCH  31  32
HETATM   32  C4  UNL     1     -10.656 -21.339  36.034  1.00  0.00     0.029 C 
BRANCH  32  33
HETATM   33  C3  UNL     1     -11.780 -21.454  35.033  1.00  0.00     0.232 C 
BRANCH  33  34
HETATM   34  N1  UNL     1     -11.370 -22.078  33.799  1.00  0.00    -0.075 N 
ATOM     35  H12 UNL     1     -10.524 -22.636  33.913  1.00  0.00     0.277 HD
ATOM     36  H11 UNL     1     -11.010 -21.401  33.127  1.00  0.00     0.277 HD
BRANCH  34  37
HETATM   37  C2  UNL     1     -12.453 -22.843  33.266  1.00  0.00     0.228 C 
HETATM   38  C1  UNL     1     -11.962 -23.888  32.271  1.00  0.00     0.034 C 
ENDBRANCH  34  37
ENDBRANCH  33  34
ENDBRANCH  32  33
ENDBRANCH  31  32
ENDBRANCH  30  31
ENDBRANCH  27  30
ENDBRANCH  26  27
ENDBRANCH   1  26
TORSDOF 12
ENDMDL
