MODEL 1
REMARK VINA RESULT: -6.174644787      0.000      0.000
REMARK  13 active torsions:
REMARK  status: ('A' for Active; 'I' for Inactive)
REMARK    1  A    between atoms: N2_4  and  N3_6 
REMARK    2  A    between atoms: C1_8  and  C2_9 
REMARK    3  A    between atoms: C3_10  and  O1_11 
REMARK    4  A    between atoms: C4_13  and  O2_14 
REMARK    5  A    between atoms: O2_14  and  C5_15 
REMARK    6  A    between atoms: C5_15  and  C6_16 
REMARK    7  A    between atoms: C6_16  and  C7_17 
REMARK    8  A    between atoms: C7_17  and  C8_18 
REMARK    9  A    between atoms: C8_18  and  C9_19 
REMARK   10  A    between atoms: C9_19  and  C10_20 
REMARK   11  A    between atoms: C10_20  and  O3_21 
REMARK   12  A    between atoms: C11_23  and  N4_24 
REMARK   13  A    between atoms: C12_28  and  C13_29 
ROOT
HETATM    1  C2  UNL     1       8.426  34.303  -6.023  1.00  0.00     0.070 C 
HETATM    2  C3  UNL     1       7.997  33.993  -4.579  1.00  0.00     0.159 C 
HETATM    3  C4  UNL     1       8.399  35.298  -3.887  1.00  0.00     0.181 C 
HETATM    4  C11 UNL     1       9.533  35.863  -4.696  1.00  0.00     0.226 C 
HETATM    5  C12 UNL     1       9.819  34.809  -5.711  1.00  0.00     0.094 C 
ENDROOT
BRANCH   3   6
HETATM    6  O2  UNL     1       7.328  36.150  -3.898  1.00  0.00    -0.381 OA
BRANCH   6   7
HETATM    7  C5  UNL     1       7.044  36.802  -2.736  1.00  0.00     0.168 C 
BRANCH   7   8
HETATM    8  C6  UNL     1       8.032  37.789  -2.236  1.00  0.00     0.026 C 
BRANCH   8   9
HETATM    9  C7  UNL     1       8.357  38.912  -3.183  1.00  0.00     0.002 C 
BRANCH   9  10
HETATM   10  C8  UNL     1       9.736  39.446  -2.940  1.00  0.00     0.002 C 
BRANCH  10  11
HETATM   11  C9  UNL     1      10.333  38.955  -1.627  1.00  0.00     0.026 C 
BRANCH  11  12
HETATM   12  C10 UNL     1      11.513  39.858  -1.261  1.00  0.00     0.164 C 
BRANCH  12  13
HETATM   13  O3  UNL     1      12.180  40.277  -2.399  1.00  0.00    -0.401 OA
ATOM     14  H3  UNL     1      13.090  40.465  -2.204  1.00  0.00     0.209 HD
ENDBRANCH  12  13
ENDBRANCH  11  12
ENDBRANCH  10  11
ENDBRANCH   9  10
ENDBRANCH   8   9
ENDBRANCH   7   8
ENDBRANCH   6   7
ENDBRANCH   3   6
BRANCH   2  15
HETATM   15  O1  UNL     1       8.800  32.929  -4.174  1.00  0.00    -0.392 OA
ATOM     16  H1  UNL     1       8.285  32.453  -3.533  1.00  0.00     0.210 HD
ENDBRANCH   2  15
BRANCH   4  17
HETATM   17  N4  UNL     1      10.686  36.147  -3.853  1.00  0.00    -0.072 N 
ATOM     18  H43 UNL     1      10.407  36.385  -2.901  1.00  0.00     0.274 HD
ATOM     19  H42 UNL     1      11.222  35.303  -3.651  1.00  0.00     0.274 HD
ATOM     20  H41 UNL     1      11.271  36.874  -4.266  1.00  0.00     0.274 HD
ENDBRANCH   4  17
BRANCH   1  21
HETATM   21  C1  UNL     1       8.418  33.090  -6.837  1.00  0.00     0.089 C 
HETATM   22  N3  UNL     1       8.008  33.147  -8.046  1.00  0.00    -0.301 N 
ATOM     23  H3  UNL     1       7.998  32.307  -8.625  1.00  0.00     0.187 HD
BRANCH  22  24
HETATM   24  N2  UNL     1       7.575  34.363  -8.572  1.00  0.00    -0.250 N 
HETATM   25  N1  UNL     1       8.189  34.804  -9.601  1.00  0.00    -0.331 N 
ATOM     26  H12 UNL     1       8.961  34.278 -10.009  1.00  0.00     0.178 HD
ATOM     27  H11 UNL     1       7.872  35.694  -9.986  1.00  0.00     0.178 HD
ATOM     28  H2  UNL     1       6.800  34.879  -8.153  1.00  0.00     0.207 HD
ENDBRANCH  22  24
ENDBRANCH   1  21
BRANCH   5  29
HETATM   29  C13 UNL     1      10.537  35.288  -6.898  1.00  0.00     0.093 C 
HETATM   30  N5  UNL     1      11.659  34.817  -7.306  1.00  0.00    -0.391 N 
ATOM     31  H52 UNL     1      12.080  34.059  -6.769  1.00  0.00     0.157 HD
ATOM     32  H51 UNL     1      12.158  35.150  -8.132  1.00  0.00     0.157 HD
HETATM   33  N6  UNL     1       9.950  36.345  -7.647  1.00  0.00    -0.088 NA
ENDBRANCH   5  29
TORSDOF 13
ENDMDL
MODEL 2
REMARK VINA RESULT: -6.100036767      3.372      6.637
REMARK  13 active torsions:
REMARK  status: ('A' for Active; 'I' for Inactive)
REMARK    1  A    between atoms: N2_4  and  N3_6 
REMARK    2  A    between atoms: C1_8  and  C2_9 
REMARK    3  A    between atoms: C3_10  and  O1_11 
REMARK    4  A    between atoms: C4_13  and  O2_14 
REMARK    5  A    between atoms: O2_14  and  C5_15 
REMARK    6  A    between atoms: C5_15  and  C6_16 
REMARK    7  A    between atoms: C6_16  and  C7_17 
REMARK    8  A    between atoms: C7_17  and  C8_18 
REMARK    9  A    between atoms: C8_18  and  C9_19 
REMARK   10  A    between atoms: C9_19  and  C10_20 
REMARK   11  A    between atoms: C10_20  and  O3_21 
REMARK   12  A    between atoms: C11_23  and  N4_24 
REMARK   13  A    between atoms: C12_28  and  C13_29 
ROOT
HETATM    1  C2  UNL     1       7.226  36.911  -2.932  1.00  0.00     0.070 C 
HETATM    2  C3  UNL     1       7.229  35.435  -2.503  1.00  0.00     0.159 C 
HETATM    3  C4  UNL     1       5.807  35.031  -2.901  1.00  0.00     0.181 C 
HETATM    4  C11 UNL     1       4.986  36.288  -2.834  1.00  0.00     0.226 C 
HETATM    5  C12 UNL     1       5.921  37.306  -2.275  1.00  0.00     0.094 C 
ENDROOT
BRANCH   3   6
HETATM    6  O2  UNL     1       5.830  34.539  -4.178  1.00  0.00    -0.381 OA
BRANCH   6   7
HETATM    7  C5  UNL     1       5.691  33.191  -4.325  1.00  0.00     0.168 C 
BRANCH   7   8
HETATM    8  C6  UNL     1       6.702  32.475  -5.141  1.00  0.00     0.026 C 
BRANCH   8   9
HETATM    9  C7  UNL     1       7.210  33.226  -6.342  1.00  0.00     0.002 C 
BRANCH   9  10
HETATM   10  C8  UNL     1       7.290  32.336  -7.544  1.00  0.00     0.002 C 
BRANCH  10  11
HETATM   11  C9  UNL     1       7.409  33.116  -8.847  1.00  0.00     0.026 C 
BRANCH  11  12
HETATM   12  C10 UNL     1       8.083  34.457  -8.552  1.00  0.00     0.164 C 
BRANCH  12  13
HETATM   13  O3  UNL     1       8.337  35.146  -9.725  1.00  0.00    -0.401 OA
ATOM     14  H3  UNL     1       9.182  35.579  -9.684  1.00  0.00     0.209 HD
ENDBRANCH  12  13
ENDBRANCH  11  12
ENDBRANCH  10  11
ENDBRANCH   9  10
ENDBRANCH   8   9
ENDBRANCH   7   8
ENDBRANCH   6   7
ENDBRANCH   3   6
BRANCH   2  15
HETATM   15  O1  UNL     1       7.389  35.451  -1.119  1.00  0.00    -0.392 OA
ATOM     16  H1  UNL     1       6.617  35.889  -0.781  1.00  0.00     0.210 HD
ENDBRANCH   2  15
BRANCH   4  17
HETATM   17  N4  UNL     1       3.808  36.099  -1.998  1.00  0.00    -0.072 N 
ATOM     18  H43 UNL     1       4.047  35.677  -1.101  1.00  0.00     0.274 HD
ATOM     19  H42 UNL     1       3.441  36.988  -1.658  1.00  0.00     0.274 HD
ATOM     20  H41 UNL     1       3.094  35.560  -2.489  1.00  0.00     0.274 HD
ENDBRANCH   4  17
BRANCH   1  21
HETATM   21  C1  UNL     1       8.386  37.611  -2.385  1.00  0.00     0.089 C 
HETATM   22  N3  UNL     1       9.494  37.586  -3.022  1.00  0.00    -0.301 N 
ATOM     23  H3  UNL     1      10.311  38.072  -2.649  1.00  0.00     0.187 HD
BRANCH  22  24
HETATM   24  N2  UNL     1       9.582  36.893  -4.228  1.00  0.00    -0.250 N 
HETATM   25  N1  UNL     1      10.405  35.918  -4.280  1.00  0.00    -0.331 N 
ATOM     26  H12 UNL     1      10.966  35.670  -3.466  1.00  0.00     0.178 HD
ATOM     27  H11 UNL     1      10.468  35.410  -5.162  1.00  0.00     0.178 HD
ATOM     28  H2  UNL     1       9.012  37.153  -5.033  1.00  0.00     0.207 HD
ENDBRANCH  22  24
ENDBRANCH   1  21
BRANCH   5  29
HETATM   29  C13 UNL     1       5.537  38.696  -2.546  1.00  0.00     0.093 C 
HETATM   30  N5  UNL     1       4.843  39.426  -1.749  1.00  0.00    -0.391 N 
ATOM     31  H52 UNL     1       4.537  39.011  -0.869  1.00  0.00     0.157 HD
ATOM     32  H51 UNL     1       4.576  40.392  -1.937  1.00  0.00     0.157 HD
HETATM   33  N6  UNL     1       5.962  39.275  -3.773  1.00  0.00    -0.088 NA
ENDBRANCH   5  29
TORSDOF 13
ENDMDL
MODEL 3
REMARK VINA RESULT: -6.016331330      3.888      7.258
REMARK  13 active torsions:
REMARK  status: ('A' for Active; 'I' for Inactive)
REMARK    1  A    between atoms: N2_4  and  N3_6 
REMARK    2  A    between atoms: C1_8  and  C2_9 
REMARK    3  A    between atoms: C3_10  and  O1_11 
REMARK    4  A    between atoms: C4_13  and  O2_14 
REMARK    5  A    between atoms: O2_14  and  C5_15 
REMARK    6  A    between atoms: C5_15  and  C6_16 
REMARK    7  A    between atoms: C6_16  and  C7_17 
REMARK    8  A    between atoms: C7_17  and  C8_18 
REMARK    9  A    between atoms: C8_18  and  C9_19 
REMARK   10  A    between atoms: C9_19  and  C10_20 
REMARK   11  A    between atoms: C10_20  and  O3_21 
REMARK   12  A    between atoms: C11_23  and  N4_24 
REMARK   13  A    between atoms: C12_28  and  C13_29 
ROOT
HETATM    1  C2  UNL     1       8.726  36.579  -4.289  1.00  0.00     0.070 C 
HETATM    2  C3  UNL     1       9.740  35.804  -5.147  1.00  0.00     0.159 C 
HETATM    3  C4  UNL     1       8.875  34.624  -5.595  1.00  0.00     0.181 C 
HETATM    4  C11 UNL     1       7.837  34.441  -4.523  1.00  0.00     0.226 C 
HETATM    5  C12 UNL     1       8.232  35.410  -3.463  1.00  0.00     0.094 C 
ENDROOT
BRANCH   3   6
HETATM    6  O2  UNL     1       8.284  34.940  -6.789  1.00  0.00    -0.381 OA
BRANCH   6   7
HETATM    7  C5  UNL     1       8.232  33.959  -7.733  1.00  0.00     0.168 C 
BRANCH   7   8
HETATM    8  C6  UNL     1       7.335  34.164  -8.897  1.00  0.00     0.026 C 
BRANCH   8   9
HETATM    9  C7  UNL     1       6.898  32.908  -9.602  1.00  0.00     0.002 C 
BRANCH   9  10
HETATM   10  C8  UNL     1       5.978  33.218 -10.742  1.00  0.00     0.002 C 
BRANCH  10  11
HETATM   11  C9  UNL     1       5.602  34.694 -10.810  1.00  0.00     0.026 C 
BRANCH  11  12
HETATM   12  C10 UNL     1       4.507  34.869 -11.863  1.00  0.00     0.164 C 
BRANCH  12  13
HETATM   13  O3  UNL     1       4.770  35.967 -12.664  1.00  0.00    -0.401 OA
ATOM     14  H3  UNL     1       4.598  35.765 -13.577  1.00  0.00     0.209 HD
ENDBRANCH  12  13
ENDBRANCH  11  12
ENDBRANCH  10  11
ENDBRANCH   9  10
ENDBRANCH   8   9
ENDBRANCH   7   8
ENDBRANCH   6   7
ENDBRANCH   3   6
BRANCH   2  15
HETATM   15  O1  UNL     1      10.740  35.399  -4.264  1.00  0.00    -0.392 OA
ATOM     16  H1  UNL     1      11.315  34.839  -4.772  1.00  0.00     0.210 HD
ENDBRANCH   2  15
BRANCH   4  17
HETATM   17  N4  UNL     1       7.821  33.066  -4.040  1.00  0.00    -0.072 N 
ATOM     18  H43 UNL     1       7.498  32.419  -4.759  1.00  0.00     0.274 HD
ATOM     19  H42 UNL     1       8.764  32.701  -3.914  1.00  0.00     0.274 HD
ATOM     20  H41 UNL     1       7.268  32.986  -3.186  1.00  0.00     0.274 HD
ENDBRANCH   4  17
BRANCH   1  21
HETATM   21  C1  UNL     1       9.397  37.607  -3.497  1.00  0.00     0.089 C 
HETATM   22  N3  UNL     1       8.907  38.787  -3.454  1.00  0.00    -0.301 N 
ATOM     23  H3  UNL     1       9.367  39.513  -2.904  1.00  0.00     0.187 HD
BRANCH  22  24
HETATM   24  N2  UNL     1       7.742  39.077  -4.161  1.00  0.00    -0.250 N 
HETATM   25  N1  UNL     1       6.741  39.495  -3.487  1.00  0.00    -0.331 N 
ATOM     26  H12 UNL     1       6.808  39.607  -2.476  1.00  0.00     0.178 HD
ATOM     27  H11 UNL     1       5.888  39.708  -4.005  1.00  0.00     0.178 HD
ATOM     28  H2  UNL     1       7.691  38.961  -5.173  1.00  0.00     0.207 HD
ENDBRANCH  22  24
ENDBRANCH   1  21
BRANCH   5  29
HETATM   29  C13 UNL     1       7.150  35.774  -2.540  1.00  0.00     0.093 C 
HETATM   30  N5  UNL     1       7.173  35.560  -1.274  1.00  0.00    -0.391 N 
ATOM     31  H52 UNL     1       7.998  35.105  -0.884  1.00  0.00     0.157 HD
ATOM     32  H51 UNL     1       6.421  35.813  -0.632  1.00  0.00     0.157 HD
HETATM   33  N6  UNL     1       5.999  36.408  -3.084  1.00  0.00    -0.088 NA
ENDBRANCH   5  29
TORSDOF 13
ENDMDL
MODEL 4
REMARK VINA RESULT: -5.896695585      4.308      7.388
REMARK  13 active torsions:
REMARK  status: ('A' for Active; 'I' for Inactive)
REMARK    1  A    between atoms: N2_4  and  N3_6 
REMARK    2  A    between atoms: C1_8  and  C2_9 
REMARK    3  A    between atoms: C3_10  and  O1_11 
REMARK    4  A    between atoms: C4_13  and  O2_14 
REMARK    5  A    between atoms: O2_14  and  C5_15 
REMARK    6  A    between atoms: C5_15  and  C6_16 
REMARK    7  A    between atoms: C6_16  and  C7_17 
REMARK    8  A    between atoms: C7_17  and  C8_18 
REMARK    9  A    between atoms: C8_18  and  C9_19 
REMARK   10  A    between atoms: C9_19  and  C10_20 
REMARK   11  A    between atoms: C10_20  and  O3_21 
REMARK   12  A    between atoms: C11_23  and  N4_24 
REMARK   13  A    between atoms: C12_28  and  C13_29 
ROOT
HETATM    1  C2  UNL     1       6.979  35.170  -3.030  1.00  0.00     0.070 C 
HETATM    2  C3  UNL     1       7.853  34.134  -3.755  1.00  0.00     0.159 C 
HETATM    3  C4  UNL     1       6.793  33.426  -4.603  1.00  0.00     0.181 C 
HETATM    4  C11 UNL     1       5.497  33.577  -3.856  1.00  0.00     0.226 C 
HETATM    5  C12 UNL     1       5.888  34.225  -2.573  1.00  0.00     0.094 C 
ENDROOT
BRANCH   3   6
HETATM    6  O2  UNL     1       6.720  34.045  -5.823  1.00  0.00    -0.381 OA
BRANCH   6   7
HETATM    7  C5  UNL     1       7.823  33.973  -6.620  1.00  0.00     0.168 C 
BRANCH   7   8
HETATM    8  C6  UNL     1       7.629  34.102  -8.085  1.00  0.00     0.026 C 
BRANCH   8   9
HETATM    9  C7  UNL     1       7.156  32.856  -8.784  1.00  0.00     0.002 C 
BRANCH   9  10
HETATM   10  C8  UNL     1       6.487  33.184 -10.083  1.00  0.00     0.002 C 
BRANCH  10  11
HETATM   11  C9  UNL     1       6.509  34.675 -10.397  1.00  0.00     0.026 C 
BRANCH  11  12
HETATM   12  C10 UNL     1       5.095  35.113 -10.783  1.00  0.00     0.164 C 
BRANCH  12  13
HETATM   13  O3  UNL     1       5.080  36.446 -11.154  1.00  0.00    -0.401 OA
ATOM     14  H3  UNL     1       5.044  36.531 -12.099  1.00  0.00     0.209 HD
ENDBRANCH  12  13
ENDBRANCH  11  12
ENDBRANCH  10  11
ENDBRANCH   9  10
ENDBRANCH   8   9
ENDBRANCH   7   8
ENDBRANCH   6   7
ENDBRANCH   3   6
BRANCH   2  15
HETATM   15  O1  UNL     1       8.347  33.300  -2.753  1.00  0.00    -0.392 OA
ATOM     16  H1  UNL     1       9.093  32.856  -3.139  1.00  0.00     0.210 HD
ENDBRANCH   2  15
BRANCH   4  17
HETATM   17  N4  UNL     1       4.858  32.284  -3.652  1.00  0.00    -0.072 N 
ATOM     18  H43 UNL     1       4.124  32.114  -4.340  1.00  0.00     0.274 HD
ATOM     19  H42 UNL     1       5.481  31.514  -3.897  1.00  0.00     0.274 HD
ATOM     20  H41 UNL     1       4.507  32.196  -2.698  1.00  0.00     0.274 HD
ENDBRANCH   4  17
BRANCH   1  21
HETATM   21  C1  UNL     1       7.713  35.787  -1.928  1.00  0.00     0.089 C 
HETATM   22  N3  UNL     1       7.623  37.048  -1.739  1.00  0.00    -0.301 N 
ATOM     23  H3  UNL     1       8.132  37.489  -0.972  1.00  0.00     0.187 HD
BRANCH  22  24
HETATM   24  N2  UNL     1       6.827  37.817  -2.585  1.00  0.00    -0.250 N 
HETATM   25  N1  UNL     1       5.868  38.469  -2.049  1.00  0.00    -0.331 N 
ATOM     26  H12 UNL     1       5.706  38.418  -1.044  1.00  0.00     0.178 HD
ATOM     27  H11 UNL     1       5.286  39.032  -2.668  1.00  0.00     0.178 HD
ATOM     28  H2  UNL     1       7.003  37.858  -3.590  1.00  0.00     0.207 HD
ENDBRANCH  22  24
ENDBRANCH   1  21
BRANCH   5  29
HETATM   29  C13 UNL     1       4.790  34.906  -1.877  1.00  0.00     0.093 C 
HETATM   30  N5  UNL     1       4.389  34.614  -0.693  1.00  0.00    -0.391 N 
ATOM     31  H52 UNL     1       4.865  33.857  -0.203  1.00  0.00     0.157 HD
ATOM     32  H51 UNL     1       3.625  35.087  -0.209  1.00  0.00     0.157 HD
HETATM   33  N6  UNL     1       4.125  35.962  -2.560  1.00  0.00    -0.088 NA
ENDBRANCH   5  29
TORSDOF 13
ENDMDL
MODEL 5
REMARK VINA RESULT: -5.802964511      5.123      7.344
REMARK  13 active torsions:
REMARK  status: ('A' for Active; 'I' for Inactive)
REMARK    1  A    between atoms: N2_4  and  N3_6 
REMARK    2  A    between atoms: C1_8  and  C2_9 
REMARK    3  A    between atoms: C3_10  and  O1_11 
REMARK    4  A    between atoms: C4_13  and  O2_14 
REMARK    5  A    between atoms: O2_14  and  C5_15 
REMARK    6  A    between atoms: C5_15  and  C6_16 
REMARK    7  A    between atoms: C6_16  and  C7_17 
REMARK    8  A    between atoms: C7_17  and  C8_18 
REMARK    9  A    between atoms: C8_18  and  C9_19 
REMARK   10  A    between atoms: C9_19  and  C10_20 
REMARK   11  A    between atoms: C10_20  and  O3_21 
REMARK   12  A    between atoms: C11_23  and  N4_24 
REMARK   13  A    between atoms: C12_28  and  C13_29 
ROOT
HETATM    1  C2  UNL     1       6.405  34.199  -2.414  1.00  0.00     0.070 C 
HETATM    2  C3  UNL     1       6.694  32.750  -2.839  1.00  0.00     0.159 C 
HETATM    3  C4  UNL     1       5.708  32.603  -4.001  1.00  0.00     0.181 C 
HETATM    4  C11 UNL     1       4.583  33.558  -3.711  1.00  0.00     0.226 C 
HETATM    5  C12 UNL     1       4.896  34.092  -2.355  1.00  0.00     0.094 C 
ENDROOT
BRANCH   3   6
HETATM    6  O2  UNL     1       6.343  32.948  -5.164  1.00  0.00    -0.381 OA
BRANCH   6   7
HETATM    7  C5  UNL     1       7.485  32.271  -5.469  1.00  0.00     0.168 C 
BRANCH   7   8
HETATM    8  C6  UNL     1       7.484  31.424  -6.687  1.00  0.00     0.026 C 
BRANCH   8   9
HETATM    9  C7  UNL     1       8.398  31.883  -7.791  1.00  0.00     0.002 C 
BRANCH   9  10
HETATM   10  C8  UNL     1       8.036  33.259  -8.257  1.00  0.00     0.002 C 
BRANCH  10  11
HETATM   11  C9  UNL     1       7.012  33.248  -9.386  1.00  0.00     0.026 C 
BRANCH  11  12
HETATM   12  C10 UNL     1       7.081  34.588 -10.120  1.00  0.00     0.164 C 
BRANCH  12  13
HETATM   13  O3  UNL     1       8.305  35.198  -9.910  1.00  0.00    -0.401 OA
ATOM     14  H3  UNL     1       8.698  34.892  -9.101  1.00  0.00     0.209 HD
ENDBRANCH  12  13
ENDBRANCH  11  12
ENDBRANCH  10  11
ENDBRANCH   9  10
ENDBRANCH   8   9
ENDBRANCH   7   8
ENDBRANCH   6   7
ENDBRANCH   3   6
BRANCH   2  15
HETATM   15  O1  UNL     1       6.322  31.962  -1.751  1.00  0.00    -0.392 OA
ATOM     16  H1  UNL     1       7.072  31.408  -1.572  1.00  0.00     0.210 HD
ENDBRANCH   2  15
BRANCH   4  17
HETATM   17  N4  UNL     1       3.295  32.877  -3.755  1.00  0.00    -0.072 N 
ATOM     18  H43 UNL     1       2.587  33.440  -4.226  1.00  0.00     0.274 HD
ATOM     19  H42 UNL     1       3.312  32.082  -4.393  1.00  0.00     0.274 HD
ATOM     20  H41 UNL     1       2.995  32.602  -2.819  1.00  0.00     0.274 HD
ENDBRANCH   4  17
BRANCH   1  21
HETATM   21  C1  UNL     1       7.017  34.489  -1.119  1.00  0.00     0.089 C 
HETATM   22  N3  UNL     1       7.654  35.585  -0.956  1.00  0.00    -0.301 N 
ATOM     23  H3  UNL     1       8.086  35.799  -0.056  1.00  0.00     0.187 HD
BRANCH  22  24
HETATM   24  N2  UNL     1       7.757  36.487  -2.013  1.00  0.00    -0.250 N 
HETATM   25  N1  UNL     1       7.624  37.727  -1.736  1.00  0.00    -0.331 N 
ATOM     26  H12 UNL     1       7.450  38.027  -0.777  1.00  0.00     0.178 HD
ATOM     27  H11 UNL     1       7.700  38.387  -2.509  1.00  0.00     0.178 HD
ATOM     28  H2  UNL     1       7.932  36.171  -2.967  1.00  0.00     0.207 HD
ENDBRANCH  22  24
ENDBRANCH   1  21
BRANCH   5  29
HETATM   29  C13 UNL     1       4.240  35.365  -2.038  1.00  0.00     0.093 C 
HETATM   30  N5  UNL     1       3.212  35.483  -1.279  1.00  0.00    -0.391 N 
ATOM     31  H52 UNL     1       2.824  34.633  -0.869  1.00  0.00     0.157 HD
ATOM     32  H51 UNL     1       2.755  36.368  -1.058  1.00  0.00     0.157 HD
HETATM   33  N6  UNL     1       4.780  36.550  -2.610  1.00  0.00    -0.088 NA
ENDBRANCH   5  29
TORSDOF 13
ENDMDL
