MODEL 1
REMARK VINA RESULT: -6.645087328      0.000      0.000
REMARK  13 active torsions:
REMARK  status: ('A' for Active; 'I' for Inactive)
REMARK    1  A    between atoms: N1_1  and  C1_5 
REMARK    2  A    between atoms: C1_5  and  C2_6 
REMARK    3  A    between atoms: C2_6  and  C3_7 
REMARK    4  A    between atoms: C3_7  and  C4_8 
REMARK    5  A    between atoms: C4_8  and  N2_9 
REMARK    6  A    between atoms: N2_9  and  C5_11 
REMARK    7  A    between atoms: C6_14  and  N4_15 
REMARK    8  A    between atoms: N4_15  and  C7_17 
REMARK    9  A    between atoms: C7_17  and  C8_18 
REMARK   10  A    between atoms: C8_18  and  N5_19 
REMARK   11  A    between atoms: C9_25  and  N7_26 
REMARK   12  A    between atoms: N7_26  and  C10_28 
REMARK   13  A    between atoms: C10_28  and  C11_29 
ROOT
HETATM    1  C5  UNL     1       6.957  38.686  -3.259  1.00  0.00     0.707 A 
HETATM    2  N3  UNL     1       6.986  37.356  -3.082  1.00  0.00    -0.022 N 
ATOM      3  H3  UNL     1       7.817  36.830  -3.351  1.00  0.00     0.203 HD
HETATM    4  C6  UNL     1       5.935  36.712  -2.557  1.00  0.00     0.707 A 
HETATM    5  N6  UNL     1       4.855  37.431  -2.212  1.00  0.00    -0.022 N 
ATOM      6  H6  UNL     1       4.054  36.943  -1.812  1.00  0.00     0.203 HD
HETATM    7  C9  UNL     1       4.780  38.758  -2.370  1.00  0.00     0.707 A 
HETATM    8  N8  UNL     1       5.845  39.381  -2.899  1.00  0.00    -0.022 N 
ATOM      9  H8  UNL     1       5.818  40.392  -3.033  1.00  0.00     0.203 HD
ENDROOT
BRANCH   1  10
HETATM   10  N2  UNL     1       7.954  39.333  -3.763  1.00  0.00    -0.225 N 
ATOM     11  H2  UNL     1       7.837  40.284  -4.114  1.00  0.00     0.177 HD
BRANCH  10  12
HETATM   12  C4  UNL     1       9.246  38.674  -3.820  1.00  0.00     0.138 C 
BRANCH  12  13
HETATM   13  C3  UNL     1      10.266  39.583  -3.134  1.00  0.00     0.022 C 
BRANCH  13  14
HETATM   14  C2  UNL     1      10.373  39.117  -1.700  1.00  0.00     0.029 C 
BRANCH  14  15
HETATM   15  C1  UNL     1      11.568  39.745  -1.013  1.00  0.00     0.229 C 
BRANCH  15  16
HETATM   16  N1  UNL     1      12.466  40.293  -2.023  1.00  0.00    -0.079 N 
ATOM     17  H13 UNL     1      13.409  39.912  -1.951  1.00  0.00     0.274 HD
ATOM     18  H12 UNL     1      12.247  39.956  -2.960  1.00  0.00     0.274 HD
ATOM     19  H11 UNL     1      12.453  41.310  -1.964  1.00  0.00     0.274 HD
ENDBRANCH  15  16
ENDBRANCH  14  15
ENDBRANCH  13  14
ENDBRANCH  12  13
ENDBRANCH  10  12
ENDBRANCH   1  10
BRANCH   4  20
HETATM   20  N4  UNL     1       5.895  35.450  -2.361  1.00  0.00    -0.223 N 
ATOM     21  H4  UNL     1       4.972  35.032  -2.239  1.00  0.00     0.177 HD
BRANCH  20  22
HETATM   22  C7  UNL     1       7.016  34.568  -2.298  1.00  0.00     0.165 C 
BRANCH  22  23
HETATM   23  C8  UNL     1       7.053  33.973  -0.897  1.00  0.00     0.249 C 
BRANCH  23  24
HETATM   24  N5  UNL     1       7.739  34.803   0.043  1.00  0.00    -0.078 N 
ATOM     25  H53 UNL     1       7.287  34.770   0.957  1.00  0.00     0.274 HD
ATOM     26  H52 UNL     1       8.644  34.403   0.291  1.00  0.00     0.274 HD
ATOM     27  H51 UNL     1       7.843  35.766  -0.278  1.00  0.00     0.274 HD
ENDBRANCH  23  24
ENDBRANCH  22  23
ENDBRANCH  20  22
ENDBRANCH   4  20
BRANCH   7  28
HETATM   28  N7  UNL     1       3.708  39.365  -2.013  1.00  0.00    -0.225 N 
ATOM     29  H7  UNL     1       2.805  39.004  -2.317  1.00  0.00     0.177 HD
BRANCH  28  30
HETATM   30  C10 UNL     1       3.755  40.553  -1.186  1.00  0.00     0.142 C 
BRANCH  30  31
HETATM   31  C11 UNL     1       2.559  40.480  -0.233  1.00  0.00     0.004 A 
HETATM   32  C12 UNL     1       1.441  41.442  -0.480  1.00  0.00     0.007 A 
HETATM   33  C13 UNL     1       1.256  39.990  -0.754  1.00  0.00     0.007 A 
ENDBRANCH  30  31
ENDBRANCH  28  30
ENDBRANCH   7  28
TORSDOF 13
ENDMDL
MODEL 2
REMARK VINA RESULT: -6.637228537      1.567      4.942
REMARK  13 active torsions:
REMARK  status: ('A' for Active; 'I' for Inactive)
REMARK    1  A    between atoms: N1_1  and  C1_5 
REMARK    2  A    between atoms: C1_5  and  C2_6 
REMARK    3  A    between atoms: C2_6  and  C3_7 
REMARK    4  A    between atoms: C3_7  and  C4_8 
REMARK    5  A    between atoms: C4_8  and  N2_9 
REMARK    6  A    between atoms: N2_9  and  C5_11 
REMARK    7  A    between atoms: C6_14  and  N4_15 
REMARK    8  A    between atoms: N4_15  and  C7_17 
REMARK    9  A    between atoms: C7_17  and  C8_18 
REMARK   10  A    between atoms: C8_18  and  N5_19 
REMARK   11  A    between atoms: C9_25  and  N7_26 
REMARK   12  A    between atoms: N7_26  and  C10_28 
REMARK   13  A    between atoms: C10_28  and  C11_29 
ROOT
HETATM    1  C5  UNL     1       6.750  38.929  -3.473  1.00  0.00     0.707 A 
HETATM    2  N3  UNL     1       5.720  39.733  -3.164  1.00  0.00    -0.022 N 
ATOM      3  H3  UNL     1       5.751  40.716  -3.431  1.00  0.00     0.203 HD
HETATM    4  C6  UNL     1       4.652  39.258  -2.509  1.00  0.00     0.707 A 
HETATM    5  N6  UNL     1       4.640  37.958  -2.171  1.00  0.00    -0.022 N 
ATOM      6  H6  UNL     1       3.828  37.594  -1.672  1.00  0.00     0.203 HD
HETATM    7  C9  UNL     1       5.642  37.120  -2.457  1.00  0.00     0.707 A 
HETATM    8  N8  UNL     1       6.701  37.618  -3.113  1.00  0.00    -0.022 N 
ATOM      9  H8  UNL     1       7.483  37.004  -3.345  1.00  0.00     0.203 HD
ENDROOT
BRANCH   1  10
HETATM   10  N2  UNL     1       7.791  39.360  -4.103  1.00  0.00    -0.225 N 
ATOM     11  H2  UNL     1       7.731  40.171  -4.718  1.00  0.00     0.177 HD
BRANCH  10  12
HETATM   12  C4  UNL     1       9.049  38.661  -3.915  1.00  0.00     0.138 C 
BRANCH  12  13
HETATM   13  C3  UNL     1      10.018  39.619  -3.220  1.00  0.00     0.022 C 
BRANCH  13  14
HETATM   14  C2  UNL     1      10.238  39.083  -1.825  1.00  0.00     0.029 C 
BRANCH  14  15
HETATM   15  C1  UNL     1      11.503  39.654  -1.217  1.00  0.00     0.229 C 
BRANCH  15  16
HETATM   16  N1  UNL     1      12.320  40.235  -2.276  1.00  0.00    -0.079 N 
ATOM     17  H13 UNL     1      12.275  39.697  -3.141  1.00  0.00     0.274 HD
ATOM     18  H12 UNL     1      11.932  41.109  -2.630  1.00  0.00     0.274 HD
ATOM     19  H11 UNL     1      13.276  40.345  -1.937  1.00  0.00     0.274 HD
ENDBRANCH  15  16
ENDBRANCH  14  15
ENDBRANCH  13  14
ENDBRANCH  12  13
ENDBRANCH  10  12
ENDBRANCH   1  10
BRANCH   4  20
HETATM   20  N4  UNL     1       3.640  39.966  -2.183  1.00  0.00    -0.223 N 
ATOM     21  H4  UNL     1       3.016  40.252  -2.939  1.00  0.00     0.177 HD
BRANCH  20  22
HETATM   22  C7  UNL     1       3.296  40.395  -0.866  1.00  0.00     0.165 C 
BRANCH  22  23
HETATM   23  C8  UNL     1       1.789  40.603  -0.829  1.00  0.00     0.249 C 
BRANCH  23  24
HETATM   24  N5  UNL     1       1.408  41.811  -0.165  1.00  0.00    -0.078 N 
ATOM     25  H53 UNL     1       2.216  42.416  -0.019  1.00  0.00     0.274 HD
ATOM     26  H52 UNL     1       0.861  42.410  -0.783  1.00  0.00     0.274 HD
ATOM     27  H51 UNL     1       0.915  41.644   0.712  1.00  0.00     0.274 HD
ENDBRANCH  23  24
ENDBRANCH  22  23
ENDBRANCH  20  22
ENDBRANCH   4  20
BRANCH   7  28
HETATM   28  N7  UNL     1       5.546  35.892  -2.096  1.00  0.00    -0.225 N 
ATOM     29  H7  UNL     1       6.368  35.414  -1.728  1.00  0.00     0.177 HD
BRANCH  28  30
HETATM   30  C10 UNL     1       4.294  35.172  -2.199  1.00  0.00     0.142 C 
BRANCH  30  31
HETATM   31  C11 UNL     1       4.632  33.758  -2.679  1.00  0.00     0.004 A 
HETATM   32  C12 UNL     1       3.802  33.208  -3.793  1.00  0.00     0.007 A 
HETATM   33  C13 UNL     1       5.222  33.582  -4.032  1.00  0.00     0.007 A 
ENDBRANCH  30  31
ENDBRANCH  28  30
ENDBRANCH   7  28
TORSDOF 13
ENDMDL
MODEL 3
REMARK VINA RESULT: -6.630500143      1.740      4.633
REMARK  13 active torsions:
REMARK  status: ('A' for Active; 'I' for Inactive)
REMARK    1  A    between atoms: N1_1  and  C1_5 
REMARK    2  A    between atoms: C1_5  and  C2_6 
REMARK    3  A    between atoms: C2_6  and  C3_7 
REMARK    4  A    between atoms: C3_7  and  C4_8 
REMARK    5  A    between atoms: C4_8  and  N2_9 
REMARK    6  A    between atoms: N2_9  and  C5_11 
REMARK    7  A    between atoms: C6_14  and  N4_15 
REMARK    8  A    between atoms: N4_15  and  C7_17 
REMARK    9  A    between atoms: C7_17  and  C8_18 
REMARK   10  A    between atoms: C8_18  and  N5_19 
REMARK   11  A    between atoms: C9_25  and  N7_26 
REMARK   12  A    between atoms: N7_26  and  C10_28 
REMARK   13  A    between atoms: C10_28  and  C11_29 
ROOT
HETATM    1  C5  UNL     1       6.723  38.935  -3.466  1.00  0.00     0.707 A 
HETATM    2  N3  UNL     1       5.698  39.746  -3.160  1.00  0.00    -0.022 N 
ATOM      3  H3  UNL     1       5.736  40.729  -3.428  1.00  0.00     0.203 HD
HETATM    4  C6  UNL     1       4.626  39.279  -2.506  1.00  0.00     0.707 A 
HETATM    5  N6  UNL     1       4.604  37.981  -2.166  1.00  0.00    -0.022 N 
ATOM      6  H6  UNL     1       3.789  37.622  -1.668  1.00  0.00     0.203 HD
HETATM    7  C9  UNL     1       5.601  37.135  -2.449  1.00  0.00     0.707 A 
HETATM    8  N8  UNL     1       6.665  37.625  -3.104  1.00  0.00    -0.022 N 
ATOM      9  H8  UNL     1       7.442  37.005  -3.333  1.00  0.00     0.203 HD
ENDROOT
BRANCH   1  10
HETATM   10  N2  UNL     1       7.768  39.357  -4.095  1.00  0.00    -0.225 N 
ATOM     11  H2  UNL     1       7.717  40.174  -4.704  1.00  0.00     0.177 HD
BRANCH  10  12
HETATM   12  C4  UNL     1       9.018  38.642  -3.914  1.00  0.00     0.138 C 
BRANCH  12  13
HETATM   13  C3  UNL     1      10.006  39.590  -3.234  1.00  0.00     0.022 C 
BRANCH  13  14
HETATM   14  C2  UNL     1      10.199  39.084  -1.823  1.00  0.00     0.029 C 
BRANCH  14  15
HETATM   15  C1  UNL     1      11.451  39.669  -1.202  1.00  0.00     0.229 C 
BRANCH  15  16
HETATM   16  N1  UNL     1      12.309  40.191  -2.259  1.00  0.00    -0.079 N 
ATOM     17  H13 UNL     1      11.774  40.575  -3.038  1.00  0.00     0.274 HD
ATOM     18  H12 UNL     1      12.791  41.045  -1.981  1.00  0.00     0.274 HD
ATOM     19  H11 UNL     1      12.954  39.459  -2.556  1.00  0.00     0.274 HD
ENDBRANCH  15  16
ENDBRANCH  14  15
ENDBRANCH  13  14
ENDBRANCH  12  13
ENDBRANCH  10  12
ENDBRANCH   1  10
BRANCH   4  20
HETATM   20  N4  UNL     1       3.618  39.995  -2.184  1.00  0.00    -0.223 N 
ATOM     21  H4  UNL     1       2.991  40.274  -2.939  1.00  0.00     0.177 HD
BRANCH  20  22
HETATM   22  C7  UNL     1       3.282  40.441  -0.870  1.00  0.00     0.165 C 
BRANCH  22  23
HETATM   23  C8  UNL     1       1.771  40.621  -0.817  1.00  0.00     0.249 C 
BRANCH  23  24
HETATM   24  N5  UNL     1       1.375  41.804  -0.119  1.00  0.00    -0.078 N 
ATOM     25  H53 UNL     1       1.021  41.577   0.810  1.00  0.00     0.274 HD
ATOM     26  H52 UNL     1       2.188  42.362   0.143  1.00  0.00     0.274 HD
ATOM     27  H51 UNL     1       0.701  42.365  -0.639  1.00  0.00     0.274 HD
ENDBRANCH  23  24
ENDBRANCH  22  23
ENDBRANCH  20  22
ENDBRANCH   4  20
BRANCH   7  28
HETATM   28  N7  UNL     1       5.496  35.908  -2.085  1.00  0.00    -0.225 N 
ATOM     29  H7  UNL     1       6.338  35.382  -1.856  1.00  0.00     0.177 HD
BRANCH  28  30
HETATM   30  C10 UNL     1       4.205  35.257  -1.995  1.00  0.00     0.142 C 
BRANCH  30  31
HETATM   31  C11 UNL     1       4.270  34.304  -0.799  1.00  0.00     0.004 A 
HETATM   32  C12 UNL     1       3.146  34.378   0.183  1.00  0.00     0.007 A 
HETATM   33  C13 UNL     1       3.284  33.196  -0.710  1.00  0.00     0.007 A 
ENDBRANCH  30  31
ENDBRANCH  28  30
ENDBRANCH   7  28
TORSDOF 13
ENDMDL
MODEL 4
REMARK VINA RESULT: -6.610153315      1.463      1.524
REMARK  13 active torsions:
REMARK  status: ('A' for Active; 'I' for Inactive)
REMARK    1  A    between atoms: N1_1  and  C1_5 
REMARK    2  A    between atoms: C1_5  and  C2_6 
REMARK    3  A    between atoms: C2_6  and  C3_7 
REMARK    4  A    between atoms: C3_7  and  C4_8 
REMARK    5  A    between atoms: C4_8  and  N2_9 
REMARK    6  A    between atoms: N2_9  and  C5_11 
REMARK    7  A    between atoms: C6_14  and  N4_15 
REMARK    8  A    between atoms: N4_15  and  C7_17 
REMARK    9  A    between atoms: C7_17  and  C8_18 
REMARK   10  A    between atoms: C8_18  and  N5_19 
REMARK   11  A    between atoms: C9_25  and  N7_26 
REMARK   12  A    between atoms: N7_26  and  C10_28 
REMARK   13  A    between atoms: C10_28  and  C11_29 
ROOT
HETATM    1  C5  UNL     1       7.003  37.620  -2.078  1.00  0.00     0.707 A 
HETATM    2  N3  UNL     1       6.624  36.333  -2.109  1.00  0.00    -0.022 N 
ATOM      3  H3  UNL     1       7.331  35.599  -2.091  1.00  0.00     0.203 HD
HETATM    4  C6  UNL     1       5.327  36.001  -2.164  1.00  0.00     0.707 A 
HETATM    5  N6  UNL     1       4.418  36.990  -2.186  1.00  0.00    -0.022 N 
ATOM      6  H6  UNL     1       3.430  36.741  -2.227  1.00  0.00     0.203 HD
HETATM    7  C9  UNL     1       4.748  38.286  -2.157  1.00  0.00     0.707 A 
HETATM    8  N8  UNL     1       6.054  38.593  -2.104  1.00  0.00    -0.022 N 
ATOM      9  H8  UNL     1       6.338  39.573  -2.082  1.00  0.00     0.203 HD
ENDROOT
BRANCH   1  10
HETATM   10  N2  UNL     1       8.245  37.968  -2.027  1.00  0.00    -0.225 N 
ATOM     11  H2  UNL     1       8.757  37.948  -1.145  1.00  0.00     0.177 HD
BRANCH  10  12
HETATM   12  C4  UNL     1       8.895  38.388  -3.254  1.00  0.00     0.138 C 
BRANCH  12  13
HETATM   13  C3  UNL     1      10.034  39.338  -2.880  1.00  0.00     0.022 C 
BRANCH  13  14
HETATM   14  C2  UNL     1      10.394  39.044  -1.442  1.00  0.00     0.029 C 
BRANCH  14  15
HETATM   15  C1  UNL     1      11.626  39.820  -1.022  1.00  0.00     0.229 C 
BRANCH  15  16
HETATM   16  N1  UNL     1      12.351  40.247  -2.213  1.00  0.00    -0.079 N 
ATOM     17  H13 UNL     1      12.237  39.595  -2.990  1.00  0.00     0.274 HD
ATOM     18  H12 UNL     1      11.930  41.066  -2.650  1.00  0.00     0.274 HD
ATOM     19  H11 UNL     1      13.330  40.396  -1.972  1.00  0.00     0.274 HD
ENDBRANCH  15  16
ENDBRANCH  14  15
ENDBRANCH  13  14
ENDBRANCH  12  13
ENDBRANCH  10  12
ENDBRANCH   1  10
BRANCH   4  20
HETATM   20  N4  UNL     1       4.896  34.799  -2.195  1.00  0.00    -0.223 N 
ATOM     21  H4  UNL     1       5.217  34.215  -2.969  1.00  0.00     0.177 HD
BRANCH  20  22
HETATM   22  C7  UNL     1       4.011  34.192  -1.254  1.00  0.00     0.165 C 
BRANCH  22  23
HETATM   23  C8  UNL     1       4.774  34.025   0.053  1.00  0.00     0.249 C 
BRANCH  23  24
HETATM   24  N5  UNL     1       3.984  33.436   1.089  1.00  0.00    -0.078 N 
ATOM     25  H53 UNL     1       3.072  33.890   1.154  1.00  0.00     0.274 HD
ATOM     26  H52 UNL     1       3.684  32.496   0.829  1.00  0.00     0.274 HD
ATOM     27  H51 UNL     1       4.454  33.431   1.993  1.00  0.00     0.274 HD
ENDBRANCH  23  24
ENDBRANCH  22  23
ENDBRANCH  20  22
ENDBRANCH   4  20
BRANCH   7  28
HETATM   28  N7  UNL     1       3.814  39.165  -2.181  1.00  0.00    -0.225 N 
ATOM     29  H7  UNL     1       2.969  38.981  -2.723  1.00  0.00     0.177 HD
BRANCH  28  30
HETATM   30  C10 UNL     1       3.934  40.413  -1.457  1.00  0.00     0.142 C 
BRANCH  30  31
HETATM   31  C11 UNL     1       2.836  40.415  -0.389  1.00  0.00     0.004 A 
HETATM   32  C12 UNL     1       1.701  41.365  -0.592  1.00  0.00     0.007 A 
HETATM   33  C13 UNL     1       1.488  39.900  -0.746  1.00  0.00     0.007 A 
ENDBRANCH  30  31
ENDBRANCH  28  30
ENDBRANCH   7  28
TORSDOF 13
ENDMDL
MODEL 5
REMARK VINA RESULT: -6.558831622      1.309      6.361
REMARK  13 active torsions:
REMARK  status: ('A' for Active; 'I' for Inactive)
REMARK    1  A    between atoms: N1_1  and  C1_5 
REMARK    2  A    between atoms: C1_5  and  C2_6 
REMARK    3  A    between atoms: C2_6  and  C3_7 
REMARK    4  A    between atoms: C3_7  and  C4_8 
REMARK    5  A    between atoms: C4_8  and  N2_9 
REMARK    6  A    between atoms: N2_9  and  C5_11 
REMARK    7  A    between atoms: C6_14  and  N4_15 
REMARK    8  A    between atoms: N4_15  and  C7_17 
REMARK    9  A    between atoms: C7_17  and  C8_18 
REMARK   10  A    between atoms: C8_18  and  N5_19 
REMARK   11  A    between atoms: C9_25  and  N7_26 
REMARK   12  A    between atoms: N7_26  and  C10_28 
REMARK   13  A    between atoms: C10_28  and  C11_29 
ROOT
HETATM    1  C5  UNL     1       4.710  38.925  -2.531  1.00  0.00     0.707 A 
HETATM    2  N3  UNL     1       4.582  37.617  -2.260  1.00  0.00    -0.022 N 
ATOM      3  H3  UNL     1       3.702  37.264  -1.885  1.00  0.00     0.203 HD
HETATM    4  C6  UNL     1       5.597  36.769  -2.476  1.00  0.00     0.707 A 
HETATM    5  N6  UNL     1       6.743  37.262  -2.970  1.00  0.00    -0.022 N 
ATOM      6  H6  UNL     1       7.517  36.619  -3.136  1.00  0.00     0.203 HD
HETATM    7  C9  UNL     1       6.918  38.557  -3.256  1.00  0.00     0.707 A 
HETATM    8  N8  UNL     1       5.888  39.387  -3.031  1.00  0.00    -0.022 N 
ATOM      9  H8  UNL     1       5.990  40.382  -3.237  1.00  0.00     0.203 HD
ENDROOT
BRANCH   1  10
HETATM   10  N2  UNL     1       3.749  39.764  -2.333  1.00  0.00    -0.225 N 
ATOM     11  H2  UNL     1       3.084  39.982  -3.075  1.00  0.00     0.177 HD
BRANCH  10  12
HETATM   12  C4  UNL     1       3.639  40.390  -1.029  1.00  0.00     0.138 C 
BRANCH  12  13
HETATM   13  C3  UNL     1       2.189  40.252  -0.564  1.00  0.00     0.022 C 
BRANCH  13  14
HETATM   14  C2  UNL     1       1.478  41.524  -0.966  1.00  0.00     0.029 C 
BRANCH  14  15
HETATM   15  C1  UNL     1       0.259  41.762  -0.098  1.00  0.00     0.229 C 
BRANCH  15  16
HETATM   16  N1  UNL     1       0.644  42.568   1.054  1.00  0.00    -0.079 N 
ATOM     17  H13 UNL     1       1.515  42.247   1.478  1.00  0.00     0.274 HD
ATOM     18  H12 UNL     1       0.950  43.503   0.789  1.00  0.00     0.274 HD
ATOM     19  H11 UNL     1      -0.127  42.587   1.721  1.00  0.00     0.274 HD
ENDBRANCH  15  16
ENDBRANCH  14  15
ENDBRANCH  13  14
ENDBRANCH  12  13
ENDBRANCH  10  12
ENDBRANCH   1  10
BRANCH   4  20
HETATM   20  N4  UNL     1       5.543  35.514  -2.240  1.00  0.00    -0.223 N 
ATOM     21  H4  UNL     1       4.614  35.095  -2.190  1.00  0.00     0.177 HD
BRANCH  20  22
HETATM   22  C7  UNL     1       6.656  34.643  -2.041  1.00  0.00     0.165 C 
BRANCH  22  23
HETATM   23  C8  UNL     1       6.702  34.288  -0.561  1.00  0.00     0.249 C 
BRANCH  23  24
HETATM   24  N5  UNL     1       7.830  34.851   0.113  1.00  0.00    -0.078 N 
ATOM     25  H53 UNL     1       8.406  35.393  -0.532  1.00  0.00     0.274 HD
ATOM     26  H52 UNL     1       7.541  35.598   0.745  1.00  0.00     0.274 HD
ATOM     27  H51 UNL     1       8.389  34.154   0.604  1.00  0.00     0.274 HD
ENDBRANCH  23  24
ENDBRANCH  22  23
ENDBRANCH  20  22
ENDBRANCH   4  20
BRANCH   7  28
HETATM   28  N7  UNL     1       8.048  38.942  -3.726  1.00  0.00    -0.225 N 
ATOM     29  H7  UNL     1       8.069  39.653  -4.457  1.00  0.00     0.177 HD
BRANCH  28  30
HETATM   30  C10 UNL     1       9.294  38.387  -3.240  1.00  0.00     0.142 C 
BRANCH  30  31
HETATM   31  C11 UNL     1       9.968  39.475  -2.399  1.00  0.00     0.004 A 
HETATM   32  C12 UNL     1      10.669  39.029  -1.157  1.00  0.00     0.007 A 
HETATM   33  C13 UNL     1      11.452  39.510  -2.328  1.00  0.00     0.007 A 
ENDBRANCH  30  31
ENDBRANCH  28  30
ENDBRANCH   7  28
TORSDOF 13
ENDMDL
