MODEL 1
REMARK VINA RESULT: -6.527599324      0.000      0.000
REMARK  11 active torsions:
REMARK  status: ('A' for Active; 'I' for Inactive)
REMARK    1  A    between atoms: N1_1  and  C1_5 
REMARK    2  A    between atoms: C1_5  and  C2_6 
REMARK    3  A    between atoms: C2_6  and  C3_7 
REMARK    4  A    between atoms: C3_7  and  C4_8 
REMARK    5  A    between atoms: C4_8  and  C5_9 
REMARK    6  A    between atoms: C6_13  and  C7_14 
REMARK    7  A    between atoms: C7_14  and  C8_15 
REMARK    8  A    between atoms: C8_15  and  C9_16 
REMARK    9  A    between atoms: C9_16  and  N3_17 
REMARK       I    between atoms: N6_24  and  C12_25 
REMARK   10  A    between atoms: C12_25  and  C13_27 
REMARK   11  A    between atoms: C13_27  and  N7_28 
ROOT
HETATM    1  C5  UNL     1       8.883  33.984  -6.155  1.00  0.00     0.296 C 
HETATM    2  N2  UNL     1       7.571  33.404  -6.279  1.00  0.00    -0.041 N 
ATOM      3  H21 UNL     1       6.811  34.081  -6.223  1.00  0.00     0.280 HD
ATOM      4  H22 UNL     1       7.286  32.846  -5.474  1.00  0.00     0.280 HD
HETATM    5  C6  UNL     1       7.615  32.653  -7.544  1.00  0.00     0.280 C 
HETATM    6  C11 UNL     1       8.996  32.117  -7.524  1.00  0.00     0.259 C 
HETATM    7  O1  UNL     1       9.416  31.017  -8.006  1.00  0.00    -0.271 OA
HETATM    8  N6  UNL     1       9.793  33.119  -6.831  1.00  0.00    -0.255 N 
HETATM    9  C12 UNL     1      11.214  33.089  -6.922  1.00  0.00     0.253 C 
HETATM   10  O2  UNL     1      11.779  32.205  -7.630  1.00  0.00    -0.271 OA
ENDROOT
BRANCH   1  11
HETATM   11  C4  UNL     1       9.212  34.404  -4.774  1.00  0.00     0.055 C 
BRANCH  11  12
HETATM   12  C3  UNL     1       9.228  35.872  -4.511  1.00  0.00     0.005 C 
BRANCH  12  13
HETATM   13  C2  UNL     1       8.097  36.172  -3.532  1.00  0.00     0.027 C 
BRANCH  13  14
HETATM   14  C1  UNL     1       8.239  37.552  -2.939  1.00  0.00     0.229 C 
BRANCH  14  15
HETATM   15  N1  UNL     1       8.488  37.387  -1.520  1.00  0.00    -0.079 N 
ATOM     16  H13 UNL     1       9.465  37.185  -1.307  1.00  0.00     0.274 HD
ATOM     17  H12 UNL     1       8.418  38.261  -0.999  1.00  0.00     0.274 HD
ATOM     18  H11 UNL     1       7.849  36.668  -1.181  1.00  0.00     0.274 HD
ENDBRANCH  14  15
ENDBRANCH  13  14
ENDBRANCH  12  13
ENDBRANCH  11  12
ENDBRANCH   1  11
BRANCH   5  19
HETATM   19  C7  UNL     1       7.365  33.599  -8.661  1.00  0.00     0.044 C 
BRANCH  19  20
HETATM   20  C8  UNL     1       6.671  33.000  -9.843  1.00  0.00     0.022 C 
BRANCH  20  21
HETATM   21  C9  UNL     1       6.636  33.866 -11.050  1.00  0.00     0.122 C 
BRANCH  21  22
HETATM   22  N3  UNL     1       5.291  33.855 -11.580  1.00  0.00    -0.367 N 
HETATM   23  C10 UNL     1       4.554  34.904 -11.516  1.00  0.00     0.196 C 
HETATM   24  N4  UNL     1       3.229  34.952 -12.018  1.00  0.00    -0.067 NA
HETATM   25  N5  UNL     1       5.110  36.071 -10.907  1.00  0.00    -0.067 NA
ATOM     26  H3  UNL     1       4.923  33.006 -12.009  1.00  0.00     0.161 HD
ENDBRANCH  21  22
ENDBRANCH  20  21
ENDBRANCH  19  20
ENDBRANCH   5  19
BRANCH   9  27
HETATM   27  C13 UNL     1      12.054  34.056  -6.219  1.00  0.00     0.332 C 
BRANCH  27  28
HETATM   28  N7  UNL     1      12.145  35.315  -6.982  1.00  0.00    -0.071 N 
ATOM     29  H73 UNL     1      12.930  35.889  -6.673  1.00  0.00     0.274 HD
ATOM     30  H72 UNL     1      12.443  35.154  -7.944  1.00  0.00     0.274 HD
ATOM     31  H71 UNL     1      11.263  35.826  -6.938  1.00  0.00     0.274 HD
ENDBRANCH  27  28
ENDBRANCH   9  27
TORSDOF 11
ENDMDL
MODEL 2
REMARK VINA RESULT: -6.280794312      2.747      6.833
REMARK  11 active torsions:
REMARK  status: ('A' for Active; 'I' for Inactive)
REMARK    1  A    between atoms: N1_1  and  C1_5 
REMARK    2  A    between atoms: C1_5  and  C2_6 
REMARK    3  A    between atoms: C2_6  and  C3_7 
REMARK    4  A    between atoms: C3_7  and  C4_8 
REMARK    5  A    between atoms: C4_8  and  C5_9 
REMARK    6  A    between atoms: C6_13  and  C7_14 
REMARK    7  A    between atoms: C7_14  and  C8_15 
REMARK    8  A    between atoms: C8_15  and  C9_16 
REMARK    9  A    between atoms: C9_16  and  N3_17 
REMARK       I    between atoms: N6_24  and  C12_25 
REMARK   10  A    between atoms: C12_25  and  C13_27 
REMARK   11  A    between atoms: C13_27  and  N7_28 
ROOT
HETATM    1  C5  UNL     1       8.838  33.052  -7.793  1.00  0.00     0.296 C 
HETATM    2  N2  UNL     1       8.516  31.657  -7.943  1.00  0.00    -0.041 N 
ATOM      3  H21 UNL     1       8.429  31.352  -8.913  1.00  0.00     0.280 HD
ATOM      4  H22 UNL     1       7.565  31.417  -7.662  1.00  0.00     0.280 HD
HETATM    5  C6  UNL     1       9.560  30.951  -7.184  1.00  0.00     0.280 C 
HETATM    6  C11 UNL     1       9.755  31.860  -6.030  1.00  0.00     0.259 C 
HETATM    7  O1  UNL     1      10.072  31.554  -4.837  1.00  0.00    -0.271 OA
HETATM    8  N6  UNL     1       9.506  33.199  -6.543  1.00  0.00    -0.255 N 
HETATM    9  C12 UNL     1       9.925  34.339  -5.798  1.00  0.00     0.253 C 
HETATM   10  O2  UNL     1      10.539  34.180  -4.702  1.00  0.00    -0.271 OA
ENDROOT
BRANCH   1  11
HETATM   11  C4  UNL     1       7.700  33.952  -8.090  1.00  0.00     0.055 C 
BRANCH  11  12
HETATM   12  C3  UNL     1       7.731  34.652  -9.406  1.00  0.00     0.005 C 
BRANCH  12  13
HETATM   13  C2  UNL     1       6.369  34.445 -10.063  1.00  0.00     0.027 C 
BRANCH  13  14
HETATM   14  C1  UNL     1       6.180  33.011 -10.492  1.00  0.00     0.229 C 
BRANCH  14  15
HETATM   15  N1  UNL     1       7.292  32.669 -11.356  1.00  0.00    -0.079 N 
ATOM     16  H13 UNL     1       7.248  33.130 -12.265  1.00  0.00     0.274 HD
ATOM     17  H12 UNL     1       8.176  33.073 -11.047  1.00  0.00     0.274 HD
ATOM     18  H11 UNL     1       7.321  31.652 -11.426  1.00  0.00     0.274 HD
ENDBRANCH  14  15
ENDBRANCH  13  14
ENDBRANCH  12  13
ENDBRANCH  11  12
ENDBRANCH   1  11
BRANCH   5  19
HETATM   19  C7  UNL     1      10.763  30.825  -8.045  1.00  0.00     0.044 C 
BRANCH  19  20
HETATM   20  C8  UNL     1      12.022  30.479  -7.314  1.00  0.00     0.022 C 
BRANCH  20  21
HETATM   21  C9  UNL     1      13.051  31.549  -7.303  1.00  0.00     0.122 C 
BRANCH  21  22
HETATM   22  N3  UNL     1      12.917  32.299  -6.074  1.00  0.00    -0.367 N 
HETATM   23  C10 UNL     1      13.842  32.269  -5.186  1.00  0.00     0.196 C 
HETATM   24  N4  UNL     1      13.764  32.983  -3.963  1.00  0.00    -0.067 NA
HETATM   25  N5  UNL     1      14.999  31.474  -5.455  1.00  0.00    -0.067 NA
ATOM     26  H3  UNL     1      12.079  32.857  -5.913  1.00  0.00     0.161 HD
ENDBRANCH  21  22
ENDBRANCH  20  21
ENDBRANCH  19  20
ENDBRANCH   5  19
BRANCH   9  27
HETATM   27  C13 UNL     1       9.671  35.701  -6.261  1.00  0.00     0.332 C 
BRANCH  27  28
HETATM   28  N7  UNL     1      10.615  36.070  -7.332  1.00  0.00    -0.071 N 
ATOM     29  H73 UNL     1      11.511  36.382  -6.956  1.00  0.00     0.274 HD
ATOM     30  H72 UNL     1      10.942  35.253  -7.847  1.00  0.00     0.274 HD
ATOM     31  H71 UNL     1      10.201  36.768  -7.950  1.00  0.00     0.274 HD
ENDBRANCH  27  28
ENDBRANCH   9  27
TORSDOF 11
ENDMDL
MODEL 3
REMARK VINA RESULT: -6.213227433      4.009      6.252
REMARK  11 active torsions:
REMARK  status: ('A' for Active; 'I' for Inactive)
REMARK    1  A    between atoms: N1_1  and  C1_5 
REMARK    2  A    between atoms: C1_5  and  C2_6 
REMARK    3  A    between atoms: C2_6  and  C3_7 
REMARK    4  A    between atoms: C3_7  and  C4_8 
REMARK    5  A    between atoms: C4_8  and  C5_9 
REMARK    6  A    between atoms: C6_13  and  C7_14 
REMARK    7  A    between atoms: C7_14  and  C8_15 
REMARK    8  A    between atoms: C8_15  and  C9_16 
REMARK    9  A    between atoms: C9_16  and  N3_17 
REMARK       I    between atoms: N6_24  and  C12_25 
REMARK   10  A    between atoms: C12_25  and  C13_27 
REMARK   11  A    between atoms: C13_27  and  N7_28 
ROOT
HETATM    1  C5  UNL     1       8.461  36.398  -3.622  1.00  0.00     0.296 C 
HETATM    2  N2  UNL     1       7.943  36.097  -2.313  1.00  0.00    -0.041 N 
ATOM      3  H21 UNL     1       7.372  36.840  -1.911  1.00  0.00     0.280 HD
ATOM      4  H22 UNL     1       8.651  36.087  -1.578  1.00  0.00     0.280 HD
HETATM    5  C6  UNL     1       7.233  34.818  -2.479  1.00  0.00     0.280 C 
HETATM    6  C11 UNL     1       8.112  34.113  -3.442  1.00  0.00     0.259 C 
HETATM    7  O1  UNL     1       8.336  32.865  -3.530  1.00  0.00    -0.271 OA
HETATM    8  N6  UNL     1       8.680  35.156  -4.286  1.00  0.00    -0.255 N 
HETATM    9  C12 UNL     1       9.304  34.814  -5.520  1.00  0.00     0.253 C 
HETATM   10  O2  UNL     1       9.337  33.604  -5.892  1.00  0.00    -0.271 OA
ENDROOT
BRANCH   1  11
HETATM   11  C4  UNL     1       9.564  37.386  -3.604  1.00  0.00     0.055 C 
BRANCH  11  12
HETATM   12  C3  UNL     1       9.624  38.295  -2.424  1.00  0.00     0.005 C 
BRANCH  12  13
HETATM   13  C2  UNL     1      10.574  39.436  -2.775  1.00  0.00     0.027 C 
BRANCH  13  14
HETATM   14  C1  UNL     1      11.536  39.714  -1.646  1.00  0.00     0.229 C 
BRANCH  14  15
HETATM   15  N1  UNL     1      12.667  40.425  -2.210  1.00  0.00    -0.079 N 
ATOM     16  H13 UNL     1      13.455  39.815  -2.426  1.00  0.00     0.274 HD
ATOM     17  H12 UNL     1      12.496  40.759  -3.158  1.00  0.00     0.274 HD
ATOM     18  H11 UNL     1      12.908  41.174  -1.561  1.00  0.00     0.274 HD
ENDBRANCH  14  15
ENDBRANCH  13  14
ENDBRANCH  12  13
ENDBRANCH  11  12
ENDBRANCH   1  11
BRANCH   5  19
HETATM   19  C7  UNL     1       5.877  35.100  -3.014  1.00  0.00     0.044 C 
BRANCH  19  20
HETATM   20  C8  UNL     1       5.102  36.121  -2.243  1.00  0.00     0.022 C 
BRANCH  20  21
HETATM   21  C9  UNL     1       5.269  37.519  -2.717  1.00  0.00     0.122 C 
BRANCH  21  22
HETATM   22  N3  UNL     1       4.355  38.362  -1.979  1.00  0.00    -0.367 N 
HETATM   23  C10 UNL     1       4.148  39.576  -2.340  1.00  0.00     0.196 C 
HETATM   24  N4  UNL     1       3.264  40.448  -1.655  1.00  0.00    -0.067 NA
HETATM   25  N5  UNL     1       4.850  40.058  -3.488  1.00  0.00    -0.067 NA
ATOM     26  H3  UNL     1       3.869  37.988  -1.164  1.00  0.00     0.161 HD
ENDBRANCH  21  22
ENDBRANCH  20  21
ENDBRANCH  19  20
ENDBRANCH   5  19
BRANCH   9  27
HETATM   27  C13 UNL     1       9.913  35.824  -6.383  1.00  0.00     0.332 C 
BRANCH  27  28
HETATM   28  N7  UNL     1       9.635  35.529  -7.802  1.00  0.00    -0.071 N 
ATOM     29  H73 UNL     1       9.792  34.546  -8.022  1.00  0.00     0.274 HD
ATOM     30  H72 UNL     1       8.638  35.575  -8.010  1.00  0.00     0.274 HD
ATOM     31  H71 UNL     1      10.178  36.144  -8.408  1.00  0.00     0.274 HD
ENDBRANCH  27  28
ENDBRANCH   9  27
TORSDOF 11
ENDMDL
MODEL 4
REMARK VINA RESULT: -6.207545121      2.377      6.738
REMARK  11 active torsions:
REMARK  status: ('A' for Active; 'I' for Inactive)
REMARK    1  A    between atoms: N1_1  and  C1_5 
REMARK    2  A    between atoms: C1_5  and  C2_6 
REMARK    3  A    between atoms: C2_6  and  C3_7 
REMARK    4  A    between atoms: C3_7  and  C4_8 
REMARK    5  A    between atoms: C4_8  and  C5_9 
REMARK    6  A    between atoms: C6_13  and  C7_14 
REMARK    7  A    between atoms: C7_14  and  C8_15 
REMARK    8  A    between atoms: C8_15  and  C9_16 
REMARK    9  A    between atoms: C9_16  and  N3_17 
REMARK       I    between atoms: N6_24  and  C12_25 
REMARK   10  A    between atoms: C12_25  and  C13_27 
REMARK   11  A    between atoms: C13_27  and  N7_28 
ROOT
HETATM    1  C5  UNL     1       9.320  33.320  -7.599  1.00  0.00     0.296 C 
HETATM    2  N2  UNL     1       9.216  32.094  -8.346  1.00  0.00    -0.041 N 
ATOM      3  H21 UNL     1       9.645  32.133  -9.271  1.00  0.00     0.280 HD
ATOM      4  H22 UNL     1       8.272  31.881  -8.667  1.00  0.00     0.280 HD
HETATM    5  C6  UNL     1       9.793  31.069  -7.460  1.00  0.00     0.280 C 
HETATM    6  C11 UNL     1       9.322  31.527  -6.131  1.00  0.00     0.259 C 
HETATM    7  O1  UNL     1       9.024  30.816  -5.119  1.00  0.00    -0.271 OA
HETATM    8  N6  UNL     1       9.265  32.979  -6.216  1.00  0.00    -0.255 N 
HETATM    9  C12 UNL     1       9.175  33.761  -5.029  1.00  0.00     0.253 C 
HETATM   10  O2  UNL     1       9.172  33.188  -3.900  1.00  0.00    -0.271 OA
ENDROOT
BRANCH   1  11
HETATM   11  C4  UNL     1       8.419  34.387  -8.093  1.00  0.00     0.055 C 
BRANCH  11  12
HETATM   12  C3  UNL     1       7.154  33.940  -8.745  1.00  0.00     0.005 C 
BRANCH  12  13
HETATM   13  C2  UNL     1       7.007  34.729 -10.042  1.00  0.00     0.027 C 
BRANCH  13  14
HETATM   14  C1  UNL     1       6.379  33.888 -11.126  1.00  0.00     0.229 C 
BRANCH  14  15
HETATM   15  N1  UNL     1       7.115  32.641 -11.184  1.00  0.00    -0.079 N 
ATOM     16  H13 UNL     1       7.791  32.611 -11.947  1.00  0.00     0.274 HD
ATOM     17  H12 UNL     1       7.778  32.532 -10.417  1.00  0.00     0.274 HD
ATOM     18  H11 UNL     1       6.430  31.886 -11.229  1.00  0.00     0.274 HD
ENDBRANCH  14  15
ENDBRANCH  13  14
ENDBRANCH  12  13
ENDBRANCH  11  12
ENDBRANCH   1  11
BRANCH   5  19
HETATM   19  C7  UNL     1      11.270  31.100  -7.605  1.00  0.00     0.044 C 
BRANCH  19  20
HETATM   20  C8  UNL     1      12.016  30.320  -6.569  1.00  0.00     0.022 C 
BRANCH  20  21
HETATM   21  C9  UNL     1      13.139  31.050  -5.927  1.00  0.00     0.122 C 
BRANCH  21  22
HETATM   22  N3  UNL     1      12.871  32.467  -6.015  1.00  0.00    -0.367 N 
HETATM   23  C10 UNL     1      13.119  33.243  -5.024  1.00  0.00     0.196 C 
HETATM   24  N4  UNL     1      12.876  34.640  -5.054  1.00  0.00    -0.067 NA
HETATM   25  N5  UNL     1      13.666  32.658  -3.841  1.00  0.00    -0.067 NA
ATOM     26  H3  UNL     1      12.481  32.855  -6.874  1.00  0.00     0.161 HD
ENDBRANCH  21  22
ENDBRANCH  20  21
ENDBRANCH  19  20
ENDBRANCH   5  19
BRANCH   9  27
HETATM   27  C13 UNL     1       9.087  35.219  -5.069  1.00  0.00     0.332 C 
BRANCH  27  28
HETATM   28  N7  UNL     1      10.158  35.825  -4.256  1.00  0.00    -0.071 N 
ATOM     29  H73 UNL     1      10.018  36.828  -4.133  1.00  0.00     0.274 HD
ATOM     30  H72 UNL     1      10.098  35.542  -3.278  1.00  0.00     0.274 HD
ATOM     31  H71 UNL     1      11.073  35.617  -4.655  1.00  0.00     0.274 HD
ENDBRANCH  27  28
ENDBRANCH   9  27
TORSDOF 11
ENDMDL
MODEL 5
REMARK VINA RESULT: -6.155630509      2.184      6.938
REMARK  11 active torsions:
REMARK  status: ('A' for Active; 'I' for Inactive)
REMARK    1  A    between atoms: N1_1  and  C1_5 
REMARK    2  A    between atoms: C1_5  and  C2_6 
REMARK    3  A    between atoms: C2_6  and  C3_7 
REMARK    4  A    between atoms: C3_7  and  C4_8 
REMARK    5  A    between atoms: C4_8  and  C5_9 
REMARK    6  A    between atoms: C6_13  and  C7_14 
REMARK    7  A    between atoms: C7_14  and  C8_15 
REMARK    8  A    between atoms: C8_15  and  C9_16 
REMARK    9  A    between atoms: C9_16  and  N3_17 
REMARK       I    between atoms: N6_24  and  C12_25 
REMARK   10  A    between atoms: C12_25  and  C13_27 
REMARK   11  A    between atoms: C13_27  and  N7_28 
ROOT
HETATM    1  C5  UNL     1       8.963  33.454  -7.076  1.00  0.00     0.296 C 
HETATM    2  N2  UNL     1       9.836  34.486  -7.570  1.00  0.00    -0.041 N 
ATOM      3  H21 UNL     1       9.363  35.203  -8.120  1.00  0.00     0.280 HD
ATOM      4  H22 UNL     1      10.470  34.177  -8.307  1.00  0.00     0.280 HD
HETATM    5  C6  UNL     1      10.517  35.002  -6.372  1.00  0.00     0.280 C 
HETATM    6  C11 UNL     1      10.707  33.763  -5.581  1.00  0.00     0.259 C 
HETATM    7  O1  UNL     1      11.659  33.478  -4.788  1.00  0.00    -0.271 OA
HETATM    8  N6  UNL     1       9.565  32.919  -5.900  1.00  0.00    -0.255 N 
HETATM    9  C12 UNL     1       9.250  31.801  -5.074  1.00  0.00     0.253 C 
HETATM   10  O2  UNL     1       9.952  31.562  -4.048  1.00  0.00    -0.271 OA
ENDROOT
BRANCH   1  11
HETATM   11  C4  UNL     1       8.517  32.510  -8.126  1.00  0.00     0.055 C 
BRANCH  11  12
HETATM   12  C3  UNL     1       7.087  32.601  -8.539  1.00  0.00     0.005 C 
BRANCH  12  13
HETATM   13  C2  UNL     1       6.917  33.909  -9.307  1.00  0.00     0.027 C 
BRANCH  13  14
HETATM   14  C1  UNL     1       6.312  33.670 -10.668  1.00  0.00     0.229 C 
BRANCH  14  15
HETATM   15  N1  UNL     1       7.150  32.703 -11.348  1.00  0.00    -0.079 N 
ATOM     16  H13 UNL     1       7.009  32.694 -12.359  1.00  0.00     0.274 HD
ATOM     17  H12 UNL     1       8.136  32.964 -11.355  1.00  0.00     0.274 HD
ATOM     18  H11 UNL     1       6.981  31.796 -10.914  1.00  0.00     0.274 HD
ENDBRANCH  14  15
ENDBRANCH  13  14
ENDBRANCH  12  13
ENDBRANCH  11  12
ENDBRANCH   1  11
BRANCH   5  19
HETATM   19  C7  UNL     1       9.626  35.991  -5.714  1.00  0.00     0.044 C 
BRANCH  19  20
HETATM   20  C8  UNL     1       9.563  35.879  -4.223  1.00  0.00     0.022 C 
BRANCH  20  21
HETATM   21  C9  UNL     1       8.977  37.057  -3.533  1.00  0.00     0.122 C 
BRANCH  21  22
HETATM   22  N3  UNL     1      10.057  37.878  -3.035  1.00  0.00    -0.367 N 
HETATM   23  C10 UNL     1      10.059  39.146  -3.228  1.00  0.00     0.196 C 
HETATM   24  N4  UNL     1      11.091  39.999  -2.762  1.00  0.00    -0.067 NA
HETATM   25  N5  UNL     1       8.961  39.711  -3.948  1.00  0.00    -0.067 NA
ATOM     26  H3  UNL     1      10.826  37.444  -2.524  1.00  0.00     0.161 HD
ENDBRANCH  21  22
ENDBRANCH  20  21
ENDBRANCH  19  20
ENDBRANCH   5  19
BRANCH   9  27
HETATM   27  C13 UNL     1       8.131  30.911  -5.373  1.00  0.00     0.332 C 
BRANCH  27  28
HETATM   28  N7  UNL     1       6.878  31.444  -4.806  1.00  0.00    -0.071 N 
ATOM     29  H73 UNL     1       6.912  31.489  -3.788  1.00  0.00     0.274 HD
ATOM     30  H72 UNL     1       6.768  32.439  -4.999  1.00  0.00     0.274 HD
ATOM     31  H71 UNL     1       6.078  30.903  -5.134  1.00  0.00     0.274 HD
ENDBRANCH  27  28
ENDBRANCH   9  27
TORSDOF 11
ENDMDL
