MODEL 1
REMARK VINA RESULT: -5.575532070      0.000      0.000
REMARK  2 active torsions:
REMARK  status: ('A' for Active; 'I' for Inactive)
REMARK       I    between atoms: C1_2  and  N2_4 
REMARK    1  A    between atoms: N2_4  and  N3_6 
REMARK    2  A    between atoms: C2_8  and  C3_9 
ROOT
HETATM    1  N3  UNL     1       1.991  59.818  44.752  1.00  0.00    -0.306 N 
ATOM      2  H3  UNL     1       2.142  60.738  45.166  1.00  0.00     0.186 HD
HETATM    3  C2  UNL     1       2.745  59.393  43.765  1.00  0.00     0.136 C 
ENDROOT
BRANCH   1   4
HETATM    4  N2  UNL     1       0.970  58.975  45.224  1.00  0.00    -0.254 N 
HETATM    5  C1  UNL     1      -0.304  59.562  45.463  1.00  0.00     0.347 C 
HETATM    6  N1  UNL     1      -1.352  58.732  45.940  1.00  0.00    -0.038 NA
HETATM    7  O1  UNL     1      -0.540  60.777  45.269  1.00  0.00    -0.249 OA
ATOM      8  H2  UNL     1       1.136  57.982  45.389  1.00  0.00     0.191 HD
ENDBRANCH   1   4
BRANCH   3   9
HETATM    9  C3  UNL     1       3.812  60.231  43.244  1.00  0.00     0.049 A 
HETATM   10  C4  UNL     1       4.025  61.540  43.606  1.00  0.00     0.032 A 
HETATM   11  C5  UNL     1       5.133  62.025  42.909  1.00  0.00     0.019 A 
HETATM   12  C6  UNL     1       5.566  60.955  42.122  1.00  0.00     0.088 A 
HETATM   13  N4  UNL     1       4.757  59.900  42.346  1.00  0.00    -0.365 N 
ATOM     14  H4  UNL     1       4.847  58.987  41.901  1.00  0.00     0.165 HD
ENDBRANCH   3   9
TORSDOF 2
ENDMDL
MODEL 2
REMARK VINA RESULT: -5.498494661      0.770      1.110
REMARK  2 active torsions:
REMARK  status: ('A' for Active; 'I' for Inactive)
REMARK       I    between atoms: C1_2  and  N2_4 
REMARK    1  A    between atoms: N2_4  and  N3_6 
REMARK    2  A    between atoms: C2_8  and  C3_9 
ROOT
HETATM    1  N3  UNL     1       2.010  59.837  44.733  1.00  0.00    -0.306 N 
ATOM      2  H3  UNL     1       2.142  60.755  45.157  1.00  0.00     0.186 HD
HETATM    3  C2  UNL     1       2.785  59.431  43.754  1.00  0.00     0.136 C 
ENDROOT
BRANCH   1   4
HETATM    4  N2  UNL     1       0.994  58.976  45.182  1.00  0.00    -0.254 N 
HETATM    5  C1  UNL     1      -0.282  59.551  45.444  1.00  0.00     0.347 C 
HETATM    6  N1  UNL     1      -1.325  58.703  45.899  1.00  0.00    -0.038 NA
HETATM    7  O1  UNL     1      -0.522  60.770  45.289  1.00  0.00    -0.249 OA
ATOM      8  H2  UNL     1       1.164  57.979  45.315  1.00  0.00     0.191 HD
ENDBRANCH   1   4
BRANCH   3   9
HETATM    9  C3  UNL     1       3.848  60.287  43.257  1.00  0.00     0.049 A 
HETATM   10  C4  UNL     1       4.763  59.920  42.297  1.00  0.00     0.032 A 
HETATM   11  C5  UNL     1       5.630  60.989  42.069  1.00  0.00     0.019 A 
HETATM   12  C6  UNL     1       5.196  62.001  42.930  1.00  0.00     0.088 A 
HETATM   13  N4  UNL     1       4.131  61.549  43.623  1.00  0.00    -0.365 N 
ATOM     14  H4  UNL     1       3.617  62.085  44.322  1.00  0.00     0.165 HD
ENDBRANCH   3   9
TORSDOF 2
ENDMDL
MODEL 3
REMARK VINA RESULT: -5.492773661      4.912      7.839
REMARK  2 active torsions:
REMARK  status: ('A' for Active; 'I' for Inactive)
REMARK       I    between atoms: C1_2  and  N2_4 
REMARK    1  A    between atoms: N2_4  and  N3_6 
REMARK    2  A    between atoms: C2_8  and  C3_9 
ROOT
HETATM    1  N3  UNL     1      -3.367  58.223  44.696  1.00  0.00    -0.306 N 
ATOM      2  H3  UNL     1      -4.206  58.669  45.070  1.00  0.00     0.186 HD
HETATM    3  C2  UNL     1      -3.371  57.681  43.501  1.00  0.00     0.136 C 
ENDROOT
BRANCH   1   4
HETATM    4  N2  UNL     1      -2.181  58.176  45.449  1.00  0.00    -0.254 N 
HETATM    5  C1  UNL     1      -1.407  59.368  45.524  1.00  0.00     0.347 C 
HETATM    6  N1  UNL     1      -0.205  59.347  46.278  1.00  0.00    -0.038 NA
HETATM    7  O1  UNL     1      -1.742  60.433  44.955  1.00  0.00    -0.249 OA
ATOM      8  H2  UNL     1      -1.888  57.322  45.923  1.00  0.00     0.191 HD
ENDBRANCH   1   4
BRANCH   3   9
HETATM    9  C3  UNL     1      -4.573  57.705  42.687  1.00  0.00     0.049 A 
HETATM   10  C4  UNL     1      -5.855  57.638  43.183  1.00  0.00     0.032 A 
HETATM   11  C5  UNL     1      -6.753  57.689  42.117  1.00  0.00     0.019 A 
HETATM   12  C6  UNL     1      -5.957  57.787  40.972  1.00  0.00     0.088 A 
HETATM   13  N4  UNL     1      -4.662  57.794  41.349  1.00  0.00    -0.365 N 
ATOM     14  H4  UNL     1      -3.868  57.858  40.712  1.00  0.00     0.165 HD
ENDBRANCH   3   9
TORSDOF 2
ENDMDL
MODEL 4
REMARK VINA RESULT: -5.463769403      4.981      7.969
REMARK  2 active torsions:
REMARK  status: ('A' for Active; 'I' for Inactive)
REMARK       I    between atoms: C1_2  and  N2_4 
REMARK    1  A    between atoms: N2_4  and  N3_6 
REMARK    2  A    between atoms: C2_8  and  C3_9 
ROOT
HETATM    1  N3  UNL     1      -3.541  58.260  44.846  1.00  0.00    -0.306 N 
ATOM      2  H3  UNL     1      -4.396  58.653  45.239  1.00  0.00     0.186 HD
HETATM    3  C2  UNL     1      -3.524  57.770  43.628  1.00  0.00     0.136 C 
ENDROOT
BRANCH   1   4
HETATM    4  N2  UNL     1      -2.351  58.232  45.594  1.00  0.00    -0.254 N 
HETATM    5  C1  UNL     1      -1.506  59.375  45.522  1.00  0.00     0.347 C 
HETATM    6  N1  UNL     1      -0.299  59.371  46.268  1.00  0.00    -0.038 NA
HETATM    7  O1  UNL     1      -1.782  60.382  44.829  1.00  0.00    -0.249 OA
ATOM      8  H2  UNL     1      -2.104  57.425  46.166  1.00  0.00     0.191 HD
ENDBRANCH   1   4
BRANCH   3   9
HETATM    9  C3  UNL     1      -4.730  57.778  42.817  1.00  0.00     0.049 A 
HETATM   10  C4  UNL     1      -4.747  57.834  41.443  1.00  0.00     0.032 A 
HETATM   11  C5  UNL     1      -6.072  57.824  41.008  1.00  0.00     0.019 A 
HETATM   12  C6  UNL     1      -6.839  57.760  42.176  1.00  0.00     0.088 A 
HETATM   13  N4  UNL     1      -6.006  57.734  43.236  1.00  0.00    -0.365 N 
ATOM     14  H4  UNL     1      -6.302  57.688  44.211  1.00  0.00     0.165 HD
ENDBRANCH   3   9
TORSDOF 2
ENDMDL
MODEL 5
REMARK VINA RESULT: -5.438220776      1.156      1.156
REMARK  2 active torsions:
REMARK  status: ('A' for Active; 'I' for Inactive)
REMARK       I    between atoms: C1_2  and  N2_4 
REMARK    1  A    between atoms: N2_4  and  N3_6 
REMARK    2  A    between atoms: C2_8  and  C3_9 
ROOT
HETATM    1  N3  UNL     1       1.217  59.266  44.041  1.00  0.00    -0.306 N 
ATOM      2  H3  UNL     1       1.904  58.539  44.238  1.00  0.00     0.186 HD
HETATM    3  C2  UNL     1       1.591  60.441  43.590  1.00  0.00     0.136 C 
ENDROOT
BRANCH   1   4
HETATM    4  N2  UNL     1      -0.155  59.035  44.246  1.00  0.00    -0.254 N 
HETATM    5  C1  UNL     1      -0.627  59.054  45.589  1.00  0.00     0.347 C 
HETATM    6  N1  UNL     1      -2.007  58.823  45.824  1.00  0.00    -0.038 NA
HETATM    7  O1  UNL     1       0.123  59.267  46.570  1.00  0.00    -0.249 OA
ATOM      8  H2  UNL     1      -0.786  58.860  43.465  1.00  0.00     0.191 HD
ENDBRANCH   1   4
BRANCH   3   9
HETATM    9  C3  UNL     1       2.997  60.726  43.363  1.00  0.00     0.049 A 
HETATM   10  C4  UNL     1       3.588  61.952  43.559  1.00  0.00     0.032 A 
HETATM   11  C5  UNL     1       4.943  61.855  43.243  1.00  0.00     0.019 A 
HETATM   12  C6  UNL     1       5.133  60.527  42.850  1.00  0.00     0.088 A 
HETATM   13  N4  UNL     1       3.952  59.882  42.934  1.00  0.00    -0.365 N 
ATOM     14  H4  UNL     1       3.805  58.898  42.706  1.00  0.00     0.165 HD
ENDBRANCH   3   9
TORSDOF 2
ENDMDL
