MODEL 1
REMARK VINA RESULT: -5.847180277      0.000      0.000
REMARK  4 active torsions:
REMARK  status: ('A' for Active; 'I' for Inactive)
REMARK    1  A    between atoms: C1_2  and  C2_4 
REMARK    2  A    between atoms: C5_7  and  N2_8 
REMARK    3  A    between atoms: N2_8  and  N3_10 
REMARK    4  A    between atoms: N3_10  and  C6_12 
ROOT
HETATM    1  C2  UNL     1      -5.583  57.943  42.252  1.00  0.00     0.029 A 
HETATM    2  C3  UNL     1      -5.955  57.653  43.561  1.00  0.00     0.019 A 
HETATM    3  C4  UNL     1      -5.066  57.781  44.605  1.00  0.00     0.032 A 
HETATM    4  C5  UNL     1      -3.767  58.209  44.370  1.00  0.00     0.048 A 
HETATM    5  C7  UNL     1      -3.434  58.487  43.064  1.00  0.00     0.032 A 
HETATM    6  C8  UNL     1      -4.294  58.370  41.995  1.00  0.00     0.019 A 
ENDROOT
BRANCH   4   7
HETATM    7  N2  UNL     1      -2.830  58.351  45.426  1.00  0.00    -0.299 N 
ATOM      8  H2  UNL     1      -3.165  58.577  46.362  1.00  0.00     0.187 HD
BRANCH   7   9
HETATM    9  N3  UNL     1      -1.467  58.190  45.210  1.00  0.00    -0.277 N 
ATOM     10  H3  UNL     1      -1.104  57.316  44.827  1.00  0.00     0.189 HD
BRANCH   9  11
HETATM   11  C6  UNL     1      -0.594  59.245  45.525  1.00  0.00     0.368 C 
HETATM   12  O2  UNL     1       0.038  59.269  46.602  1.00  0.00    -0.282 OA
ENDBRANCH   9  11
ENDBRANCH   7   9
ENDBRANCH   4   7
BRANCH   1  13
HETATM   13  C1  UNL     1      -6.549  57.793  41.191  1.00  0.00     0.264 C 
HETATM   14  N1  UNL     1      -6.147  57.802  39.846  1.00  0.00    -0.057 NA
HETATM   15  O1  UNL     1      -7.753  57.652  41.464  1.00  0.00    -0.271 OA
ENDBRANCH   1  13
TORSDOF 4
ENDMDL
MODEL 2
REMARK VINA RESULT: -5.845482953      0.882      1.584
REMARK  4 active torsions:
REMARK  status: ('A' for Active; 'I' for Inactive)
REMARK    1  A    between atoms: C1_2  and  C2_4 
REMARK    2  A    between atoms: C5_7  and  N2_8 
REMARK    3  A    between atoms: N2_8  and  N3_10 
REMARK    4  A    between atoms: N3_10  and  C6_12 
ROOT
HETATM    1  C2  UNL     1      -5.545  57.851  42.204  1.00  0.00     0.029 A 
HETATM    2  C3  UNL     1      -4.250  58.306  41.977  1.00  0.00     0.019 A 
HETATM    3  C4  UNL     1      -3.361  58.487  43.013  1.00  0.00     0.032 A 
HETATM    4  C5  UNL     1      -3.743  58.216  44.319  1.00  0.00     0.048 A 
HETATM    5  C7  UNL     1      -5.031  57.767  44.507  1.00  0.00     0.032 A 
HETATM    6  C8  UNL     1      -5.947  57.575  43.497  1.00  0.00     0.019 A 
ENDROOT
BRANCH   4   7
HETATM    7  N2  UNL     1      -2.849  58.392  45.406  1.00  0.00    -0.299 N 
ATOM      8  H2  UNL     1      -3.215  58.680  46.312  1.00  0.00     0.187 HD
BRANCH   7   9
HETATM    9  N3  UNL     1      -1.483  58.179  45.260  1.00  0.00    -0.277 N 
ATOM     10  H3  UNL     1      -1.131  57.270  44.961  1.00  0.00     0.189 HD
BRANCH   9  11
HETATM   11  C6  UNL     1      -0.593  59.233  45.529  1.00  0.00     0.368 C 
HETATM   12  O2  UNL     1       0.039  59.293  46.604  1.00  0.00    -0.282 OA
ENDBRANCH   9  11
ENDBRANCH   7   9
ENDBRANCH   4   7
BRANCH   1  13
HETATM   13  C1  UNL     1      -6.441  57.677  41.086  1.00  0.00     0.264 C 
HETATM   14  N1  UNL     1      -7.810  57.960  41.212  1.00  0.00    -0.057 NA
HETATM   15  O1  UNL     1      -6.002  57.274  39.997  1.00  0.00    -0.271 OA
ENDBRANCH   1  13
TORSDOF 4
ENDMDL
MODEL 3
REMARK VINA RESULT: -5.507186265      3.707      4.730
REMARK  4 active torsions:
REMARK  status: ('A' for Active; 'I' for Inactive)
REMARK    1  A    between atoms: C1_2  and  C2_4 
REMARK    2  A    between atoms: C5_7  and  N2_8 
REMARK    3  A    between atoms: N2_8  and  N3_10 
REMARK    4  A    between atoms: N3_10  and  C6_12 
ROOT
HETATM    1  C2  UNL     1      -1.920  60.028  43.803  1.00  0.00     0.029 A 
HETATM    2  C3  UNL     1      -0.826  60.042  42.944  1.00  0.00     0.019 A 
HETATM    3  C4  UNL     1       0.439  59.730  43.388  1.00  0.00     0.032 A 
HETATM    4  C5  UNL     1       0.651  59.391  44.718  1.00  0.00     0.048 A 
HETATM    5  C7  UNL     1      -0.454  59.387  45.539  1.00  0.00     0.032 A 
HETATM    6  C8  UNL     1      -1.733  59.694  45.131  1.00  0.00     0.019 A 
ENDROOT
BRANCH   4   7
HETATM    7  N2  UNL     1       1.943  59.063  45.203  1.00  0.00    -0.299 N 
ATOM      8  H2  UNL     1       2.764  59.402  44.704  1.00  0.00     0.187 HD
BRANCH   7   9
HETATM    9  N3  UNL     1       2.111  58.290  46.346  1.00  0.00    -0.277 N 
ATOM     10  H3  UNL     1       1.591  58.506  47.197  1.00  0.00     0.189 HD
BRANCH   9  11
HETATM   11  C6  UNL     1       3.006  57.207  46.314  1.00  0.00     0.368 C 
HETATM   12  O2  UNL     1       3.789  56.981  47.261  1.00  0.00    -0.282 OA
ENDBRANCH   9  11
ENDBRANCH   7   9
ENDBRANCH   4   7
BRANCH   1  13
HETATM   13  C1  UNL     1      -3.227  60.363  43.291  1.00  0.00     0.264 C 
HETATM   14  N1  UNL     1      -3.522  61.670  42.870  1.00  0.00    -0.057 NA
HETATM   15  O1  UNL     1      -4.107  59.489  43.219  1.00  0.00    -0.271 OA
ENDBRANCH   1  13
TORSDOF 4
ENDMDL
MODEL 4
REMARK VINA RESULT: -5.437200008      2.439      6.683
REMARK  4 active torsions:
REMARK  status: ('A' for Active; 'I' for Inactive)
REMARK    1  A    between atoms: C1_2  and  C2_4 
REMARK    2  A    between atoms: C5_7  and  N2_8 
REMARK    3  A    between atoms: N2_8  and  N3_10 
REMARK    4  A    between atoms: N3_10  and  C6_12 
ROOT
HETATM    1  C2  UNL     1      -4.964  57.893  42.569  1.00  0.00     0.029 A 
HETATM    2  C3  UNL     1      -4.594  57.714  41.239  1.00  0.00     0.019 A 
HETATM    3  C4  UNL     1      -5.537  57.567  40.246  1.00  0.00     0.032 A 
HETATM    4  C5  UNL     1      -6.889  57.595  40.555  1.00  0.00     0.048 A 
HETATM    5  C7  UNL     1      -7.219  57.774  41.879  1.00  0.00     0.032 A 
HETATM    6  C8  UNL     1      -6.306  57.923  42.899  1.00  0.00     0.019 A 
ENDROOT
BRANCH   4   7
HETATM    7  N2  UNL     1      -7.882  57.448  39.552  1.00  0.00    -0.299 N 
ATOM      8  H2  UNL     1      -8.117  58.245  38.961  1.00  0.00     0.187 HD
BRANCH   7   9
HETATM    9  N3  UNL     1      -8.541  56.240  39.359  1.00  0.00    -0.277 N 
ATOM     10  H3  UNL     1      -8.025  55.412  39.060  1.00  0.00     0.189 HD
BRANCH   9  11
HETATM   11  C6  UNL     1      -9.927  56.172  39.580  1.00  0.00     0.368 C 
HETATM   12  O2  UNL     1     -10.439  55.233  40.225  1.00  0.00    -0.282 OA
ENDBRANCH   9  11
ENDBRANCH   7   9
ENDBRANCH   4   7
BRANCH   1  13
HETATM   13  C1  UNL     1      -3.940  58.042  43.575  1.00  0.00     0.264 C 
HETATM   14  N1  UNL     1      -2.584  58.104  43.219  1.00  0.00    -0.057 NA
HETATM   15  O1  UNL     1      -4.257  58.117  44.774  1.00  0.00    -0.271 OA
ENDBRANCH   1  13
TORSDOF 4
ENDMDL
MODEL 5
REMARK VINA RESULT: -5.406036484      2.339      6.594
REMARK  4 active torsions:
REMARK  status: ('A' for Active; 'I' for Inactive)
REMARK    1  A    between atoms: C1_2  and  C2_4 
REMARK    2  A    between atoms: C5_7  and  N2_8 
REMARK    3  A    between atoms: N2_8  and  N3_10 
REMARK    4  A    between atoms: N3_10  and  C6_12 
ROOT
HETATM    1  C2  UNL     1      -4.763  57.804  42.543  1.00  0.00     0.029 A 
HETATM    2  C3  UNL     1      -6.093  57.783  42.952  1.00  0.00     0.019 A 
HETATM    3  C4  UNL     1      -7.122  57.692  42.042  1.00  0.00     0.032 A 
HETATM    4  C5  UNL     1      -6.851  57.619  40.683  1.00  0.00     0.048 A 
HETATM    5  C7  UNL     1      -5.525  57.642  40.314  1.00  0.00     0.032 A 
HETATM    6  C8  UNL     1      -4.470  57.732  41.194  1.00  0.00     0.019 A 
ENDROOT
BRANCH   4   7
HETATM    7  N2  UNL     1      -7.891  57.523  39.723  1.00  0.00    -0.299 N 
ATOM      8  H2  UNL     1      -8.193  58.363  39.229  1.00  0.00     0.187 HD
BRANCH   7   9
HETATM    9  N3  UNL     1      -8.506  56.309  39.442  1.00  0.00    -0.277 N 
ATOM     10  H3  UNL     1      -7.953  55.507  39.140  1.00  0.00     0.189 HD
BRANCH   9  11
HETATM   11  C6  UNL     1      -9.901  56.201  39.578  1.00  0.00     0.368 C 
HETATM   12  O2  UNL     1     -10.423  55.250  40.197  1.00  0.00    -0.282 OA
ENDBRANCH   9  11
ENDBRANCH   7   9
ENDBRANCH   4   7
BRANCH   1  13
HETATM   13  C1  UNL     1      -3.718  57.901  43.533  1.00  0.00     0.264 C 
HETATM   14  N1  UNL     1      -3.952  58.529  44.766  1.00  0.00    -0.057 NA
HETATM   15  O1  UNL     1      -2.595  57.424  43.297  1.00  0.00    -0.271 OA
ENDBRANCH   1  13
TORSDOF 4
ENDMDL
