MODEL 1
REMARK VINA RESULT: -5.463790633      0.000      0.000
REMARK  2 active torsions:
REMARK  status: ('A' for Active; 'I' for Inactive)
REMARK       I    between atoms: C1_4  and  N2_5 
REMARK       I    between atoms: C1_4  and  N3_11 
REMARK    1  A    between atoms: N2_5  and  C2_7 
REMARK    2  A    between atoms: N3_11  and  N4_13 
ROOT
HETATM    1  N1  UNL     1       0.982  58.840  43.887  1.00  0.00    -0.233 N 
ATOM      2  H11 UNL     1       0.511  57.935  43.874  1.00  0.00     0.174 HD
ATOM      3  H12 UNL     1       0.501  59.633  43.463  1.00  0.00     0.174 HD
HETATM    4  C1  UNL     1       2.145  59.003  44.415  1.00  0.00     0.691 C 
HETATM    5  N2  UNL     1       2.801  60.263  44.434  1.00  0.00    -0.221 N 
ATOM      6  H2  UNL     1       2.714  60.846  45.266  1.00  0.00     0.178 HD
HETATM    7  N3  UNL     1       2.816  57.897  45.007  1.00  0.00    -0.072 N 
ATOM      8  H3  UNL     1       3.286  57.194  44.437  1.00  0.00     0.212 HD
ENDROOT
BRANCH   5   9
HETATM    9  C2  UNL     1       3.586  60.757  43.325  1.00  0.00     0.099 C 
HETATM   10  C3  UNL     1       2.813  61.693  42.442  1.00  0.00     0.026 C 
HETATM   11  C4  UNL     1       3.548  62.874  43.064  1.00  0.00     0.004 C 
HETATM   12  C5  UNL     1       4.514  61.913  43.673  1.00  0.00     0.026 C 
ENDBRANCH   5   9
BRANCH   7  13
HETATM   13  N4  UNL     1       2.802  57.814  46.395  1.00  0.00    -0.024 N 
HETATM   14  O1  UNL     1       1.972  58.484  47.020  1.00  0.00    -0.516 OA
HETATM   15  O2  UNL     1       3.702  56.998  47.018  1.00  0.00    -0.516 OA
ENDBRANCH   7  13
TORSDOF 2
ENDMDL
MODEL 2
REMARK VINA RESULT: -5.439383123      1.171      1.661
REMARK  2 active torsions:
REMARK  status: ('A' for Active; 'I' for Inactive)
REMARK       I    between atoms: C1_4  and  N2_5 
REMARK       I    between atoms: C1_4  and  N3_11 
REMARK    1  A    between atoms: N2_5  and  C2_7 
REMARK    2  A    between atoms: N3_11  and  N4_13 
ROOT
HETATM    1  N1  UNL     1       0.917  58.864  43.206  1.00  0.00    -0.233 N 
ATOM      2  H11 UNL     1       0.591  57.897  43.236  1.00  0.00     0.174 HD
ATOM      3  H12 UNL     1       0.681  59.419  42.384  1.00  0.00     0.174 HD
HETATM    4  C1  UNL     1       1.602  59.389  44.161  1.00  0.00     0.691 C 
HETATM    5  N2  UNL     1       2.055  60.736  44.119  1.00  0.00    -0.221 N 
ATOM      6  H2  UNL     1       1.495  61.453  44.580  1.00  0.00     0.178 HD
HETATM    7  N3  UNL     1       1.930  58.614  45.307  1.00  0.00    -0.072 N 
ATOM      8  H3  UNL     1       2.681  57.925  45.286  1.00  0.00     0.212 HD
ENDROOT
BRANCH   5   9
HETATM    9  C2  UNL     1       3.273  61.135  43.451  1.00  0.00     0.099 C 
HETATM   10  C3  UNL     1       3.063  61.430  41.994  1.00  0.00     0.026 C 
HETATM   11  C4  UNL     1       3.125  62.922  42.296  1.00  0.00     0.004 C 
HETATM   12  C5  UNL     1       3.655  62.595  43.653  1.00  0.00     0.026 C 
ENDBRANCH   5   9
BRANCH   7  13
HETATM   13  N4  UNL     1       1.183  58.836  46.459  1.00  0.00    -0.024 N 
HETATM   14  O1  UNL     1       1.607  58.398  47.534  1.00  0.00    -0.516 OA
HETATM   15  O2  UNL     1       0.010  59.528  46.362  1.00  0.00    -0.516 OA
ENDBRANCH   7  13
TORSDOF 2
ENDMDL
MODEL 3
REMARK VINA RESULT: -5.424710593      1.470      1.883
REMARK  2 active torsions:
REMARK  status: ('A' for Active; 'I' for Inactive)
REMARK       I    between atoms: C1_4  and  N2_5 
REMARK       I    between atoms: C1_4  and  N3_11 
REMARK    1  A    between atoms: N2_5  and  C2_7 
REMARK    2  A    between atoms: N3_11  and  N4_13 
ROOT
HETATM    1  N1  UNL     1      -0.205  59.020  43.382  1.00  0.00    -0.233 N 
ATOM      2  H11 UNL     1      -0.444  58.032  43.458  1.00  0.00     0.174 HD
ATOM      3  H12 UNL     1      -0.714  59.582  42.699  1.00  0.00     0.174 HD
HETATM    4  C1  UNL     1       0.704  59.567  44.112  1.00  0.00     0.691 C 
HETATM    5  N2  UNL     1       1.036  60.945  44.007  1.00  0.00    -0.221 N 
ATOM      6  H2  UNL     1       0.599  61.603  44.652  1.00  0.00     0.178 HD
HETATM    7  N3  UNL     1       1.413  58.785  45.065  1.00  0.00    -0.072 N 
ATOM      8  H3  UNL     1       2.164  58.156  44.782  1.00  0.00     0.212 HD
ENDROOT
BRANCH   5   9
HETATM    9  C2  UNL     1       1.965  61.456  43.025  1.00  0.00     0.099 C 
HETATM   10  C3  UNL     1       2.997  62.367  43.625  1.00  0.00     0.026 C 
HETATM   11  C4  UNL     1       4.025  61.247  43.538  1.00  0.00     0.004 C 
HETATM   12  C5  UNL     1       3.086  60.494  42.655  1.00  0.00     0.026 C 
ENDBRANCH   5   9
BRANCH   7  13
HETATM   13  N4  UNL     1       1.038  58.913  46.398  1.00  0.00    -0.024 N 
HETATM   14  O1  UNL     1      -0.057  59.426  46.658  1.00  0.00    -0.516 OA
HETATM   15  O2  UNL     1       1.890  58.472  47.369  1.00  0.00    -0.516 OA
ENDBRANCH   7  13
TORSDOF 2
ENDMDL
MODEL 4
REMARK VINA RESULT: -5.405812420      5.201      6.397
REMARK  2 active torsions:
REMARK  status: ('A' for Active; 'I' for Inactive)
REMARK       I    between atoms: C1_4  and  N2_5 
REMARK       I    between atoms: C1_4  and  N3_11 
REMARK    1  A    between atoms: N2_5  and  C2_7 
REMARK    2  A    between atoms: N3_11  and  N4_13 
ROOT
HETATM    1  N1  UNL     1      -3.474  58.184  45.449  1.00  0.00    -0.233 N 
ATOM      2  H11 UNL     1      -3.202  57.506  46.161  1.00  0.00     0.174 HD
ATOM      3  H12 UNL     1      -4.470  58.355  45.311  1.00  0.00     0.174 HD
HETATM    4  C1  UNL     1      -2.609  58.818  44.735  1.00  0.00     0.691 C 
HETATM    5  N2  UNL     1      -2.988  59.762  43.744  1.00  0.00    -0.221 N 
ATOM      6  H2  UNL     1      -3.005  60.751  43.994  1.00  0.00     0.178 HD
HETATM    7  N3  UNL     1      -1.221  58.579  44.929  1.00  0.00    -0.072 N 
ATOM      8  H3  UNL     1      -0.767  57.746  44.554  1.00  0.00     0.212 HD
ENDROOT
BRANCH   5   9
HETATM    9  C2  UNL     1      -3.352  59.385  42.397  1.00  0.00     0.099 C 
HETATM   10  C3  UNL     1      -3.937  58.004  42.322  1.00  0.00     0.026 C 
HETATM   11  C4  UNL     1      -5.328  58.610  42.179  1.00  0.00     0.004 C 
HETATM   12  C5  UNL     1      -4.691  59.936  41.926  1.00  0.00     0.026 C 
ENDBRANCH   5   9
BRANCH   7  13
HETATM   13  N4  UNL     1      -0.508  59.530  45.651  1.00  0.00    -0.024 N 
HETATM   14  O1  UNL     1       0.109  59.168  46.660  1.00  0.00    -0.516 OA
HETATM   15  O2  UNL     1      -0.513  60.826  45.222  1.00  0.00    -0.516 OA
ENDBRANCH   7  13
TORSDOF 2
ENDMDL
MODEL 5
REMARK VINA RESULT: -5.295284126      1.513      2.142
REMARK  2 active torsions:
REMARK  status: ('A' for Active; 'I' for Inactive)
REMARK       I    between atoms: C1_4  and  N2_5 
REMARK       I    between atoms: C1_4  and  N3_11 
REMARK    1  A    between atoms: N2_5  and  C2_7 
REMARK    2  A    between atoms: N3_11  and  N4_13 
ROOT
HETATM    1  N1  UNL     1       0.684  58.943  43.248  1.00  0.00    -0.233 N 
ATOM      2  H11 UNL     1       0.648  57.924  43.231  1.00  0.00     0.174 HD
ATOM      3  H12 UNL     1       0.259  59.447  42.469  1.00  0.00     0.174 HD
HETATM    4  C1  UNL     1       1.237  59.597  44.210  1.00  0.00     0.691 C 
HETATM    5  N2  UNL     1       1.285  61.017  44.233  1.00  0.00    -0.221 N 
ATOM      6  H2  UNL     1       0.568  61.520  44.755  1.00  0.00     0.178 HD
HETATM    7  N3  UNL     1       1.829  58.894  45.296  1.00  0.00    -0.072 N 
ATOM      8  H3  UNL     1       2.743  58.452  45.208  1.00  0.00     0.212 HD
ENDROOT
BRANCH   5   9
HETATM    9  C2  UNL     1       2.305  61.781  43.550  1.00  0.00     0.099 C 
HETATM   10  C3  UNL     1       3.097  60.950  42.582  1.00  0.00     0.026 C 
HETATM   11  C4  UNL     1       2.320  61.569  41.428  1.00  0.00     0.004 C 
HETATM   12  C5  UNL     1       1.797  62.600  42.371  1.00  0.00     0.026 C 
ENDBRANCH   5   9
BRANCH   7  13
HETATM   13  N4  UNL     1       1.107  58.837  46.483  1.00  0.00    -0.024 N 
HETATM   14  O1  UNL     1       1.642  58.334  47.478  1.00  0.00    -0.516 OA
HETATM   15  O2  UNL     1      -0.164  59.336  46.509  1.00  0.00    -0.516 OA
ENDBRANCH   7  13
TORSDOF 2
ENDMDL
