MODEL 1
REMARK VINA RESULT: -7.961223670      0.000      0.000
REMARK  15 active torsions:
REMARK  status: ('A' for Active; 'I' for Inactive)
REMARK    1  A    between atoms: C2_2  and  C3_3 
REMARK    2  A    between atoms: C2_2  and  C15_20 
REMARK    3  A    between atoms: C3_3  and  C4_4 
REMARK    4  A    between atoms: C4_4  and  C5_5 
REMARK    5  A    between atoms: C5_5  and  C6_6 
REMARK    6  A    between atoms: C6_6  and  C7_7 
REMARK    7  A    between atoms: C6_6  and  C8_10 
REMARK    8  A    between atoms: C7_7  and  O1_8 
REMARK    9  A    between atoms: C8_10  and  C9_11 
REMARK   10  A    between atoms: C9_11  and  C10_12 
REMARK   11  A    between atoms: C18_23  and  C19_24 
REMARK   12  A    between atoms: C19_24  and  C21_26 
REMARK   13  A    between atoms: C21_26  and  C22_27 
REMARK   14  A    between atoms: C22_27  and  C23_28 
REMARK   15  A    between atoms: C31_41  and  N4_42 
ROOT
HETATM    1  C15 UNL     1      27.709  31.271  11.373  1.00  0.00     0.014 C 
HETATM    2  C16 UNL     1      28.087  30.562  12.621  1.00  0.00     0.009 C 
HETATM    3  C17 UNL     1      29.625  30.734  12.775  1.00  0.00     0.005 C 
HETATM    4  C18 UNL     1      30.032  31.331  11.500  1.00  0.00    -0.010 C 
HETATM    5  C32 UNL     1      28.867  32.268  11.178  1.00  0.00     0.014 C 
ENDROOT
BRANCH   4   6
HETATM    6  C19 UNL     1      31.355  31.804  11.184  1.00  0.00    -0.014 C 
HETATM    7  C20 UNL     1      31.238  33.325  10.908  1.00  0.00     0.010 C 
BRANCH   6   8
HETATM    8  C21 UNL     1      32.575  31.485  11.931  1.00  0.00     0.005 C 
BRANCH   8   9
HETATM    9  C22 UNL     1      33.681  32.470  11.921  1.00  0.00     0.011 C 
BRANCH   9  10
HETATM   10  C23 UNL     1      34.095  33.043  13.222  1.00  0.00     0.033 C 
HETATM   11  C24 UNL     1      32.948  33.737  13.993  1.00  0.00     0.011 C 
HETATM   12  C25 UNL     1      33.238  35.182  14.258  1.00  0.00     0.017 C 
HETATM   13  C26 UNL     1      34.563  35.599  14.748  1.00  0.00     0.114 C 
HETATM   14  C27 UNL     1      35.258  36.633  13.878  1.00  0.00     0.225 C 
HETATM   15  C31 UNL     1      35.532  34.371  14.717  1.00  0.00     0.241 C 
HETATM   16  O3  UNL     1      34.694  37.764  13.938  1.00  0.00    -0.273 OA
HETATM   17  N2  UNL     1      36.393  36.550  13.040  1.00  0.00    -0.340 N 
HETATM   18  C28 UNL     1      36.942  35.369  12.363  1.00  0.00     0.179 C 
ATOM     19  H2  UNL     1      36.895  37.425  12.885  1.00  0.00     0.164 HD
HETATM   20  C29 UNL     1      37.492  35.616  11.023  1.00  0.00     0.055 C 
HETATM   21  N3  UNL     1      35.805  34.401  12.262  1.00  0.00    -0.373 N 
HETATM   22  C30 UNL     1      35.225  33.976  13.258  1.00  0.00     0.019 C 
ATOM     23  H3  UNL     1      35.504  34.085  11.340  1.00  0.00     0.161 HD
BRANCH  15  24
HETATM   24  N4  UNL     1      35.147  33.400  15.654  1.00  0.00    -0.069 N 
ATOM     25  H43 UNL     1      35.934  33.103  16.231  1.00  0.00     0.275 HD
ATOM     26  H42 UNL     1      34.558  33.796  16.386  1.00  0.00     0.275 HD
ATOM     27  H41 UNL     1      34.696  32.607  15.197  1.00  0.00     0.275 HD
ENDBRANCH  15  24
ENDBRANCH   9  10
ENDBRANCH   8   9
ENDBRANCH   6   8
ENDBRANCH   4   6
BRANCH   1  28
HETATM   28  C2  UNL     1      27.608  30.329  10.206  1.00  0.00    -0.085 C 
HETATM   29  C1  UNL     1      27.634  30.700   8.939  1.00  0.00     0.014 C 
BRANCH  28  30
HETATM   30  C3  UNL     1      27.473  28.879  10.523  1.00  0.00     0.034 C 
BRANCH  30  31
HETATM   31  C4  UNL     1      27.991  27.964   9.490  1.00  0.00     0.005 C 
BRANCH  31  32
HETATM   32  C5  UNL     1      29.257  27.243   9.832  1.00  0.00     0.007 C 
BRANCH  32  33
HETATM   33  C6  UNL     1      30.343  27.573   8.840  1.00  0.00     0.009 C 
BRANCH  33  34
HETATM   34  C7  UNL     1      29.804  28.086   7.540  1.00  0.00     0.168 C 
BRANCH  34  35
HETATM   35  O1  UNL     1      30.407  29.308   7.187  1.00  0.00    -0.400 OA
ATOM     36  H1  UNL     1      30.851  29.242   6.350  1.00  0.00     0.209 HD
ENDBRANCH  34  35
ENDBRANCH  33  34
BRANCH  33  37
HETATM   37  C8  UNL     1      31.321  28.544   9.441  1.00  0.00     0.009 C 
BRANCH  37  38
HETATM   38  C9  UNL     1      32.724  28.046   9.534  1.00  0.00     0.026 C 
BRANCH  38  39
HETATM   39  C10 UNL     1      33.723  29.029   8.947  1.00  0.00     0.088 C 
HETATM   40  C11 UNL     1      34.766  29.415   9.965  1.00  0.00     0.052 C 
HETATM   41  C12 UNL     1      35.639  30.469   9.433  1.00  0.00    -0.019 C 
HETATM   42  C13 UNL     1      35.242  31.323   8.523  1.00  0.00     0.070 C 
HETATM   43  C14 UNL     1      33.889  31.272   7.982  1.00  0.00     0.241 C 
HETATM   44  O2  UNL     1      33.493  32.072   7.122  1.00  0.00    -0.269 OA
HETATM   45  N1  UNL     1      33.053  30.241   8.507  1.00  0.00    -0.353 N 
ATOM     46  H1  UNL     1      32.041  30.349   8.569  1.00  0.00     0.163 HD
ENDBRANCH  38  39
ENDBRANCH  37  38
ENDBRANCH  33  37
ENDBRANCH  32  33
ENDBRANCH  31  32
ENDBRANCH  30  31
ENDBRANCH  28  30
ENDBRANCH   1  28
TORSDOF 15
ENDMDL
MODEL 2
REMARK VINA RESULT: -7.748415074      2.365      7.461
REMARK  15 active torsions:
REMARK  status: ('A' for Active; 'I' for Inactive)
REMARK    1  A    between atoms: C2_2  and  C3_3 
REMARK    2  A    between atoms: C2_2  and  C15_20 
REMARK    3  A    between atoms: C3_3  and  C4_4 
REMARK    4  A    between atoms: C4_4  and  C5_5 
REMARK    5  A    between atoms: C5_5  and  C6_6 
REMARK    6  A    between atoms: C6_6  and  C7_7 
REMARK    7  A    between atoms: C6_6  and  C8_10 
REMARK    8  A    between atoms: C7_7  and  O1_8 
REMARK    9  A    between atoms: C8_10  and  C9_11 
REMARK   10  A    between atoms: C9_11  and  C10_12 
REMARK   11  A    between atoms: C18_23  and  C19_24 
REMARK   12  A    between atoms: C19_24  and  C21_26 
REMARK   13  A    between atoms: C21_26  and  C22_27 
REMARK   14  A    between atoms: C22_27  and  C23_28 
REMARK   15  A    between atoms: C31_41  and  N4_42 
ROOT
HETATM    1  C15 UNL     1      27.322  29.649  10.670  1.00  0.00     0.014 C 
HETATM    2  C16 UNL     1      27.154  30.346   9.371  1.00  0.00     0.009 C 
HETATM    3  C17 UNL     1      28.211  29.735   8.406  1.00  0.00     0.005 C 
HETATM    4  C18 UNL     1      29.037  28.905   9.285  1.00  0.00    -0.010 C 
HETATM    5  C32 UNL     1      28.016  28.333  10.270  1.00  0.00     0.014 C 
ENDROOT
BRANCH   4   6
HETATM    6  C19 UNL     1      30.089  28.022   8.852  1.00  0.00    -0.014 C 
HETATM    7  C20 UNL     1      29.936  26.706   9.658  1.00  0.00     0.010 C 
BRANCH   6   8
HETATM    8  C21 UNL     1      30.463  27.759   7.459  1.00  0.00     0.005 C 
BRANCH   8   9
HETATM    9  C22 UNL     1      31.048  28.868   6.669  1.00  0.00     0.011 C 
BRANCH   9  10
HETATM   10  C23 UNL     1      32.496  28.800   6.367  1.00  0.00     0.033 C 
HETATM   11  C24 UNL     1      32.983  27.391   5.957  1.00  0.00     0.011 C 
HETATM   12  C25 UNL     1      34.044  26.869   6.876  1.00  0.00     0.017 C 
HETATM   13  C26 UNL     1      35.158  27.738   7.297  1.00  0.00     0.114 C 
HETATM   14  C27 UNL     1      35.306  27.883   8.803  1.00  0.00     0.225 C 
HETATM   15  C31 UNL     1      34.886  29.197   6.804  1.00  0.00     0.241 C 
HETATM   16  O3  UNL     1      35.710  26.817   9.348  1.00  0.00    -0.273 OA
HETATM   17  N2  UNL     1      35.077  28.975   9.671  1.00  0.00    -0.340 N 
HETATM   18  C28 UNL     1      34.173  30.116   9.482  1.00  0.00     0.179 C 
ATOM     19  H2  UNL     1      35.609  28.969  10.541  1.00  0.00     0.164 HD
HETATM   20  C29 UNL     1      33.501  30.588  10.701  1.00  0.00     0.055 C 
HETATM   21  N3  UNL     1      33.145  29.654   8.496  1.00  0.00    -0.373 N 
HETATM   22  C30 UNL     1      33.452  29.280   7.367  1.00  0.00     0.019 C 
ATOM     23  H3  UNL     1      32.163  29.649   8.770  1.00  0.00     0.161 HD
BRANCH  15  24
HETATM   24  N4  UNL     1      34.944  29.277   5.404  1.00  0.00    -0.069 N 
ATOM     25  H43 UNL     1      35.860  29.004   5.051  1.00  0.00     0.275 HD
ATOM     26  H42 UNL     1      34.383  28.548   4.963  1.00  0.00     0.275 HD
ATOM     27  H41 UNL     1      34.677  30.205   5.078  1.00  0.00     0.275 HD
ENDBRANCH  15  24
ENDBRANCH   9  10
ENDBRANCH   8   9
ENDBRANCH   6   8
ENDBRANCH   4   6
BRANCH   1  28
HETATM   28  C2  UNL     1      28.178  30.440  11.621  1.00  0.00    -0.085 C 
HETATM   29  C1  UNL     1      28.560  30.020  12.813  1.00  0.00     0.014 C 
BRANCH  28  30
HETATM   30  C3  UNL     1      28.616  31.790  11.165  1.00  0.00     0.034 C 
BRANCH  30  31
HETATM   31  C4  UNL     1      30.074  32.001  11.155  1.00  0.00     0.005 C 
BRANCH  31  32
HETATM   32  C5  UNL     1      30.539  33.367  11.552  1.00  0.00     0.007 C 
BRANCH  32  33
HETATM   33  C6  UNL     1      30.789  33.436  13.036  1.00  0.00     0.009 C 
BRANCH  33  34
HETATM   34  C7  UNL     1      31.394  32.179  13.580  1.00  0.00     0.168 C 
BRANCH  34  35
HETATM   35  O1  UNL     1      31.537  32.249  14.979  1.00  0.00    -0.400 OA
ATOM     36  H1  UNL     1      31.593  31.381  15.362  1.00  0.00     0.209 HD
ENDBRANCH  34  35
ENDBRANCH  33  34
BRANCH  33  37
HETATM   37  C8  UNL     1      31.637  34.633  13.367  1.00  0.00     0.009 C 
BRANCH  37  38
HETATM   38  C9  UNL     1      33.042  34.564  12.870  1.00  0.00     0.026 C 
BRANCH  38  39
HETATM   39  C10 UNL     1      34.052  34.919  13.948  1.00  0.00     0.088 C 
HETATM   40  C11 UNL     1      35.255  35.610  13.359  1.00  0.00     0.052 C 
HETATM   41  C12 UNL     1      36.283  35.820  14.385  1.00  0.00    -0.019 C 
HETATM   42  C13 UNL     1      36.403  35.045  15.434  1.00  0.00     0.070 C 
HETATM   43  C14 UNL     1      35.507  33.913  15.640  1.00  0.00     0.241 C 
HETATM   44  O2  UNL     1      35.605  33.166  16.625  1.00  0.00    -0.269 OA
HETATM   45  N1  UNL     1      34.512  33.723  14.635  1.00  0.00    -0.353 N 
ATOM     46  H1  UNL     1      34.143  32.799  14.411  1.00  0.00     0.163 HD
ENDBRANCH  38  39
ENDBRANCH  37  38
ENDBRANCH  33  37
ENDBRANCH  32  33
ENDBRANCH  31  32
ENDBRANCH  30  31
ENDBRANCH  28  30
ENDBRANCH   1  28
TORSDOF 15
ENDMDL
MODEL 3
REMARK VINA RESULT: -7.724764892      3.835      7.694
REMARK  15 active torsions:
REMARK  status: ('A' for Active; 'I' for Inactive)
REMARK    1  A    between atoms: C2_2  and  C3_3 
REMARK    2  A    between atoms: C2_2  and  C15_20 
REMARK    3  A    between atoms: C3_3  and  C4_4 
REMARK    4  A    between atoms: C4_4  and  C5_5 
REMARK    5  A    between atoms: C5_5  and  C6_6 
REMARK    6  A    between atoms: C6_6  and  C7_7 
REMARK    7  A    between atoms: C6_6  and  C8_10 
REMARK    8  A    between atoms: C7_7  and  O1_8 
REMARK    9  A    between atoms: C8_10  and  C9_11 
REMARK   10  A    between atoms: C9_11  and  C10_12 
REMARK   11  A    between atoms: C18_23  and  C19_24 
REMARK   12  A    between atoms: C19_24  and  C21_26 
REMARK   13  A    between atoms: C21_26  and  C22_27 
REMARK   14  A    between atoms: C22_27  and  C23_28 
REMARK   15  A    between atoms: C31_41  and  N4_42 
ROOT
HETATM    1  C15 UNL     1      36.338  34.874  14.183  1.00  0.00     0.014 C 
HETATM    2  C16 UNL     1      36.904  35.122  12.834  1.00  0.00     0.009 C 
HETATM    3  C17 UNL     1      36.692  36.636  12.542  1.00  0.00     0.005 C 
HETATM    4  C18 UNL     1      35.832  37.080  13.641  1.00  0.00    -0.010 C 
HETATM    5  C32 UNL     1      36.358  36.271  14.830  1.00  0.00     0.014 C 
ENDROOT
BRANCH   4   6
HETATM    6  C19 UNL     1      35.445  38.442  13.901  1.00  0.00    -0.014 C 
HETATM    7  C20 UNL     1      36.684  39.159  14.499  1.00  0.00     0.010 C 
BRANCH   6   8
HETATM    8  C21 UNL     1      34.715  39.312  12.974  1.00  0.00     0.005 C 
BRANCH   8   9
HETATM    9  C22 UNL     1      33.339  39.723  13.335  1.00  0.00     0.011 C 
BRANCH   9  10
HETATM   10  C23 UNL     1      32.534  38.777  14.141  1.00  0.00     0.033 C 
HETATM   11  C24 UNL     1      32.041  37.544  13.349  1.00  0.00     0.011 C 
HETATM   12  C25 UNL     1      30.546  37.439  13.338  1.00  0.00     0.017 C 
HETATM   13  C26 UNL     1      29.777  37.643  14.578  1.00  0.00     0.114 C 
HETATM   14  C27 UNL     1      28.720  38.731  14.488  1.00  0.00     0.225 C 
HETATM   15  C31 UNL     1      30.739  38.146  15.703  1.00  0.00     0.241 C 
HETATM   16  O3  UNL     1      27.753  38.399  13.743  1.00  0.00    -0.273 OA
HETATM   17  N2  UNL     1      28.634  40.013  15.079  1.00  0.00    -0.340 N 
HETATM   18  C28 UNL     1      29.727  40.880  15.538  1.00  0.00     0.179 C 
ATOM     19  H2  UNL     1      27.692  40.383  15.202  1.00  0.00     0.164 HD
HETATM   20  C29 UNL     1      29.519  42.317  15.314  1.00  0.00     0.055 C 
HETATM   21  N3  UNL     1      30.939  40.429  14.783  1.00  0.00    -0.373 N 
HETATM   22  C30 UNL     1      31.365  39.281  14.868  1.00  0.00     0.019 C 
ATOM     23  H3  UNL     1      31.424  41.095  14.182  1.00  0.00     0.161 HD
BRANCH  15  24
HETATM   24  N4  UNL     1      31.654  37.147  16.069  1.00  0.00    -0.069 N 
ATOM     25  H43 UNL     1      32.141  37.383  16.933  1.00  0.00     0.275 HD
ATOM     26  H42 UNL     1      31.181  36.300  16.383  1.00  0.00     0.275 HD
ATOM     27  H41 UNL     1      32.308  36.953  15.311  1.00  0.00     0.275 HD
ENDBRANCH  15  24
ENDBRANCH   9  10
ENDBRANCH   8   9
ENDBRANCH   6   8
ENDBRANCH   4   6
BRANCH   1  28
HETATM   28  C2  UNL     1      34.936  34.335  14.109  1.00  0.00    -0.085 C 
HETATM   29  C1  UNL     1      33.969  34.642  14.954  1.00  0.00     0.014 C 
BRANCH  28  30
HETATM   30  C3  UNL     1      34.638  33.392  12.994  1.00  0.00     0.034 C 
BRANCH  30  31
HETATM   31  C4  UNL     1      33.229  33.362  12.564  1.00  0.00     0.005 C 
BRANCH  31  32
HETATM   32  C5  UNL     1      32.520  32.056  12.737  1.00  0.00     0.007 C 
BRANCH  32  33
HETATM   33  C6  UNL     1      31.191  32.256  13.417  1.00  0.00     0.009 C 
BRANCH  33  34
HETATM   34  C7  UNL     1      30.776  33.694  13.467  1.00  0.00     0.168 C 
BRANCH  34  35
HETATM   35  O1  UNL     1      30.173  34.006  14.701  1.00  0.00    -0.400 OA
ATOM     36  H1  UNL     1      29.474  33.395  14.905  1.00  0.00     0.209 HD
ENDBRANCH  34  35
ENDBRANCH  33  34
BRANCH  33  37
HETATM   37  C8  UNL     1      30.135  31.412  12.758  1.00  0.00     0.009 C 
BRANCH  37  38
HETATM   38  C9  UNL     1      29.752  31.845  11.383  1.00  0.00     0.026 C 
BRANCH  38  39
HETATM   39  C10 UNL     1      29.154  30.711  10.568  1.00  0.00     0.088 C 
HETATM   40  C11 UNL     1      27.720  31.001  10.205  1.00  0.00     0.052 C 
HETATM   41  C12 UNL     1      27.111  29.840   9.542  1.00  0.00    -0.019 C 
HETATM   42  C13 UNL     1      27.512  28.613   9.759  1.00  0.00     0.070 C 
HETATM   43  C14 UNL     1      28.601  28.329  10.686  1.00  0.00     0.241 C 
HETATM   44  O2  UNL     1      28.994  27.174  10.907  1.00  0.00    -0.269 OA
HETATM   45  N1  UNL     1      29.185  29.466  11.320  1.00  0.00    -0.353 N 
ATOM     46  H1  UNL     1      29.600  29.410  12.250  1.00  0.00     0.163 HD
ENDBRANCH  38  39
ENDBRANCH  37  38
ENDBRANCH  33  37
ENDBRANCH  32  33
ENDBRANCH  31  32
ENDBRANCH  30  31
ENDBRANCH  28  30
ENDBRANCH   1  28
TORSDOF 15
ENDMDL
MODEL 4
REMARK VINA RESULT: -7.676308801      1.511      2.006
REMARK  15 active torsions:
REMARK  status: ('A' for Active; 'I' for Inactive)
REMARK    1  A    between atoms: C2_2  and  C3_3 
REMARK    2  A    between atoms: C2_2  and  C15_20 
REMARK    3  A    between atoms: C3_3  and  C4_4 
REMARK    4  A    between atoms: C4_4  and  C5_5 
REMARK    5  A    between atoms: C5_5  and  C6_6 
REMARK    6  A    between atoms: C6_6  and  C7_7 
REMARK    7  A    between atoms: C6_6  and  C8_10 
REMARK    8  A    between atoms: C7_7  and  O1_8 
REMARK    9  A    between atoms: C8_10  and  C9_11 
REMARK   10  A    between atoms: C9_11  and  C10_12 
REMARK   11  A    between atoms: C18_23  and  C19_24 
REMARK   12  A    between atoms: C19_24  and  C21_26 
REMARK   13  A    between atoms: C21_26  and  C22_27 
REMARK   14  A    between atoms: C22_27  and  C23_28 
REMARK   15  A    between atoms: C31_41  and  N4_42 
ROOT
HETATM    1  C15 UNL     1      27.398  30.087  10.248  1.00  0.00     0.014 C 
HETATM    2  C16 UNL     1      27.470  29.688  11.676  1.00  0.00     0.009 C 
HETATM    3  C17 UNL     1      28.790  30.294  12.234  1.00  0.00     0.005 C 
HETATM    4  C18 UNL     1      29.469  30.795  11.037  1.00  0.00    -0.010 C 
HETATM    5  C32 UNL     1      28.312  31.324  10.187  1.00  0.00     0.014 C 
ENDROOT
BRANCH   4   6
HETATM    6  C19 UNL     1      30.687  31.563  11.028  1.00  0.00    -0.014 C 
HETATM    7  C20 UNL     1      30.283  33.052  10.879  1.00  0.00     0.010 C 
BRANCH   6   8
HETATM    8  C21 UNL     1      31.805  31.399  11.963  1.00  0.00     0.005 C 
BRANCH   8   9
HETATM    9  C22 UNL     1      32.847  32.451  12.000  1.00  0.00     0.011 C 
BRANCH   9  10
HETATM   10  C23 UNL     1      33.124  33.091  13.306  1.00  0.00     0.033 C 
HETATM   11  C24 UNL     1      31.969  33.978  13.825  1.00  0.00     0.011 C 
HETATM   12  C25 UNL     1      32.395  35.400  14.028  1.00  0.00     0.017 C 
HETATM   13  C26 UNL     1      33.670  35.706  14.699  1.00  0.00     0.114 C 
HETATM   14  C27 UNL     1      34.617  36.571  13.882  1.00  0.00     0.225 C 
HETATM   15  C31 UNL     1      34.469  34.379  14.917  1.00  0.00     0.241 C 
HETATM   16  O3  UNL     1      34.198  37.759  13.766  1.00  0.00    -0.273 OA
HETATM   17  N2  UNL     1      35.848  36.283  13.250  1.00  0.00    -0.340 N 
HETATM   18  C28 UNL     1      36.342  34.990  12.761  1.00  0.00     0.179 C 
ATOM     19  H2  UNL     1      36.475  37.077  13.117  1.00  0.00     0.164 HD
HETATM   20  C29 UNL     1      37.119  35.049  11.516  1.00  0.00     0.055 C 
HETATM   21  N3  UNL     1      35.120  34.152  12.545  1.00  0.00    -0.373 N 
HETATM   22  C30 UNL     1      34.344  33.889  13.459  1.00  0.00     0.019 C 
ATOM     23  H3  UNL     1      34.928  33.788  11.611  1.00  0.00     0.161 HD
BRANCH  15  24
HETATM   24  N4  UNL     1      33.824  33.548  15.845  1.00  0.00    -0.069 N 
ATOM     25  H43 UNL     1      33.738  33.999  16.756  1.00  0.00     0.275 HD
ATOM     26  H42 UNL     1      32.832  33.442  15.630  1.00  0.00     0.275 HD
ATOM     27  H41 UNL     1      34.291  32.644  15.916  1.00  0.00     0.275 HD
ENDBRANCH  15  24
ENDBRANCH   9  10
ENDBRANCH   8   9
ENDBRANCH   6   8
ENDBRANCH   4   6
BRANCH   1  28
HETATM   28  C2  UNL     1      27.903  29.000   9.340  1.00  0.00    -0.085 C 
HETATM   29  C1  UNL     1      27.862  27.710   9.619  1.00  0.00     0.014 C 
BRANCH  28  30
HETATM   30  C3  UNL     1      28.486  29.431   8.037  1.00  0.00     0.034 C 
BRANCH  30  31
HETATM   31  C4  UNL     1      29.407  28.463   7.416  1.00  0.00     0.005 C 
BRANCH  31  32
HETATM   32  C5  UNL     1      30.864  28.780   7.534  1.00  0.00     0.007 C 
BRANCH  32  33
HETATM   33  C6  UNL     1      31.383  28.409   8.899  1.00  0.00     0.009 C 
BRANCH  33  34
HETATM   34  C7  UNL     1      31.384  26.931   9.136  1.00  0.00     0.168 C 
BRANCH  34  35
HETATM   35  O1  UNL     1      32.067  26.607  10.324  1.00  0.00    -0.400 OA
ATOM     36  H1  UNL     1      31.467  26.296  10.991  1.00  0.00     0.209 HD
ENDBRANCH  34  35
ENDBRANCH  33  34
BRANCH  33  37
HETATM   37  C8  UNL     1      32.753  28.992   9.113  1.00  0.00     0.009 C 
BRANCH  37  38
HETATM   38  C9  UNL     1      33.226  29.899   8.027  1.00  0.00     0.026 C 
BRANCH  38  39
HETATM   39  C10 UNL     1      34.250  30.905   8.525  1.00  0.00     0.088 C 
HETATM   40  C11 UNL     1      35.359  31.093   7.521  1.00  0.00     0.052 C 
HETATM   41  C12 UNL     1      36.411  31.956   8.071  1.00  0.00    -0.019 C 
HETATM   42  C13 UNL     1      36.648  32.051   9.356  1.00  0.00     0.070 C 
HETATM   43  C14 UNL     1      35.866  31.291  10.323  1.00  0.00     0.241 C 
HETATM   44  O2  UNL     1      36.075  31.365  11.543  1.00  0.00    -0.269 OA
HETATM   45  N1  UNL     1      34.845  30.458   9.774  1.00  0.00    -0.353 N 
ATOM     46  H1  UNL     1      34.549  29.596  10.233  1.00  0.00     0.163 HD
ENDBRANCH  38  39
ENDBRANCH  37  38
ENDBRANCH  33  37
ENDBRANCH  32  33
ENDBRANCH  31  32
ENDBRANCH  30  31
ENDBRANCH  28  30
ENDBRANCH   1  28
TORSDOF 15
ENDMDL
MODEL 5
REMARK VINA RESULT: -7.672779097      2.275      6.574
REMARK  15 active torsions:
REMARK  status: ('A' for Active; 'I' for Inactive)
REMARK    1  A    between atoms: C2_2  and  C3_3 
REMARK    2  A    between atoms: C2_2  and  C15_20 
REMARK    3  A    between atoms: C3_3  and  C4_4 
REMARK    4  A    between atoms: C4_4  and  C5_5 
REMARK    5  A    between atoms: C5_5  and  C6_6 
REMARK    6  A    between atoms: C6_6  and  C7_7 
REMARK    7  A    between atoms: C6_6  and  C8_10 
REMARK    8  A    between atoms: C7_7  and  O1_8 
REMARK    9  A    between atoms: C8_10  and  C9_11 
REMARK   10  A    between atoms: C9_11  and  C10_12 
REMARK   11  A    between atoms: C18_23  and  C19_24 
REMARK   12  A    between atoms: C19_24  and  C21_26 
REMARK   13  A    between atoms: C21_26  and  C22_27 
REMARK   14  A    between atoms: C22_27  and  C23_28 
REMARK   15  A    between atoms: C31_41  and  N4_42 
ROOT
HETATM    1  C15 UNL     1      27.380  29.504  10.091  1.00  0.00     0.014 C 
HETATM    2  C16 UNL     1      27.547  30.118   8.750  1.00  0.00     0.009 C 
HETATM    3  C17 UNL     1      28.661  29.305   8.031  1.00  0.00     0.005 C 
HETATM    4  C18 UNL     1      29.192  28.441   9.089  1.00  0.00    -0.010 C 
HETATM    5  C32 UNL     1      27.940  28.083   9.893  1.00  0.00     0.014 C 
ENDROOT
BRANCH   4   6
HETATM    6  C19 UNL     1      30.167  27.399   8.905  1.00  0.00    -0.014 C 
HETATM    7  C20 UNL     1      30.028  26.901   7.443  1.00  0.00     0.010 C 
BRANCH   6   8
HETATM    8  C21 UNL     1      31.572  27.463   9.320  1.00  0.00     0.005 C 
BRANCH   8   9
HETATM    9  C22 UNL     1      32.104  28.761   9.795  1.00  0.00     0.011 C 
BRANCH   9  10
HETATM   10  C23 UNL     1      32.860  29.584   8.823  1.00  0.00     0.033 C 
HETATM   11  C24 UNL     1      33.770  28.762   7.881  1.00  0.00     0.011 C 
HETATM   12  C25 UNL     1      35.210  29.155   8.002  1.00  0.00     0.017 C 
HETATM   13  C26 UNL     1      35.594  30.577   8.038  1.00  0.00     0.114 C 
HETATM   14  C27 UNL     1      36.399  30.979   9.263  1.00  0.00     0.225 C 
HETATM   15  C31 UNL     1      34.304  31.455   8.133  1.00  0.00     0.241 C 
HETATM   16  O3  UNL     1      37.566  30.490   9.249  1.00  0.00    -0.273 OA
HETATM   17  N2  UNL     1      36.077  31.782  10.381  1.00  0.00    -0.340 N 
HETATM   18  C28 UNL     1      34.754  32.057  10.955  1.00  0.00     0.179 C 
ATOM     19  H2  UNL     1      36.866  32.227  10.849  1.00  0.00     0.164 HD
HETATM   20  C29 UNL     1      34.718  32.153  12.421  1.00  0.00     0.055 C 
HETATM   21  N3  UNL     1      33.881  30.926  10.509  1.00  0.00    -0.373 N 
HETATM   22  C30 UNL     1      33.687  30.687   9.320  1.00  0.00     0.019 C 
ATOM     23  H3  UNL     1      33.435  30.337  11.213  1.00  0.00     0.161 HD
BRANCH  15  24
HETATM   24  N4  UNL     1      33.546  31.370   6.956  1.00  0.00    -0.069 N 
ATOM     25  H43 UNL     1      32.896  32.151   6.870  1.00  0.00     0.275 HD
ATOM     26  H42 UNL     1      34.116  31.549   6.129  1.00  0.00     0.275 HD
ATOM     27  H41 UNL     1      33.065  30.473   6.892  1.00  0.00     0.275 HD
ENDBRANCH  15  24
ENDBRANCH   9  10
ENDBRANCH   8   9
ENDBRANCH   6   8
ENDBRANCH   4   6
BRANCH   1  28
HETATM   28  C2  UNL     1      28.155  30.246  11.144  1.00  0.00    -0.085 C 
HETATM   29  C1  UNL     1      28.391  29.791  12.361  1.00  0.00     0.014 C 
BRANCH  28  30
HETATM   30  C3  UNL     1      28.690  31.585  10.766  1.00  0.00     0.034 C 
BRANCH  30  31
HETATM   31  C4  UNL     1      30.103  31.813  11.115  1.00  0.00     0.005 C 
BRANCH  31  32
HETATM   32  C5  UNL     1      30.499  33.238  11.340  1.00  0.00     0.007 C 
BRANCH  32  33
HETATM   33  C6  UNL     1      30.927  33.454  12.768  1.00  0.00     0.009 C 
BRANCH  33  34
HETATM   34  C7  UNL     1      31.150  32.171  13.507  1.00  0.00     0.168 C 
BRANCH  34  35
HETATM   35  O1  UNL     1      31.406  32.407  14.871  1.00  0.00    -0.400 OA
ATOM     36  H1  UNL     1      31.693  33.301  15.016  1.00  0.00     0.209 HD
ENDBRANCH  34  35
ENDBRANCH  33  34
BRANCH  33  37
HETATM   37  C8  UNL     1      32.151  34.327  12.820  1.00  0.00     0.009 C 
BRANCH  37  38
HETATM   38  C9  UNL     1      32.171  35.314  13.939  1.00  0.00     0.026 C 
BRANCH  38  39
HETATM   39  C10 UNL     1      33.517  35.356  14.644  1.00  0.00     0.088 C 
HETATM   40  C11 UNL     1      34.620  35.726  13.685  1.00  0.00     0.052 C 
HETATM   41  C12 UNL     1      35.929  35.625  14.343  1.00  0.00    -0.019 C 
HETATM   42  C13 UNL     1      36.156  34.811  15.343  1.00  0.00     0.070 C 
HETATM   43  C14 UNL     1      35.103  33.948  15.865  1.00  0.00     0.241 C 
HETATM   44  O2  UNL     1      35.298  33.169  16.809  1.00  0.00    -0.269 OA
HETATM   45  N1  UNL     1      33.836  34.059  15.218  1.00  0.00    -0.353 N 
ATOM     46  H1  UNL     1      33.190  33.272  15.161  1.00  0.00     0.163 HD
ENDBRANCH  38  39
ENDBRANCH  37  38
ENDBRANCH  33  37
ENDBRANCH  32  33
ENDBRANCH  31  32
ENDBRANCH  30  31
ENDBRANCH  28  30
ENDBRANCH   1  28
TORSDOF 15
ENDMDL
