MODEL 1
REMARK VINA RESULT: -7.842615288      0.000      0.000
REMARK  13 active torsions:
REMARK  status: ('A' for Active; 'I' for Inactive)
REMARK    1  A    between atoms: C2_2  and  C3_3 
REMARK    2  A    between atoms: C3_3  and  C4_4 
REMARK    3  A    between atoms: C4_4  and  C5_5 
REMARK    4  A    between atoms: C5_5  and  C6_6 
REMARK    5  A    between atoms: C6_6  and  N1_7 
REMARK       I    between atoms: N1_7  and  C7_9 
REMARK       I    between atoms: C7_9  and  N2_11 
REMARK    6  A    between atoms: N2_11  and  C8_13 
REMARK    7  A    between atoms: C8_13  and  C9_14 
REMARK    8  A    between atoms: C12_17  and  C13_18 
REMARK    9  A    between atoms: C13_18  and  N3_19 
REMARK       I    between atoms: N3_19  and  C14_21 
REMARK   10  A    between atoms: C14_21  and  C15_23 
REMARK   11  A    between atoms: C18_28  and  N5_29 
REMARK   12  A    between atoms: N5_29  and  S1_31 
REMARK   13  A    between atoms: S1_31  and  C19_34 
ROOT
HETATM    1  N3  UNL     1      36.324  33.181  11.171  1.00  0.00    -0.356 N 
ATOM      2  H3  UNL     1      35.807  32.650  11.872  1.00  0.00     0.162 HD
HETATM    3  C14 UNL     1      36.521  34.550  11.390  1.00  0.00     0.251 C 
HETATM    4  O2  UNL     1      37.142  35.302  10.562  1.00  0.00    -0.268 OA
ENDROOT
BRANCH   1   5
HETATM    5  C13 UNL     1      36.809  32.489  10.021  1.00  0.00     0.127 C 
BRANCH   5   6
HETATM    6  C12 UNL     1      36.435  31.030   9.932  1.00  0.00     0.003 C 
HETATM    7  C11 UNL     1      35.039  30.908  10.450  1.00  0.00     0.007 C 
HETATM    8  C10 UNL     1      34.292  29.707   9.986  1.00  0.00     0.007 C 
HETATM    9  C9  UNL     1      34.430  29.650   8.471  1.00  0.00     0.003 C 
HETATM   10  C27 UNL     1      35.847  29.305   8.205  1.00  0.00     0.007 C 
HETATM   11  C26 UNL     1      36.688  30.499   8.587  1.00  0.00     0.007 C 
BRANCH   9  12
HETATM   12  C8  UNL     1      33.429  28.739   7.842  1.00  0.00     0.129 C 
BRANCH  12  13
HETATM   13  N2  UNL     1      32.122  29.336   7.669  1.00  0.00    -0.343 N 
HETATM   14  C7  UNL     1      31.007  28.803   8.331  1.00  0.00     0.316 C 
HETATM   15  N1  UNL     1      29.691  29.403   8.188  1.00  0.00    -0.343 N 
HETATM   16  O1  UNL     1      31.073  27.818   9.068  1.00  0.00    -0.247 OA
ATOM     17  H1  UNL     1      29.598  30.205   7.564  1.00  0.00     0.164 HD
ATOM     18  H2  UNL     1      32.012  30.147   7.062  1.00  0.00     0.164 HD
BRANCH  15  19
HETATM   19  C6  UNL     1      28.532  28.949   8.856  1.00  0.00     0.124 C 
BRANCH  19  20
HETATM   20  C5  UNL     1      27.514  30.054   9.119  1.00  0.00     0.020 C 
BRANCH  20  21
HETATM   21  C4  UNL     1      27.679  30.646  10.482  1.00  0.00     0.002 C 
BRANCH  21  22
HETATM   22  C3  UNL     1      28.148  29.611  11.454  1.00  0.00    -0.000 C 
BRANCH  22  23
HETATM   23  C2  UNL     1      28.500  30.302  12.769  1.00  0.00    -0.005 C 
HETATM   24  C1  UNL     1      27.861  31.668  12.818  1.00  0.00     0.005 C 
ENDBRANCH  22  23
ENDBRANCH  21  22
ENDBRANCH  20  21
ENDBRANCH  19  20
ENDBRANCH  15  19
ENDBRANCH  12  13
ENDBRANCH   9  12
ENDBRANCH   5   6
ENDBRANCH   1   5
BRANCH   3  25
HETATM   25  C15 UNL     1      36.011  35.180  12.610  1.00  0.00     0.036 A 
HETATM   26  C16 UNL     1      36.768  36.054  13.336  1.00  0.00     0.034 A 
HETATM   27  C17 UNL     1      36.195  36.641  14.455  1.00  0.00     0.090 A 
HETATM   28  N4  UNL     1      34.960  36.360  14.805  1.00  0.00    -0.352 N 
HETATM   29  C18 UNL     1      34.168  35.507  14.136  1.00  0.00     0.115 A 
ATOM     30  H4  UNL     1      34.580  36.817  15.635  1.00  0.00     0.166 HD
HETATM   31  C25 UNL     1      34.712  34.917  13.027  1.00  0.00     0.066 A 
BRANCH  29  32
HETATM   32  N5  UNL     1      32.849  35.248  14.541  1.00  0.00    -0.270 N 
ATOM     33  H5  UNL     1      32.740  34.865  15.480  1.00  0.00     0.180 HD
BRANCH  32  34
HETATM   34  S1  UNL     1      31.400  35.490  13.665  1.00  0.00     0.236 S 
HETATM   35  O3  UNL     1      31.716  36.527  12.544  1.00  0.00    -0.205 OA
HETATM   36  O4  UNL     1      30.301  36.083  14.512  1.00  0.00    -0.205 OA
BRANCH  34  37
HETATM   37  C19 UNL     1      30.837  34.045  12.855  1.00  0.00     0.129 C 
HETATM   38  C20 UNL     1      31.248  33.881  11.459  1.00  0.00     0.022 C 
HETATM   39  C21 UNL     1      30.791  32.481  10.954  1.00  0.00     0.001 C 
HETATM   40  C22 UNL     1      31.692  31.445  11.591  1.00  0.00     0.000 C 
HETATM   41  C23 UNL     1      32.343  32.019  12.857  1.00  0.00     0.001 C 
HETATM   42  C24 UNL     1      31.348  32.822  13.683  1.00  0.00     0.022 C 
ENDBRANCH  34  37
ENDBRANCH  32  34
ENDBRANCH  29  32
ENDBRANCH   3  25
TORSDOF 13
ENDMDL
MODEL 2
REMARK VINA RESULT: -7.748442436      3.299      5.429
REMARK  13 active torsions:
REMARK  status: ('A' for Active; 'I' for Inactive)
REMARK    1  A    between atoms: C2_2  and  C3_3 
REMARK    2  A    between atoms: C3_3  and  C4_4 
REMARK    3  A    between atoms: C4_4  and  C5_5 
REMARK    4  A    between atoms: C5_5  and  C6_6 
REMARK    5  A    between atoms: C6_6  and  N1_7 
REMARK       I    between atoms: N1_7  and  C7_9 
REMARK       I    between atoms: C7_9  and  N2_11 
REMARK    6  A    between atoms: N2_11  and  C8_13 
REMARK    7  A    between atoms: C8_13  and  C9_14 
REMARK    8  A    between atoms: C12_17  and  C13_18 
REMARK    9  A    between atoms: C13_18  and  N3_19 
REMARK       I    between atoms: N3_19  and  C14_21 
REMARK   10  A    between atoms: C14_21  and  C15_23 
REMARK   11  A    between atoms: C18_28  and  N5_29 
REMARK   12  A    between atoms: N5_29  and  S1_31 
REMARK   13  A    between atoms: S1_31  and  C19_34 
ROOT
HETATM    1  N3  UNL     1      31.590  32.802  13.492  1.00  0.00    -0.356 N 
ATOM      2  H3  UNL     1      31.022  33.541  13.907  1.00  0.00     0.162 HD
HETATM    3  C14 UNL     1      32.934  33.077  13.212  1.00  0.00     0.251 C 
HETATM    4  O2  UNL     1      33.721  32.221  12.678  1.00  0.00    -0.268 OA
ENDROOT
BRANCH   1   5
HETATM    5  C13 UNL     1      30.973  31.542  13.229  1.00  0.00     0.127 C 
BRANCH   5   6
HETATM    6  C12 UNL     1      29.554  31.605  12.721  1.00  0.00     0.003 C 
HETATM    7  C11 UNL     1      29.573  32.443  11.485  1.00  0.00     0.007 C 
HETATM    8  C10 UNL     1      28.438  32.220  10.548  1.00  0.00     0.007 C 
HETATM    9  C9  UNL     1      28.338  30.719  10.314  1.00  0.00     0.003 C 
HETATM   10  C27 UNL     1      27.856  30.140  11.591  1.00  0.00     0.007 C 
HETATM   11  C26 UNL     1      28.975  30.262  12.598  1.00  0.00     0.007 C 
BRANCH   9  12
HETATM   12  C8  UNL     1      27.512  30.383   9.117  1.00  0.00     0.129 C 
BRANCH  12  13
HETATM   13  N2  UNL     1      27.660  29.016   8.668  1.00  0.00    -0.343 N 
HETATM   14  C7  UNL     1      28.867  28.585   8.098  1.00  0.00     0.316 C 
HETATM   15  N1  UNL     1      29.043  27.209   7.663  1.00  0.00    -0.343 N 
HETATM   16  O1  UNL     1      29.837  29.328   7.942  1.00  0.00    -0.247 OA
ATOM     17  H1  UNL     1      28.249  26.575   7.756  1.00  0.00     0.164 HD
ATOM     18  H2  UNL     1      26.884  28.363   8.766  1.00  0.00     0.164 HD
BRANCH  15  19
HETATM   19  C6  UNL     1      30.241  26.693   7.121  1.00  0.00     0.124 C 
BRANCH  19  20
HETATM   20  C5  UNL     1      30.906  25.648   8.011  1.00  0.00     0.020 C 
BRANCH  20  21
HETATM   21  C4  UNL     1      31.072  26.141   9.413  1.00  0.00     0.002 C 
BRANCH  21  22
HETATM   22  C3  UNL     1      30.416  25.209  10.382  1.00  0.00    -0.000 C 
BRANCH  22  23
HETATM   23  C2  UNL     1      29.492  26.018  11.288  1.00  0.00    -0.005 C 
HETATM   24  C1  UNL     1      29.431  25.385  12.656  1.00  0.00     0.005 C 
ENDBRANCH  22  23
ENDBRANCH  21  22
ENDBRANCH  20  21
ENDBRANCH  19  20
ENDBRANCH  15  19
ENDBRANCH  12  13
ENDBRANCH   9  12
ENDBRANCH   5   6
ENDBRANCH   1   5
BRANCH   3  25
HETATM   25  C15 UNL     1      33.498  34.390  13.535  1.00  0.00     0.036 A 
HETATM   26  C16 UNL     1      34.782  34.720  13.208  1.00  0.00     0.034 A 
HETATM   27  C17 UNL     1      35.225  35.999  13.511  1.00  0.00     0.090 A 
HETATM   28  N4  UNL     1      34.431  36.866  14.097  1.00  0.00    -0.352 N 
HETATM   29  C18 UNL     1      33.162  36.602  14.447  1.00  0.00     0.115 A 
ATOM     30  H4  UNL     1      34.800  37.796  14.298  1.00  0.00     0.166 HD
HETATM   31  C25 UNL     1      32.702  35.345  14.156  1.00  0.00     0.066 A 
BRANCH  29  32
HETATM   32  N5  UNL     1      32.346  37.565  15.061  1.00  0.00    -0.270 N 
ATOM     33  H5  UNL     1      31.940  37.297  15.957  1.00  0.00     0.180 HD
BRANCH  32  34
HETATM   34  S1  UNL     1      31.944  39.131  14.502  1.00  0.00     0.236 S 
HETATM   35  O3  UNL     1      32.409  39.215  13.015  1.00  0.00    -0.205 OA
HETATM   36  O4  UNL     1      32.673  40.219  15.250  1.00  0.00    -0.205 OA
BRANCH  34  37
HETATM   37  C19 UNL     1      30.221  39.438  14.498  1.00  0.00     0.129 C 
HETATM   38  C20 UNL     1      29.368  38.345  14.027  1.00  0.00     0.022 C 
HETATM   39  C21 UNL     1      27.876  38.736  14.238  1.00  0.00     0.001 C 
HETATM   40  C22 UNL     1      27.582  38.647  15.720  1.00  0.00     0.000 C 
HETATM   41  C23 UNL     1      28.887  38.741  16.524  1.00  0.00     0.001 C 
HETATM   42  C24 UNL     1      29.815  39.808  15.960  1.00  0.00     0.022 C 
ENDBRANCH  34  37
ENDBRANCH  32  34
ENDBRANCH  29  32
ENDBRANCH   3  25
TORSDOF 13
ENDMDL
MODEL 3
REMARK VINA RESULT: -7.732863303      2.174      6.281
REMARK  13 active torsions:
REMARK  status: ('A' for Active; 'I' for Inactive)
REMARK    1  A    between atoms: C2_2  and  C3_3 
REMARK    2  A    between atoms: C3_3  and  C4_4 
REMARK    3  A    between atoms: C4_4  and  C5_5 
REMARK    4  A    between atoms: C5_5  and  C6_6 
REMARK    5  A    between atoms: C6_6  and  N1_7 
REMARK       I    between atoms: N1_7  and  C7_9 
REMARK       I    between atoms: C7_9  and  N2_11 
REMARK    6  A    between atoms: N2_11  and  C8_13 
REMARK    7  A    between atoms: C8_13  and  C9_14 
REMARK    8  A    between atoms: C12_17  and  C13_18 
REMARK    9  A    between atoms: C13_18  and  N3_19 
REMARK       I    between atoms: N3_19  and  C14_21 
REMARK   10  A    between atoms: C14_21  and  C15_23 
REMARK   11  A    between atoms: C18_28  and  N5_29 
REMARK   12  A    between atoms: N5_29  and  S1_31 
REMARK   13  A    between atoms: S1_31  and  C19_34 
ROOT
HETATM    1  N3  UNL     1      28.620  30.673  10.835  1.00  0.00    -0.356 N 
ATOM      2  H3  UNL     1      28.848  31.269  10.039  1.00  0.00     0.162 HD
HETATM    3  C14 UNL     1      29.252  30.931  12.057  1.00  0.00     0.251 C 
HETATM    4  O2  UNL     1      29.044  30.230  13.107  1.00  0.00    -0.268 OA
ENDROOT
BRANCH   1   5
HETATM    5  C13 UNL     1      27.673  29.622  10.643  1.00  0.00     0.127 C 
BRANCH   5   6
HETATM    6  C12 UNL     1      28.129  28.486   9.762  1.00  0.00     0.003 C 
HETATM    7  C11 UNL     1      28.722  29.101   8.536  1.00  0.00     0.007 C 
HETATM    8  C10 UNL     1      29.681  28.238   7.793  1.00  0.00     0.007 C 
HETATM    9  C9  UNL     1      30.686  27.709   8.806  1.00  0.00     0.003 C 
HETATM   10  C27 UNL     1      29.940  26.750   9.657  1.00  0.00     0.007 C 
HETATM   11  C26 UNL     1      28.977  27.546  10.505  1.00  0.00     0.007 C 
BRANCH   9  12
HETATM   12  C8  UNL     1      31.911  27.156   8.157  1.00  0.00     0.129 C 
BRANCH  12  13
HETATM   13  N2  UNL     1      33.114  27.317   8.944  1.00  0.00    -0.343 N 
HETATM   14  C7  UNL     1      34.271  27.862   8.367  1.00  0.00     0.316 C 
HETATM   15  N1  UNL     1      35.481  28.053   9.148  1.00  0.00    -0.343 N 
HETATM   16  O1  UNL     1      34.329  28.213   7.188  1.00  0.00    -0.247 OA
ATOM     17  H1  UNL     1      35.473  27.749  10.122  1.00  0.00     0.164 HD
ATOM     18  H2  UNL     1      33.122  27.033   9.923  1.00  0.00     0.164 HD
BRANCH  15  19
HETATM   19  C6  UNL     1      36.668  28.634   8.648  1.00  0.00     0.124 C 
BRANCH  19  20
HETATM   20  C5  UNL     1      36.691  30.154   8.762  1.00  0.00     0.020 C 
BRANCH  20  21
HETATM   21  C4  UNL     1      36.101  30.621  10.055  1.00  0.00     0.002 C 
BRANCH  21  22
HETATM   22  C3  UNL     1      34.940  31.530   9.807  1.00  0.00    -0.000 C 
BRANCH  22  23
HETATM   23  C2  UNL     1      33.835  31.193  10.806  1.00  0.00    -0.005 C 
HETATM   24  C1  UNL     1      32.651  30.603  10.080  1.00  0.00     0.005 C 
ENDBRANCH  22  23
ENDBRANCH  21  22
ENDBRANCH  20  21
ENDBRANCH  19  20
ENDBRANCH  15  19
ENDBRANCH  12  13
ENDBRANCH   9  12
ENDBRANCH   5   6
ENDBRANCH   1   5
BRANCH   3  25
HETATM   25  C15 UNL     1      30.195  32.045  12.176  1.00  0.00     0.036 A 
HETATM   26  C16 UNL     1      30.196  33.082  11.287  1.00  0.00     0.034 A 
HETATM   27  C17 UNL     1      31.092  34.120  11.497  1.00  0.00     0.090 A 
HETATM   28  N4  UNL     1      31.917  34.103  12.519  1.00  0.00    -0.352 N 
HETATM   29  C18 UNL     1      31.967  33.112  13.424  1.00  0.00     0.115 A 
ATOM     30  H4  UNL     1      32.557  34.890  12.633  1.00  0.00     0.166 HD
HETATM   31  C25 UNL     1      31.090  32.077  13.239  1.00  0.00     0.066 A 
BRANCH  29  32
HETATM   32  N5  UNL     1      32.857  33.144  14.508  1.00  0.00    -0.270 N 
ATOM     33  H5  UNL     1      32.790  32.363  15.161  1.00  0.00     0.180 HD
BRANCH  32  34
HETATM   34  S1  UNL     1      34.042  34.321  14.879  1.00  0.00     0.236 S 
HETATM   35  O3  UNL     1      34.527  34.034  16.333  1.00  0.00    -0.205 OA
HETATM   36  O4  UNL     1      33.488  35.724  14.872  1.00  0.00    -0.205 OA
BRANCH  34  37
HETATM   37  C19 UNL     1      35.458  34.217  13.856  1.00  0.00     0.129 C 
HETATM   38  C20 UNL     1      35.224  34.293  12.413  1.00  0.00     0.022 C 
HETATM   39  C21 UNL     1      36.594  34.341  11.676  1.00  0.00     0.001 C 
HETATM   40  C22 UNL     1      37.187  35.716  11.894  1.00  0.00     0.000 C 
HETATM   41  C23 UNL     1      36.562  36.370  13.134  1.00  0.00     0.001 C 
HETATM   42  C24 UNL     1      36.418  35.375  14.278  1.00  0.00     0.022 C 
ENDBRANCH  34  37
ENDBRANCH  32  34
ENDBRANCH  29  32
ENDBRANCH   3  25
TORSDOF 13
ENDMDL
MODEL 4
REMARK VINA RESULT: -7.718186688      2.755      9.191
REMARK  13 active torsions:
REMARK  status: ('A' for Active; 'I' for Inactive)
REMARK    1  A    between atoms: C2_2  and  C3_3 
REMARK    2  A    between atoms: C3_3  and  C4_4 
REMARK    3  A    between atoms: C4_4  and  C5_5 
REMARK    4  A    between atoms: C5_5  and  C6_6 
REMARK    5  A    between atoms: C6_6  and  N1_7 
REMARK       I    between atoms: N1_7  and  C7_9 
REMARK       I    between atoms: C7_9  and  N2_11 
REMARK    6  A    between atoms: N2_11  and  C8_13 
REMARK    7  A    between atoms: C8_13  and  C9_14 
REMARK    8  A    between atoms: C12_17  and  C13_18 
REMARK    9  A    between atoms: C13_18  and  N3_19 
REMARK       I    between atoms: N3_19  and  C14_21 
REMARK   10  A    between atoms: C14_21  and  C15_23 
REMARK   11  A    between atoms: C18_28  and  N5_29 
REMARK   12  A    between atoms: N5_29  and  S1_31 
REMARK   13  A    between atoms: S1_31  and  C19_34 
ROOT
HETATM    1  N3  UNL     1      28.271  29.033   8.865  1.00  0.00    -0.356 N 
ATOM      2  H3  UNL     1      28.618  28.295   9.478  1.00  0.00     0.162 HD
HETATM    3  C14 UNL     1      28.907  29.223   7.632  1.00  0.00     0.251 C 
HETATM    4  O2  UNL     1      28.554  30.131   6.803  1.00  0.00    -0.268 OA
ENDROOT
BRANCH   1   5
HETATM    5  C13 UNL     1      27.163  29.816   9.309  1.00  0.00     0.127 C 
BRANCH   5   6
HETATM    6  C12 UNL     1      27.403  30.640  10.549  1.00  0.00     0.003 C 
HETATM    7  C11 UNL     1      27.903  29.705  11.601  1.00  0.00     0.007 C 
HETATM    8  C10 UNL     1      28.682  30.341  12.699  1.00  0.00     0.007 C 
HETATM    9  C9  UNL     1      29.744  31.214  12.047  1.00  0.00     0.003 C 
HETATM   10  C27 UNL     1      29.016  32.350  11.431  1.00  0.00     0.007 C 
HETATM   11  C26 UNL     1      28.239  31.810  10.255  1.00  0.00     0.007 C 
BRANCH   9  12
HETATM   12  C8  UNL     1      30.827  31.601  12.999  1.00  0.00     0.129 C 
BRANCH  12  13
HETATM   13  N2  UNL     1      30.748  32.973  13.451  1.00  0.00    -0.343 N 
HETATM   14  C7  UNL     1      31.904  33.648  13.870  1.00  0.00     0.316 C 
HETATM   15  N1  UNL     1      31.848  35.034  14.304  1.00  0.00    -0.343 N 
HETATM   16  O1  UNL     1      33.017  33.122  13.888  1.00  0.00    -0.247 OA
ATOM     17  H1  UNL     1      30.936  35.490  14.325  1.00  0.00     0.164 HD
ATOM     18  H2  UNL     1      29.848  33.451  13.464  1.00  0.00     0.164 HD
BRANCH  15  19
HETATM   19  C6  UNL     1      32.974  35.791  14.699  1.00  0.00     0.124 C 
BRANCH  19  20
HETATM   20  C5  UNL     1      33.743  36.386  13.525  1.00  0.00     0.020 C 
BRANCH  20  21
HETATM   21  C4  UNL     1      35.192  36.570  13.847  1.00  0.00     0.002 C 
BRANCH  21  22
HETATM   22  C3  UNL     1      35.877  35.247  13.971  1.00  0.00    -0.000 C 
BRANCH  22  23
HETATM   23  C2  UNL     1      36.571  35.183  15.329  1.00  0.00    -0.005 C 
HETATM   24  C1  UNL     1      36.173  33.918  16.049  1.00  0.00     0.005 C 
ENDBRANCH  22  23
ENDBRANCH  21  22
ENDBRANCH  20  21
ENDBRANCH  19  20
ENDBRANCH  15  19
ENDBRANCH  12  13
ENDBRANCH   9  12
ENDBRANCH   5   6
ENDBRANCH   1   5
BRANCH   3  25
HETATM   25  C15 UNL     1      30.023  28.360   7.241  1.00  0.00     0.036 A 
HETATM   26  C16 UNL     1      30.063  27.747   6.020  1.00  0.00     0.034 A 
HETATM   27  C17 UNL     1      31.177  26.981   5.711  1.00  0.00     0.090 A 
HETATM   28  N4  UNL     1      32.164  26.849   6.569  1.00  0.00    -0.352 N 
HETATM   29  C18 UNL     1      32.182  27.421   7.783  1.00  0.00     0.115 A 
ATOM     30  H4  UNL     1      32.964  26.276   6.296  1.00  0.00     0.166 HD
HETATM   31  C25 UNL     1      31.093  28.184   8.110  1.00  0.00     0.066 A 
BRANCH  29  32
HETATM   32  N5  UNL     1      33.265  27.261   8.661  1.00  0.00    -0.270 N 
ATOM     33  H5  UNL     1      33.071  26.735   9.513  1.00  0.00     0.180 HD
BRANCH  32  34
HETATM   34  S1  UNL     1      34.868  27.834   8.490  1.00  0.00     0.236 S 
HETATM   35  O3  UNL     1      35.276  27.601   7.003  1.00  0.00    -0.205 OA
HETATM   36  O4  UNL     1      35.852  27.069   9.339  1.00  0.00    -0.205 OA
BRANCH  34  37
HETATM   37  C19 UNL     1      35.017  29.554   8.779  1.00  0.00     0.129 C 
HETATM   38  C20 UNL     1      34.664  30.020  10.121  1.00  0.00     0.022 C 
HETATM   39  C21 UNL     1      35.003  31.535  10.241  1.00  0.00     0.001 C 
HETATM   40  C22 UNL     1      36.508  31.663  10.332  1.00  0.00     0.000 C 
HETATM   41  C23 UNL     1      37.182  30.410   9.757  1.00  0.00     0.001 C 
HETATM   42  C24 UNL     1      36.499  29.946   8.478  1.00  0.00     0.022 C 
ENDBRANCH  34  37
ENDBRANCH  32  34
ENDBRANCH  29  32
ENDBRANCH   3  25
TORSDOF 13
ENDMDL
MODEL 5
REMARK VINA RESULT: -7.698528516      4.197      8.763
REMARK  13 active torsions:
REMARK  status: ('A' for Active; 'I' for Inactive)
REMARK    1  A    between atoms: C2_2  and  C3_3 
REMARK    2  A    between atoms: C3_3  and  C4_4 
REMARK    3  A    between atoms: C4_4  and  C5_5 
REMARK    4  A    between atoms: C5_5  and  C6_6 
REMARK    5  A    between atoms: C6_6  and  N1_7 
REMARK       I    between atoms: N1_7  and  C7_9 
REMARK       I    between atoms: C7_9  and  N2_11 
REMARK    6  A    between atoms: N2_11  and  C8_13 
REMARK    7  A    between atoms: C8_13  and  C9_14 
REMARK    8  A    between atoms: C12_17  and  C13_18 
REMARK    9  A    between atoms: C13_18  and  N3_19 
REMARK       I    between atoms: N3_19  and  C14_21 
REMARK   10  A    between atoms: C14_21  and  C15_23 
REMARK   11  A    between atoms: C18_28  and  N5_29 
REMARK   12  A    between atoms: N5_29  and  S1_31 
REMARK   13  A    between atoms: S1_31  and  C19_34 
ROOT
HETATM    1  N3  UNL     1      33.270  31.707  11.753  1.00  0.00    -0.356 N 
ATOM      2  H3  UNL     1      32.259  31.573  11.797  1.00  0.00     0.162 HD
HETATM    3  C14 UNL     1      34.011  30.882  10.899  1.00  0.00     0.251 C 
HETATM    4  O2  UNL     1      35.283  30.964  10.788  1.00  0.00    -0.268 OA
ENDROOT
BRANCH   1   5
HETATM    5  C13 UNL     1      33.851  32.726  12.566  1.00  0.00     0.127 C 
BRANCH   5   6
HETATM    6  C12 UNL     1      32.875  33.645  13.258  1.00  0.00     0.003 C 
HETATM    7  C11 UNL     1      33.685  34.677  13.973  1.00  0.00     0.007 C 
HETATM    8  C10 UNL     1      32.970  35.949  14.273  1.00  0.00     0.007 C 
HETATM    9  C9  UNL     1      32.320  36.414  12.978  1.00  0.00     0.003 C 
HETATM   10  C27 UNL     1      31.224  35.453  12.705  1.00  0.00     0.007 C 
HETATM   11  C26 UNL     1      31.856  34.136  12.323  1.00  0.00     0.007 C 
BRANCH   9  12
HETATM   12  C8  UNL     1      31.905  37.847  13.032  1.00  0.00     0.129 C 
BRANCH  12  13
HETATM   13  N2  UNL     1      30.477  38.038  13.171  1.00  0.00    -0.343 N 
HETATM   14  C7  UNL     1      29.912  38.266  14.434  1.00  0.00     0.316 C 
HETATM   15  N1  UNL     1      28.484  38.484  14.589  1.00  0.00    -0.343 N 
HETATM   16  O1  UNL     1      30.579  38.303  15.468  1.00  0.00    -0.247 OA
ATOM     17  H1  UNL     1      27.900  38.434  13.754  1.00  0.00     0.164 HD
ATOM     18  H2  UNL     1      29.879  38.007  12.346  1.00  0.00     0.164 HD
BRANCH  15  19
HETATM   19  C6  UNL     1      27.850  38.761  15.822  1.00  0.00     0.124 C 
BRANCH  19  20
HETATM   20  C5  UNL     1      27.415  40.216  15.963  1.00  0.00     0.020 C 
BRANCH  20  21
HETATM   21  C4  UNL     1      28.553  41.097  16.369  1.00  0.00     0.002 C 
BRANCH  21  22
HETATM   22  C3  UNL     1      28.533  42.376  15.594  1.00  0.00    -0.000 C 
BRANCH  22  23
HETATM   23  C2  UNL     1      28.789  42.058  14.123  1.00  0.00    -0.005 C 
HETATM   24  C1  UNL     1      27.849  42.858  13.254  1.00  0.00     0.005 C 
ENDBRANCH  22  23
ENDBRANCH  21  22
ENDBRANCH  20  21
ENDBRANCH  19  20
ENDBRANCH  15  19
ENDBRANCH  12  13
ENDBRANCH   9  12
ENDBRANCH   5   6
ENDBRANCH   1   5
BRANCH   3  25
HETATM   25  C15 UNL     1      33.334  29.875  10.079  1.00  0.00     0.036 A 
HETATM   26  C16 UNL     1      33.958  28.720   9.701  1.00  0.00     0.034 A 
HETATM   27  C17 UNL     1      33.231  27.798   8.962  1.00  0.00     0.090 A 
HETATM   28  N4  UNL     1      31.980  28.032   8.635  1.00  0.00    -0.352 N 
HETATM   29  C18 UNL     1      31.314  29.147   8.973  1.00  0.00     0.115 A 
ATOM     30  H4  UNL     1      31.485  27.323   8.092  1.00  0.00     0.166 HD
HETATM   31  C25 UNL     1      32.010  30.071   9.705  1.00  0.00     0.066 A 
BRANCH  29  32
HETATM   32  N5  UNL     1      29.972  29.347   8.612  1.00  0.00    -0.270 N 
ATOM     33  H5  UNL     1      29.816  29.939   7.797  1.00  0.00     0.180 HD
BRANCH  32  34
HETATM   34  S1  UNL     1      28.565  28.727   9.361  1.00  0.00     0.236 S 
HETATM   35  O3  UNL     1      28.974  27.395  10.063  1.00  0.00    -0.205 OA
HETATM   36  O4  UNL     1      27.482  28.383   8.369  1.00  0.00    -0.205 OA
BRANCH  34  37
HETATM   37  C19 UNL     1      27.936  29.773  10.616  1.00  0.00     0.129 C 
HETATM   38  C20 UNL     1      28.619  29.717  11.910  1.00  0.00     0.022 C 
HETATM   39  C21 UNL     1      28.030  30.814  12.845  1.00  0.00     0.001 C 
HETATM   40  C22 UNL     1      28.543  32.153  12.362  1.00  0.00     0.000 C 
HETATM   41  C23 UNL     1      28.982  32.054  10.894  1.00  0.00     0.001 C 
HETATM   42  C24 UNL     1      27.997  31.235  10.071  1.00  0.00     0.022 C 
ENDBRANCH  34  37
ENDBRANCH  32  34
ENDBRANCH  29  32
ENDBRANCH   3  25
TORSDOF 13
ENDMDL
