MODEL 1
REMARK VINA RESULT: -8.350083882      0.000      0.000
REMARK  14 active torsions:
REMARK  status: ('A' for Active; 'I' for Inactive)
REMARK    1  A    between atoms: C2_2  and  C3_3 
REMARK    2  A    between atoms: C6_6  and  C7_7 
REMARK       I    between atoms: C7_7  and  N1_9 
REMARK    3  A    between atoms: N1_9  and  C8_11 
REMARK    4  A    between atoms: C8_11  and  C9_12 
REMARK    5  A    between atoms: C8_11  and  C16_19 
REMARK    6  A    between atoms: C9_12  and  C10_13 
REMARK       I    between atoms: C16_19  and  N2_21 
REMARK    7  A    between atoms: N2_21  and  C17_23 
REMARK    8  A    between atoms: C17_23  and  C18_24 
REMARK    9  A    between atoms: C17_23  and  C27_37 
REMARK   10  A    between atoms: C19_25  and  C20_26 
REMARK   11  A    between atoms: C20_26  and  C21_27 
REMARK   12  A    between atoms: C21_27  and  N3_28 
REMARK       I    between atoms: N3_28  and  C22_30 
REMARK   13  A    between atoms: C22_30  and  O4_32 
REMARK   14  A    between atoms: O4_32  and  C23_33 
ROOT
HETATM    1  C16 UNL     1      31.534  34.177  12.313  1.00  0.00     0.241 C 
HETATM    2  O2  UNL     1      31.187  34.543  11.168  1.00  0.00    -0.271 OA
HETATM    3  N2  UNL     1      31.207  32.875  12.739  1.00  0.00    -0.342 N 
ATOM      4  H2  UNL     1      31.489  32.560  13.666  1.00  0.00     0.163 HD
ENDROOT
BRANCH   1   5
HETATM    5  C8  UNL     1      32.291  35.103  13.224  1.00  0.00     0.177 C 
BRANCH   5   6
HETATM    6  N1  UNL     1      31.309  35.658  14.139  1.00  0.00    -0.347 N 
HETATM    7  C7  UNL     1      30.801  36.960  13.974  1.00  0.00     0.222 C 
HETATM    8  O1  UNL     1      31.223  37.643  13.001  1.00  0.00    -0.273 OA
ATOM      9  H1  UNL     1      30.979  35.090  14.920  1.00  0.00     0.163 HD
BRANCH   7  10
HETATM   10  C6  UNL     1      29.810  37.531  14.889  1.00  0.00     0.078 C 
HETATM   11  C5  UNL     1      28.921  38.518  14.167  1.00  0.00     0.014 C 
HETATM   12  C4  UNL     1      27.847  38.941  15.164  1.00  0.00     0.005 C 
HETATM   13  C3  UNL     1      28.465  39.672  16.328  1.00  0.00    -0.015 C 
HETATM   14  C29 UNL     1      29.974  39.642  16.264  1.00  0.00     0.005 C 
HETATM   15  C28 UNL     1      30.533  38.298  15.986  1.00  0.00     0.014 C 
BRANCH  13  16
HETATM   16  C2  UNL     1      27.917  41.064  16.452  1.00  0.00     0.000 C 
HETATM   17  C1  UNL     1      28.759  41.959  15.562  1.00  0.00     0.005 C 
ENDBRANCH  13  16
ENDBRANCH   7  10
ENDBRANCH   5   6
BRANCH   5  18
HETATM   18  C9  UNL     1      33.231  34.277  14.067  1.00  0.00     0.039 C 
BRANCH  18  19
HETATM   19  C10 UNL     1      34.146  35.077  14.938  1.00  0.00    -0.012 C 
HETATM   20  C11 UNL     1      34.695  34.123  15.989  1.00  0.00     0.005 C 
HETATM   21  C12 UNL     1      36.168  33.861  15.755  1.00  0.00     0.000 C 
HETATM   22  C13 UNL     1      36.883  35.188  15.980  1.00  0.00     0.000 C 
HETATM   23  C14 UNL     1      36.378  36.208  15.009  1.00  0.00     0.000 C 
HETATM   24  C15 UNL     1      35.252  35.736  14.145  1.00  0.00     0.005 C 
ENDBRANCH  18  19
ENDBRANCH   5  18
ENDBRANCH   1   5
BRANCH   3  25
HETATM   25  C17 UNL     1      30.439  31.937  11.826  1.00  0.00     0.208 C 
BRANCH  25  26
HETATM   26  C18 UNL     1      29.737  31.033  12.732  1.00  0.00     0.005 C 
HETATM   27  C19 UNL     1      28.528  30.312  12.483  1.00  0.00    -0.026 C 
BRANCH  27  28
HETATM   28  C20 UNL     1      28.248  29.542  11.257  1.00  0.00     0.046 C 
BRANCH  28  29
HETATM   29  C21 UNL     1      27.656  30.383  10.146  1.00  0.00     0.128 C 
BRANCH  29  30
HETATM   30  N3  UNL     1      28.634  30.383   9.048  1.00  0.00    -0.337 N 
HETATM   31  C22 UNL     1      28.343  29.754   7.840  1.00  0.00     0.361 C 
HETATM   32  O3  UNL     1      27.278  29.159   7.636  1.00  0.00    -0.238 OA
ATOM     33  H3  UNL     1      29.534  30.847   9.173  1.00  0.00     0.164 HD
BRANCH  31  34
HETATM   34  O4  UNL     1      29.241  29.755   6.759  1.00  0.00    -0.294 OA
BRANCH  34  35
HETATM   35  C23 UNL     1      30.096  28.656   6.509  1.00  0.00     0.061 C 
HETATM   36  C24 UNL     1      30.585  27.981   7.764  1.00  0.00     0.046 C 
HETATM   37  C25 UNL     1      31.335  29.242   5.820  1.00  0.00     0.046 C 
HETATM   38  C26 UNL     1      29.483  27.683   5.537  1.00  0.00     0.046 C 
ENDBRANCH  34  35
ENDBRANCH  31  34
ENDBRANCH  29  30
ENDBRANCH  28  29
ENDBRANCH  27  28
ENDBRANCH  25  26
BRANCH  25  39
HETATM   39  C27 UNL     1      31.653  31.167  11.293  1.00  0.00     0.200 C 
HETATM   40  O5  UNL     1      31.580  30.657  10.140  1.00  0.00    -0.646 OA
HETATM   41  O6  UNL     1      32.790  30.999  11.995  1.00  0.00    -0.646 OA
ENDBRANCH  25  39
ENDBRANCH   3  25
TORSDOF 14
ENDMDL
MODEL 2
REMARK VINA RESULT: -8.280106053      0.925      1.181
REMARK  14 active torsions:
REMARK  status: ('A' for Active; 'I' for Inactive)
REMARK    1  A    between atoms: C2_2  and  C3_3 
REMARK    2  A    between atoms: C6_6  and  C7_7 
REMARK       I    between atoms: C7_7  and  N1_9 
REMARK    3  A    between atoms: N1_9  and  C8_11 
REMARK    4  A    between atoms: C8_11  and  C9_12 
REMARK    5  A    between atoms: C8_11  and  C16_19 
REMARK    6  A    between atoms: C9_12  and  C10_13 
REMARK       I    between atoms: C16_19  and  N2_21 
REMARK    7  A    between atoms: N2_21  and  C17_23 
REMARK    8  A    between atoms: C17_23  and  C18_24 
REMARK    9  A    between atoms: C17_23  and  C27_37 
REMARK   10  A    between atoms: C19_25  and  C20_26 
REMARK   11  A    between atoms: C20_26  and  C21_27 
REMARK   12  A    between atoms: C21_27  and  N3_28 
REMARK       I    between atoms: N3_28  and  C22_30 
REMARK   13  A    between atoms: C22_30  and  O4_32 
REMARK   14  A    between atoms: O4_32  and  C23_33 
ROOT
HETATM    1  C16 UNL     1      31.610  34.218  12.544  1.00  0.00     0.241 C 
HETATM    2  O2  UNL     1      31.197  34.642  11.442  1.00  0.00    -0.271 OA
HETATM    3  N2  UNL     1      31.367  32.874  12.891  1.00  0.00    -0.342 N 
ATOM      4  H2  UNL     1      31.703  32.512  13.782  1.00  0.00     0.163 HD
ENDROOT
BRANCH   1   5
HETATM    5  C8  UNL     1      32.359  35.118  13.487  1.00  0.00     0.177 C 
BRANCH   5   6
HETATM    6  N1  UNL     1      31.358  35.707  14.360  1.00  0.00    -0.347 N 
HETATM    7  C7  UNL     1      30.822  36.984  14.108  1.00  0.00     0.222 C 
HETATM    8  O1  UNL     1      31.234  37.613  13.095  1.00  0.00    -0.273 OA
ATOM      9  H1  UNL     1      31.036  35.184  15.174  1.00  0.00     0.163 HD
BRANCH   7  10
HETATM   10  C6  UNL     1      29.812  37.589  14.980  1.00  0.00     0.078 C 
HETATM   11  C5  UNL     1      28.973  38.588  14.214  1.00  0.00     0.014 C 
HETATM   12  C4  UNL     1      27.875  39.048  15.166  1.00  0.00     0.005 C 
HETATM   13  C3  UNL     1      28.466  39.779  16.344  1.00  0.00    -0.015 C 
HETATM   14  C29 UNL     1      29.976  39.712  16.336  1.00  0.00     0.005 C 
HETATM   15  C28 UNL     1      30.512  38.353  16.094  1.00  0.00     0.014 C 
BRANCH  13  16
HETATM   16  C2  UNL     1      27.948  41.184  16.431  1.00  0.00     0.000 C 
HETATM   17  C1  UNL     1      28.811  42.039  15.524  1.00  0.00     0.005 C 
ENDBRANCH  13  16
ENDBRANCH   7  10
ENDBRANCH   5   6
BRANCH   5  18
HETATM   18  C9  UNL     1      33.233  34.262  14.369  1.00  0.00     0.039 C 
BRANCH  18  19
HETATM   19  C10 UNL     1      34.698  34.539  14.246  1.00  0.00    -0.012 C 
HETATM   20  C11 UNL     1      35.267  33.479  13.314  1.00  0.00     0.005 C 
HETATM   21  C12 UNL     1      35.677  34.096  11.993  1.00  0.00     0.000 C 
HETATM   22  C13 UNL     1      36.828  35.046  12.299  1.00  0.00     0.000 C 
HETATM   23  C14 UNL     1      36.371  36.110  13.247  1.00  0.00     0.000 C 
HETATM   24  C15 UNL     1      34.969  35.937  13.740  1.00  0.00     0.005 C 
ENDBRANCH  18  19
ENDBRANCH   5  18
ENDBRANCH   1   5
BRANCH   3  25
HETATM   25  C17 UNL     1      30.607  31.961  11.946  1.00  0.00     0.208 C 
BRANCH  25  26
HETATM   26  C18 UNL     1      29.931  31.007  12.818  1.00  0.00     0.005 C 
HETATM   27  C19 UNL     1      28.575  30.562  12.742  1.00  0.00    -0.026 C 
BRANCH  27  28
HETATM   28  C20 UNL     1      27.902  30.133  11.501  1.00  0.00     0.046 C 
BRANCH  28  29
HETATM   29  C21 UNL     1      28.504  28.883  10.897  1.00  0.00     0.128 C 
BRANCH  29  30
HETATM   30  N3  UNL     1      29.204  29.300   9.673  1.00  0.00    -0.337 N 
HETATM   31  C22 UNL     1      28.525  29.377   8.459  1.00  0.00     0.361 C 
HETATM   32  O3  UNL     1      27.329  29.085   8.343  1.00  0.00    -0.238 OA
ATOM     33  H3  UNL     1      30.196  29.536   9.713  1.00  0.00     0.164 HD
BRANCH  31  34
HETATM   34  O4  UNL     1      29.154  29.796   7.274  1.00  0.00    -0.294 OA
BRANCH  34  35
HETATM   35  C23 UNL     1      29.984  28.924   6.531  1.00  0.00     0.061 C 
HETATM   36  C24 UNL     1      31.374  28.795   7.097  1.00  0.00     0.046 C 
HETATM   37  C25 UNL     1      30.137  29.574   5.149  1.00  0.00     0.046 C 
HETATM   38  C26 UNL     1      29.330  27.587   6.307  1.00  0.00     0.046 C 
ENDBRANCH  34  35
ENDBRANCH  31  34
ENDBRANCH  29  30
ENDBRANCH  28  29
ENDBRANCH  27  28
ENDBRANCH  25  26
BRANCH  25  39
HETATM   39  C27 UNL     1      31.831  31.238  11.370  1.00  0.00     0.200 C 
HETATM   40  O5  UNL     1      31.767  30.803  10.187  1.00  0.00    -0.646 OA
HETATM   41  O6  UNL     1      32.966  31.035  12.065  1.00  0.00    -0.646 OA
ENDBRANCH  25  39
ENDBRANCH   3  25
TORSDOF 14
ENDMDL
MODEL 3
REMARK VINA RESULT: -8.149651833      1.044      1.303
REMARK  14 active torsions:
REMARK  status: ('A' for Active; 'I' for Inactive)
REMARK    1  A    between atoms: C2_2  and  C3_3 
REMARK    2  A    between atoms: C6_6  and  C7_7 
REMARK       I    between atoms: C7_7  and  N1_9 
REMARK    3  A    between atoms: N1_9  and  C8_11 
REMARK    4  A    between atoms: C8_11  and  C9_12 
REMARK    5  A    between atoms: C8_11  and  C16_19 
REMARK    6  A    between atoms: C9_12  and  C10_13 
REMARK       I    between atoms: C16_19  and  N2_21 
REMARK    7  A    between atoms: N2_21  and  C17_23 
REMARK    8  A    between atoms: C17_23  and  C18_24 
REMARK    9  A    between atoms: C17_23  and  C27_37 
REMARK   10  A    between atoms: C19_25  and  C20_26 
REMARK   11  A    between atoms: C20_26  and  C21_27 
REMARK   12  A    between atoms: C21_27  and  N3_28 
REMARK       I    between atoms: N3_28  and  C22_30 
REMARK   13  A    between atoms: C22_30  and  O4_32 
REMARK   14  A    between atoms: O4_32  and  C23_33 
ROOT
HETATM    1  C16 UNL     1      31.557  34.252  12.076  1.00  0.00     0.241 C 
HETATM    2  O2  UNL     1      31.193  34.566  10.921  1.00  0.00    -0.271 OA
HETATM    3  N2  UNL     1      31.196  32.989  12.584  1.00  0.00    -0.342 N 
ATOM      4  H2  UNL     1      31.490  32.716  13.521  1.00  0.00     0.163 HD
ENDROOT
BRANCH   1   5
HETATM    5  C8  UNL     1      32.371  35.199  12.914  1.00  0.00     0.177 C 
BRANCH   5   6
HETATM    6  N1  UNL     1      31.463  35.731  13.916  1.00  0.00    -0.347 N 
HETATM    7  C7  UNL     1      30.957  37.041  13.829  1.00  0.00     0.222 C 
HETATM    8  O1  UNL     1      31.312  37.752  12.850  1.00  0.00    -0.273 OA
ATOM      9  H1  UNL     1      31.186  35.140  14.700  1.00  0.00     0.163 HD
BRANCH   7  10
HETATM   10  C6  UNL     1      30.040  37.588  14.833  1.00  0.00     0.078 C 
HETATM   11  C5  UNL     1      28.991  38.461  14.180  1.00  0.00     0.014 C 
HETATM   12  C4  UNL     1      28.015  38.860  15.281  1.00  0.00     0.005 C 
HETATM   13  C3  UNL     1      28.707  39.703  16.321  1.00  0.00    -0.015 C 
HETATM   14  C29 UNL     1      30.195  39.783  16.070  1.00  0.00     0.005 C 
HETATM   15  C28 UNL     1      30.825  38.472  15.791  1.00  0.00     0.014 C 
BRANCH  13  16
HETATM   16  C2  UNL     1      28.066  41.054  16.444  1.00  0.00     0.000 C 
HETATM   17  C1  UNL     1      28.799  41.987  15.499  1.00  0.00     0.005 C 
ENDBRANCH  13  16
ENDBRANCH   7  10
ENDBRANCH   5   6
BRANCH   5  18
HETATM   18  C9  UNL     1      33.406  34.399  13.667  1.00  0.00     0.039 C 
BRANCH  18  19
HETATM   19  C10 UNL     1      34.208  35.193  14.648  1.00  0.00    -0.012 C 
HETATM   20  C11 UNL     1      34.594  34.241  15.771  1.00  0.00     0.005 C 
HETATM   21  C12 UNL     1      36.080  33.953  15.739  1.00  0.00     0.000 C 
HETATM   22  C13 UNL     1      36.781  35.271  16.049  1.00  0.00     0.000 C 
HETATM   23  C14 UNL     1      36.428  36.290  15.011  1.00  0.00     0.000 C 
HETATM   24  C15 UNL     1      35.422  35.826  14.006  1.00  0.00     0.005 C 
ENDBRANCH  18  19
ENDBRANCH   5  18
ENDBRANCH   1   5
BRANCH   3  25
HETATM   25  C17 UNL     1      30.370  32.030  11.746  1.00  0.00     0.208 C 
BRANCH  25  26
HETATM   26  C18 UNL     1      29.634  31.228  12.718  1.00  0.00     0.005 C 
HETATM   27  C19 UNL     1      28.335  30.652  12.571  1.00  0.00    -0.026 C 
BRANCH  27  28
HETATM   28  C20 UNL     1      27.880  29.902  11.384  1.00  0.00     0.046 C 
BRANCH  28  29
HETATM   29  C21 UNL     1      28.678  28.641  11.133  1.00  0.00     0.128 C 
BRANCH  29  30
HETATM   30  N3  UNL     1      29.123  28.695   9.733  1.00  0.00    -0.337 N 
HETATM   31  C22 UNL     1      29.548  27.541   9.079  1.00  0.00     0.361 C 
HETATM   32  O3  UNL     1      29.594  26.437   9.635  1.00  0.00    -0.238 OA
ATOM     33  H3  UNL     1      29.120  29.585   9.235  1.00  0.00     0.164 HD
BRANCH  31  34
HETATM   34  O4  UNL     1      29.955  27.547   7.734  1.00  0.00    -0.294 OA
BRANCH  34  35
HETATM   35  C23 UNL     1      29.072  27.930   6.698  1.00  0.00     0.061 C 
HETATM   36  C24 UNL     1      27.624  27.659   7.015  1.00  0.00     0.046 C 
HETATM   37  C25 UNL     1      29.427  27.040   5.500  1.00  0.00     0.046 C 
HETATM   38  C26 UNL     1      29.306  29.351   6.261  1.00  0.00     0.046 C 
ENDBRANCH  34  35
ENDBRANCH  31  34
ENDBRANCH  29  30
ENDBRANCH  28  29
ENDBRANCH  27  28
ENDBRANCH  25  26
BRANCH  25  39
HETATM   39  C27 UNL     1      31.538  31.164  11.258  1.00  0.00     0.200 C 
HETATM   40  O5  UNL     1      31.434  30.595  10.136  1.00  0.00    -0.646 OA
HETATM   41  O6  UNL     1      32.665  30.972  11.969  1.00  0.00    -0.646 OA
ENDBRANCH  25  39
ENDBRANCH   3  25
TORSDOF 14
ENDMDL
MODEL 4
REMARK VINA RESULT: -8.079830409      1.685      2.442
REMARK  14 active torsions:
REMARK  status: ('A' for Active; 'I' for Inactive)
REMARK    1  A    between atoms: C2_2  and  C3_3 
REMARK    2  A    between atoms: C6_6  and  C7_7 
REMARK       I    between atoms: C7_7  and  N1_9 
REMARK    3  A    between atoms: N1_9  and  C8_11 
REMARK    4  A    between atoms: C8_11  and  C9_12 
REMARK    5  A    between atoms: C8_11  and  C16_19 
REMARK    6  A    between atoms: C9_12  and  C10_13 
REMARK       I    between atoms: C16_19  and  N2_21 
REMARK    7  A    between atoms: N2_21  and  C17_23 
REMARK    8  A    between atoms: C17_23  and  C18_24 
REMARK    9  A    between atoms: C17_23  and  C27_37 
REMARK   10  A    between atoms: C19_25  and  C20_26 
REMARK   11  A    between atoms: C20_26  and  C21_27 
REMARK   12  A    between atoms: C21_27  and  N3_28 
REMARK       I    between atoms: N3_28  and  C22_30 
REMARK   13  A    between atoms: C22_30  and  O4_32 
REMARK   14  A    between atoms: O4_32  and  C23_33 
ROOT
HETATM    1  C16 UNL     1      32.733  34.772  12.627  1.00  0.00     0.241 C 
HETATM    2  O2  UNL     1      31.779  34.861  11.822  1.00  0.00    -0.271 OA
HETATM    3  N2  UNL     1      33.459  33.567  12.691  1.00  0.00    -0.342 N 
ATOM      4  H2  UNL     1      34.242  33.482  13.338  1.00  0.00     0.163 HD
ENDROOT
BRANCH   1   5
HETATM    5  C8  UNL     1      33.108  35.929  13.511  1.00  0.00     0.177 C 
BRANCH   5   6
HETATM    6  N1  UNL     1      31.954  36.178  14.357  1.00  0.00    -0.347 N 
HETATM    7  C7  UNL     1      31.034  37.202  14.065  1.00  0.00     0.222 C 
HETATM    8  O1  UNL     1      31.235  37.907  13.038  1.00  0.00    -0.273 OA
ATOM      9  H1  UNL     1      31.806  35.598  15.183  1.00  0.00     0.163 HD
BRANCH   7  10
HETATM   10  C6  UNL     1      29.866  37.463  14.910  1.00  0.00     0.078 C 
HETATM   11  C5  UNL     1      28.911  38.414  14.224  1.00  0.00     0.014 C 
HETATM   12  C4  UNL     1      27.678  38.506  15.117  1.00  0.00     0.005 C 
HETATM   13  C3  UNL     1      28.032  39.118  16.447  1.00  0.00    -0.015 C 
HETATM   14  C29 UNL     1      29.522  39.321  16.585  1.00  0.00     0.005 C 
HETATM   15  C28 UNL     1      30.324  38.138  16.195  1.00  0.00     0.014 C 
BRANCH  13  16
HETATM   16  C2  UNL     1      27.250  40.375  16.695  1.00  0.00     0.000 C 
HETATM   17  C1  UNL     1      28.207  41.540  16.530  1.00  0.00     0.005 C 
ENDBRANCH  13  16
ENDBRANCH   7  10
ENDBRANCH   5   6
BRANCH   5  18
HETATM   18  C9  UNL     1      34.216  35.484  14.433  1.00  0.00     0.039 C 
BRANCH  18  19
HETATM   19  C10 UNL     1      35.468  36.296  14.334  1.00  0.00    -0.012 C 
HETATM   20  C11 UNL     1      36.492  35.437  13.607  1.00  0.00     0.005 C 
HETATM   21  C12 UNL     1      36.768  35.991  12.225  1.00  0.00     0.000 C 
HETATM   22  C13 UNL     1      37.431  37.348  12.430  1.00  0.00     0.000 C 
HETATM   23  C14 UNL     1      36.507  38.258  13.177  1.00  0.00     0.000 C 
HETATM   24  C15 UNL     1      35.234  37.612  13.627  1.00  0.00     0.005 C 
ENDBRANCH  18  19
ENDBRANCH   5  18
ENDBRANCH   1   5
BRANCH   3  25
HETATM   25  C17 UNL     1      33.083  32.394  11.805  1.00  0.00     0.208 C 
BRANCH  25  26
HETATM   26  C18 UNL     1      32.486  31.420  12.714  1.00  0.00     0.005 C 
HETATM   27  C19 UNL     1      31.254  31.533  13.429  1.00  0.00    -0.026 C 
BRANCH  27  28
HETATM   28  C20 UNL     1      29.980  31.986  12.839  1.00  0.00     0.046 C 
BRANCH  28  29
HETATM   29  C21 UNL     1      28.965  30.874  12.685  1.00  0.00     0.128 C 
BRANCH  29  30
HETATM   30  N3  UNL     1      29.387  30.072  11.527  1.00  0.00    -0.337 N 
HETATM   31  C22 UNL     1      29.132  30.511  10.231  1.00  0.00     0.361 C 
HETATM   32  O3  UNL     1      28.532  31.565   9.988  1.00  0.00    -0.238 OA
ATOM     33  H3  UNL     1      29.872  29.187  11.675  1.00  0.00     0.164 HD
BRANCH  31  34
HETATM   34  O4  UNL     1      29.543  29.786   9.099  1.00  0.00    -0.294 OA
BRANCH  34  35
HETATM   35  C23 UNL     1      28.623  29.039   8.327  1.00  0.00     0.061 C 
HETATM   36  C24 UNL     1      27.506  28.440   9.142  1.00  0.00     0.046 C 
HETATM   37  C25 UNL     1      29.422  27.860   7.755  1.00  0.00     0.046 C 
HETATM   38  C26 UNL     1      28.115  29.825   7.148  1.00  0.00     0.046 C 
ENDBRANCH  34  35
ENDBRANCH  31  34
ENDBRANCH  29  30
ENDBRANCH  28  29
ENDBRANCH  27  28
ENDBRANCH  25  26
BRANCH  25  39
HETATM   39  C27 UNL     1      34.511  31.913  11.525  1.00  0.00     0.200 C 
HETATM   40  O5  UNL     1      35.467  32.505  12.098  1.00  0.00    -0.646 OA
HETATM   41  O6  UNL     1      34.799  30.896  10.690  1.00  0.00    -0.646 OA
ENDBRANCH  25  39
ENDBRANCH   3  25
TORSDOF 14
ENDMDL
MODEL 5
REMARK VINA RESULT: -8.064127910      3.518      6.266
REMARK  14 active torsions:
REMARK  status: ('A' for Active; 'I' for Inactive)
REMARK    1  A    between atoms: C2_2  and  C3_3 
REMARK    2  A    between atoms: C6_6  and  C7_7 
REMARK       I    between atoms: C7_7  and  N1_9 
REMARK    3  A    between atoms: N1_9  and  C8_11 
REMARK    4  A    between atoms: C8_11  and  C9_12 
REMARK    5  A    between atoms: C8_11  and  C16_19 
REMARK    6  A    between atoms: C9_12  and  C10_13 
REMARK       I    between atoms: C16_19  and  N2_21 
REMARK    7  A    between atoms: N2_21  and  C17_23 
REMARK    8  A    between atoms: C17_23  and  C18_24 
REMARK    9  A    between atoms: C17_23  and  C27_37 
REMARK   10  A    between atoms: C19_25  and  C20_26 
REMARK   11  A    between atoms: C20_26  and  C21_27 
REMARK   12  A    between atoms: C21_27  and  N3_28 
REMARK       I    between atoms: N3_28  and  C22_30 
REMARK   13  A    between atoms: C22_30  and  O4_32 
REMARK   14  A    between atoms: O4_32  and  C23_33 
ROOT
HETATM    1  C16 UNL     1      32.677  31.362  10.726  1.00  0.00     0.241 C 
HETATM    2  O2  UNL     1      32.003  30.972   9.747  1.00  0.00    -0.271 OA
HETATM    3  N2  UNL     1      34.063  31.113  10.741  1.00  0.00    -0.342 N 
ATOM      4  H2  UNL     1      34.626  31.431  11.529  1.00  0.00     0.163 HD
ENDROOT
BRANCH   1   5
HETATM    5  C8  UNL     1      32.027  32.091  11.870  1.00  0.00     0.177 C 
BRANCH   5   6
HETATM    6  N1  UNL     1      32.989  33.089  12.307  1.00  0.00    -0.347 N 
HETATM    7  C7  UNL     1      32.990  33.582  13.625  1.00  0.00     0.222 C 
HETATM    8  O1  UNL     1      32.129  33.133  14.429  1.00  0.00    -0.273 OA
ATOM      9  H1  UNL     1      33.679  33.441  11.643  1.00  0.00     0.163 HD
BRANCH   7  10
HETATM   10  C6  UNL     1      33.954  34.588  14.078  1.00  0.00     0.078 C 
HETATM   11  C5  UNL     1      33.738  35.900  13.355  1.00  0.00     0.014 C 
HETATM   12  C4  UNL     1      34.689  36.906  13.996  1.00  0.00     0.005 C 
HETATM   13  C3  UNL     1      36.122  36.503  13.762  1.00  0.00    -0.015 C 
HETATM   14  C29 UNL     1      36.216  35.146  13.106  1.00  0.00     0.005 C 
HETATM   15  C28 UNL     1      35.360  34.116  13.739  1.00  0.00     0.014 C 
BRANCH  13  16
HETATM   16  C2  UNL     1      36.872  37.565  13.012  1.00  0.00     0.000 C 
HETATM   17  C1  UNL     1      37.492  36.902  11.797  1.00  0.00     0.005 C 
ENDBRANCH  13  16
ENDBRANCH   7  10
ENDBRANCH   5   6
BRANCH   5  18
HETATM   18  C9  UNL     1      30.842  32.856  11.336  1.00  0.00     0.039 C 
BRANCH  18  19
HETATM   19  C10 UNL     1      29.519  32.389  11.854  1.00  0.00    -0.012 C 
HETATM   20  C11 UNL     1      28.622  32.181  10.643  1.00  0.00     0.005 C 
HETATM   21  C12 UNL     1      28.352  30.707  10.425  1.00  0.00     0.000 C 
HETATM   22  C13 UNL     1      27.545  30.236  11.629  1.00  0.00     0.000 C 
HETATM   23  C14 UNL     1      28.337  30.437  12.883  1.00  0.00     0.000 C 
HETATM   24  C15 UNL     1      29.647  31.130  12.681  1.00  0.00     0.005 C 
ENDBRANCH  18  19
ENDBRANCH   5  18
ENDBRANCH   1   5
BRANCH   3  25
HETATM   25  C17 UNL     1      34.724  30.374   9.592  1.00  0.00     0.208 C 
BRANCH  25  26
HETATM   26  C18 UNL     1      34.486  28.962   9.875  1.00  0.00     0.005 C 
HETATM   27  C19 UNL     1      33.826  28.004   9.045  1.00  0.00    -0.026 C 
BRANCH  27  28
HETATM   28  C20 UNL     1      34.081  27.827   7.603  1.00  0.00     0.046 C 
BRANCH  28  29
HETATM   29  C21 UNL     1      33.165  28.656   6.729  1.00  0.00     0.128 C 
BRANCH  29  30
HETATM   30  N3  UNL     1      31.870  28.725   7.420  1.00  0.00    -0.337 N 
HETATM   31  C22 UNL     1      30.773  29.330   6.811  1.00  0.00     0.361 C 
HETATM   32  O3  UNL     1      30.833  29.848   5.690  1.00  0.00    -0.238 OA
ATOM     33  H3  UNL     1      31.774  28.327   8.354  1.00  0.00     0.164 HD
BRANCH  31  34
HETATM   34  O4  UNL     1      29.512  29.393   7.430  1.00  0.00    -0.294 OA
BRANCH  34  35
HETATM   35  C23 UNL     1      28.663  28.264   7.489  1.00  0.00     0.061 C 
HETATM   36  C24 UNL     1      28.773  27.369   6.282  1.00  0.00     0.046 C 
HETATM   37  C25 UNL     1      27.233  28.820   7.488  1.00  0.00     0.046 C 
HETATM   38  C26 UNL     1      28.829  27.508   8.780  1.00  0.00     0.046 C 
ENDBRANCH  34  35
ENDBRANCH  31  34
ENDBRANCH  29  30
ENDBRANCH  28  29
ENDBRANCH  27  28
ENDBRANCH  25  26
BRANCH  25  39
HETATM   39  C27 UNL     1      36.174  30.665  10.000  1.00  0.00     0.200 C 
HETATM   40  O5  UNL     1      36.380  31.291  11.076  1.00  0.00    -0.646 OA
HETATM   41  O6  UNL     1      37.238  30.293   9.264  1.00  0.00    -0.646 OA
ENDBRANCH  25  39
ENDBRANCH   3  25
TORSDOF 14
ENDMDL
