MODEL 1
REMARK VINA RESULT: -5.146975511      0.000      0.000
REMARK  0 active torsions:
REMARK  status: ('A' for Active; 'I' for Inactive)
ROOT
HETATM    1  C1  UNL     1      24.350  22.210  15.990  1.00  0.00     0.070 C 
HETATM    2  C2  UNL     1      24.708  23.218  14.930  1.00  0.00     0.025 A 
HETATM    3  N1  UNL     1      25.185  22.965  13.700  1.00  0.00    -0.343 N 
ATOM      4  H1  UNL     1      25.370  22.037  13.319  1.00  0.00     0.167 HD
HETATM    5  C3  UNL     1      25.381  24.134  13.045  1.00  0.00     0.134 A 
HETATM    6  N2  UNL     1      25.789  24.687  11.903  1.00  0.00    -0.285 N 
ATOM      7  H2  UNL     1      26.117  24.153  11.099  1.00  0.00     0.188 HD
HETATM    8  N3  UNL     1      25.719  26.004  11.933  1.00  0.00    -0.303 N 
ATOM      9  H3  UNL     1      25.975  26.647  11.183  1.00  0.00     0.186 HD
HETATM   10  C4  UNL     1      25.245  26.330  13.147  1.00  0.00     0.037 A 
HETATM   11  C5  UNL     1      24.999  27.695  13.635  1.00  0.00     0.070 C 
HETATM   12  C6  UNL     1      25.023  25.172  13.866  1.00  0.00     0.052 A 
HETATM   13  C7  UNL     1      24.606  24.585  15.039  1.00  0.00     0.049 A 
HETATM   14 BR1  UNL     1      23.989  25.549  16.552  1.00  0.00    -0.048 Br
ENDROOT
TORSDOF 0
ENDMDL
MODEL 2
REMARK VINA RESULT: -5.009492672      2.002      2.733
REMARK  0 active torsions:
REMARK  status: ('A' for Active; 'I' for Inactive)
ROOT
HETATM    1  C1  UNL     1      25.379  23.211  12.932  1.00  0.00     0.070 C 
HETATM    2  C2  UNL     1      25.913  24.582  12.612  1.00  0.00     0.025 A 
HETATM    3  N1  UNL     1      26.698  24.924  11.577  1.00  0.00    -0.343 N 
ATOM      4  H1  UNL     1      27.040  24.284  10.860  1.00  0.00     0.167 HD
HETATM    5  C3  UNL     1      26.964  26.250  11.633  1.00  0.00     0.134 A 
HETATM    6  N2  UNL     1      27.600  27.259  11.040  1.00  0.00    -0.285 N 
ATOM      7  H2  UNL     1      28.157  27.160  10.191  1.00  0.00     0.188 HD
HETATM    8  N3  UNL     1      27.428  28.402  11.676  1.00  0.00    -0.303 N 
ATOM      9  H3  UNL     1      27.814  29.310  11.417  1.00  0.00     0.186 HD
HETATM   10  C4  UNL     1      26.645  28.132  12.733  1.00  0.00     0.037 A 
HETATM   11  C5  UNL     1      26.184  29.107  13.733  1.00  0.00     0.070 C 
HETATM   12  C6  UNL     1      26.338  26.786  12.729  1.00  0.00     0.052 A 
HETATM   13  C7  UNL     1      25.686  25.733  13.330  1.00  0.00     0.049 A 
HETATM   14 BR1  UNL     1      24.643  25.885  14.907  1.00  0.00    -0.048 Br
ENDROOT
TORSDOF 0
ENDMDL
MODEL 3
REMARK VINA RESULT: -4.986374252      2.523      3.065
REMARK  0 active torsions:
REMARK  status: ('A' for Active; 'I' for Inactive)
ROOT
HETATM    1  C1  UNL     1      25.015  23.585  15.016  1.00  0.00     0.070 C 
HETATM    2  C2  UNL     1      25.148  24.936  14.364  1.00  0.00     0.025 A 
HETATM    3  N1  UNL     1      24.365  26.010  14.558  1.00  0.00    -0.343 N 
ATOM      4  H1  UNL     1      23.563  26.049  15.187  1.00  0.00     0.167 HD
HETATM    5  C3  UNL     1      24.807  27.033  13.790  1.00  0.00     0.134 A 
HETATM    6  N2  UNL     1      24.600  28.304  13.443  1.00  0.00    -0.285 N 
ATOM      7  H2  UNL     1      23.845  28.879  13.817  1.00  0.00     0.188 HD
HETATM    8  N3  UNL     1      25.482  28.732  12.562  1.00  0.00    -0.303 N 
ATOM      9  H3  UNL     1      25.530  29.662  12.147  1.00  0.00     0.186 HD
HETATM   10  C4  UNL     1      26.305  27.698  12.318  1.00  0.00     0.037 A 
HETATM   11  C5  UNL     1      27.450  27.710  11.395  1.00  0.00     0.070 C 
HETATM   12  C6  UNL     1      25.903  26.618  13.079  1.00  0.00     0.052 A 
HETATM   13  C7  UNL     1      26.104  25.307  13.447  1.00  0.00     0.049 A 
HETATM   14 BR1  UNL     1      27.498  24.212  12.772  1.00  0.00    -0.048 Br
ENDROOT
TORSDOF 0
ENDMDL
MODEL 4
REMARK VINA RESULT: -4.982759412      3.018      3.813
REMARK  0 active torsions:
REMARK  status: ('A' for Active; 'I' for Inactive)
ROOT
HETATM    1  C1  UNL     1      22.465  23.397  19.352  1.00  0.00     0.070 C 
HETATM    2  C2  UNL     1      23.222  23.925  18.162  1.00  0.00     0.025 A 
HETATM    3  N1  UNL     1      23.733  25.158  18.010  1.00  0.00    -0.343 N 
ATOM      4  H1  UNL     1      23.673  25.910  18.696  1.00  0.00     0.167 HD
HETATM    5  C3  UNL     1      24.342  25.246  16.804  1.00  0.00     0.134 A 
HETATM    6  N2  UNL     1      25.021  26.046  15.982  1.00  0.00    -0.285 N 
ATOM      7  H2  UNL     1      25.260  27.013  16.201  1.00  0.00     0.188 HD
HETATM    8  N3  UNL     1      25.346  25.445  14.855  1.00  0.00    -0.303 N 
ATOM      9  H3  UNL     1      25.864  25.848  14.073  1.00  0.00     0.186 HD
HETATM   10  C4  UNL     1      24.861  24.195  14.939  1.00  0.00     0.037 A 
HETATM   11  C5  UNL     1      24.985  23.153  13.908  1.00  0.00     0.070 C 
HETATM   12  C6  UNL     1      24.226  24.044  16.155  1.00  0.00     0.052 A 
HETATM   13  C7  UNL     1      23.524  23.229  17.015  1.00  0.00     0.049 A 
HETATM   14 BR1  UNL     1      23.064  21.428  16.640  1.00  0.00    -0.048 Br
ENDROOT
TORSDOF 0
ENDMDL
MODEL 5
REMARK VINA RESULT: -4.934851627      3.770      5.493
REMARK  0 active torsions:
REMARK  status: ('A' for Active; 'I' for Inactive)
ROOT
HETATM    1  C1  UNL     1      26.002  26.417  16.007  1.00  0.00     0.070 C 
HETATM    2  C2  UNL     1      25.014  25.541  16.730  1.00  0.00     0.025 A 
HETATM    3  N1  UNL     1      24.444  25.775  17.924  1.00  0.00    -0.343 N 
ATOM      4  H1  UNL     1      24.613  26.596  18.506  1.00  0.00     0.167 HD
HETATM    5  C3  UNL     1      23.613  24.754  18.234  1.00  0.00     0.134 A 
HETATM    6  N2  UNL     1      22.764  24.278  19.145  1.00  0.00    -0.285 N 
ATOM      7  H2  UNL     1      22.541  24.756  20.018  1.00  0.00     0.188 HD
HETATM    8  N3  UNL     1      22.246  23.119  18.789  1.00  0.00    -0.303 N 
ATOM      9  H3  UNL     1      21.575  22.560  19.317  1.00  0.00     0.186 HD
HETATM   10  C4  UNL     1      22.776  22.820  17.592  1.00  0.00     0.037 A 
HETATM   11  C5  UNL     1      22.488  21.613  16.801  1.00  0.00     0.070 C 
HETATM   12  C6  UNL     1      23.639  23.832  17.220  1.00  0.00     0.052 A 
HETATM   13  C7  UNL     1      24.518  24.336  16.288  1.00  0.00     0.049 A 
HETATM   14 BR1  UNL     1      24.953  23.474  14.656  1.00  0.00    -0.048 Br
ENDROOT
TORSDOF 0
ENDMDL
