MODEL 1
REMARK VINA RESULT: -7.183888307      0.000      0.000
REMARK  2 active torsions:
REMARK  status: ('A' for Active; 'I' for Inactive)
REMARK    1  A    between atoms: C2_5  and  C3_6 
REMARK    2  A    between atoms: C13_17  and  O1_18 
ROOT
HETATM    1  N1  UNL     1      20.965  23.213  16.875  1.00  0.00    -0.399 N 
ATOM      2  H11 UNL     1      19.966  23.415  16.925  1.00  0.00     0.156 HD
ATOM      3  H12 UNL     1      21.674  23.939  16.966  1.00  0.00     0.156 HD
HETATM    4  C1  UNL     1      21.436  22.051  16.648  1.00  0.00     0.049 A 
HETATM    5  C2  UNL     1      22.845  21.766  16.578  1.00  0.00     0.028 A 
HETATM    6  C10 UNL     1      23.220  20.451  16.442  1.00  0.00     0.016 A 
HETATM    7  C11 UNL     1      22.214  19.419  16.361  1.00  0.00    -0.000 A 
HETATM    8  C12 UNL     1      20.924  19.645  16.397  1.00  0.00     0.011 A 
HETATM    9  C13 UNL     1      20.410  20.999  16.517  1.00  0.00     0.191 A 
ENDROOT
BRANCH   5  10
HETATM   10  C3  UNL     1      23.899  22.742  16.681  1.00  0.00     0.131 C 
HETATM   11  F1  UNL     1      23.899  23.316  18.026  1.00  0.00    -0.205 F 
HETATM   12  C4  UNL     1      24.809  23.250  15.953  1.00  0.00    -0.040 C 
HETATM   13  C5  UNL     1      25.360  23.182  14.610  1.00  0.00     0.037 C 
HETATM   14  C9  UNL     1      25.592  24.418  16.710  1.00  0.00     0.037 C 
HETATM   15  C6  UNL     1      25.019  24.447  13.812  1.00  0.00     0.004 C 
HETATM   16  C7  UNL     1      25.426  25.673  14.611  1.00  0.00     0.001 C 
HETATM   17  C8  UNL     1      25.001  25.633  16.040  1.00  0.00     0.004 C 
ENDBRANCH   5  10
BRANCH   9  18
HETATM   18  O1  UNL     1      19.548  21.292  15.446  1.00  0.00    -0.386 OA
ATOM     19  H1  UNL     1      19.812  22.100  15.023  1.00  0.00     0.210 HD
ENDBRANCH   9  18
TORSDOF 2
ENDMDL
MODEL 2
REMARK VINA RESULT: -7.010402009      3.800      6.379
REMARK  2 active torsions:
REMARK  status: ('A' for Active; 'I' for Inactive)
REMARK    1  A    between atoms: C2_5  and  C3_6 
REMARK    2  A    between atoms: C13_17  and  O1_18 
ROOT
HETATM    1  N1  UNL     1      27.520  24.416  13.442  1.00  0.00    -0.399 N 
ATOM      2  H11 UNL     1      28.389  24.399  12.908  1.00  0.00     0.156 HD
ATOM      3  H12 UNL     1      27.246  23.656  14.065  1.00  0.00     0.156 HD
HETATM    4  C1  UNL     1      26.661  25.353  13.358  1.00  0.00     0.049 A 
HETATM    5  C2  UNL     1      25.435  25.377  14.111  1.00  0.00     0.028 A 
HETATM    6  C10 UNL     1      24.651  26.501  14.013  1.00  0.00     0.016 A 
HETATM    7  C11 UNL     1      25.064  27.596  13.168  1.00  0.00    -0.000 A 
HETATM    8  C12 UNL     1      26.160  27.597  12.450  1.00  0.00     0.011 A 
HETATM    9  C13 UNL     1      27.056  26.453  12.457  1.00  0.00     0.191 A 
ENDROOT
BRANCH   5  10
HETATM   10  C3  UNL     1      24.979  24.334  14.994  1.00  0.00     0.131 C 
HETATM   11  F1  UNL     1      24.491  23.206  14.201  1.00  0.00    -0.205 F 
HETATM   12  C4  UNL     1      24.869  24.114  16.241  1.00  0.00    -0.040 C 
HETATM   13  C5  UNL     1      25.122  24.734  17.531  1.00  0.00     0.037 C 
HETATM   14  C9  UNL     1      24.144  22.722  16.538  1.00  0.00     0.037 C 
HETATM   15  C6  UNL     1      23.807  25.130  18.217  1.00  0.00     0.004 C 
HETATM   16  C7  UNL     1      22.877  23.930  18.254  1.00  0.00     0.001 C 
HETATM   17  C8  UNL     1      22.776  23.202  16.956  1.00  0.00     0.004 C 
ENDBRANCH   5  10
BRANCH   9  18
HETATM   18  O1  UNL     1      27.241  25.968  11.151  1.00  0.00    -0.386 OA
ATOM     19  H1  UNL     1      26.944  26.611  10.517  1.00  0.00     0.210 HD
ENDBRANCH   9  18
TORSDOF 2
ENDMDL
MODEL 3
REMARK VINA RESULT: -6.796112851      2.967      3.865
REMARK  2 active torsions:
REMARK  status: ('A' for Active; 'I' for Inactive)
REMARK    1  A    between atoms: C2_5  and  C3_6 
REMARK    2  A    between atoms: C13_17  and  O1_18 
ROOT
HETATM    1  N1  UNL     1      24.954  25.989  17.593  1.00  0.00    -0.399 N 
ATOM      2  H11 UNL     1      25.042  26.643  18.372  1.00  0.00     0.156 HD
ATOM      3  H12 UNL     1      25.497  26.086  16.735  1.00  0.00     0.156 HD
HETATM    4  C1  UNL     1      24.132  25.017  17.581  1.00  0.00     0.049 A 
HETATM    5  C2  UNL     1      24.009  24.095  16.483  1.00  0.00     0.028 A 
HETATM    6  C10 UNL     1      23.164  23.023  16.646  1.00  0.00     0.016 A 
HETATM    7  C11 UNL     1      22.432  22.863  17.880  1.00  0.00    -0.000 A 
HETATM    8  C12 UNL     1      22.502  23.695  18.889  1.00  0.00     0.011 A 
HETATM    9  C13 UNL     1      23.345  24.877  18.822  1.00  0.00     0.191 A 
ENDROOT
BRANCH   5  10
HETATM   10  C3  UNL     1      24.730  24.179  15.239  1.00  0.00     0.131 C 
HETATM   11  F1  UNL     1      25.355  22.887  14.952  1.00  0.00    -0.205 F 
HETATM   12  C4  UNL     1      24.986  25.035  14.336  1.00  0.00    -0.040 C 
HETATM   13  C5  UNL     1      24.732  26.421  13.979  1.00  0.00     0.037 C 
HETATM   14  C9  UNL     1      25.986  24.456  13.234  1.00  0.00     0.037 C 
HETATM   15  C6  UNL     1      26.000  27.270  14.134  1.00  0.00     0.004 C 
HETATM   16  C7  UNL     1      27.143  26.613  13.379  1.00  0.00     0.001 C 
HETATM   17  C8  UNL     1      27.268  25.147  13.627  1.00  0.00     0.004 C 
ENDBRANCH   5  10
BRANCH   9  18
HETATM   18  O1  UNL     1      22.583  26.036  19.047  1.00  0.00    -0.386 OA
ATOM     19  H1  UNL     1      21.977  26.175  18.329  1.00  0.00     0.210 HD
ENDBRANCH   9  18
TORSDOF 2
ENDMDL
MODEL 4
REMARK VINA RESULT: -6.706329520      2.862      5.332
REMARK  2 active torsions:
REMARK  status: ('A' for Active; 'I' for Inactive)
REMARK    1  A    between atoms: C2_5  and  C3_6 
REMARK    2  A    between atoms: C13_17  and  O1_18 
ROOT
HETATM    1  N1  UNL     1      25.160  22.809  15.027  1.00  0.00    -0.399 N 
ATOM      2  H11 UNL     1      25.502  21.938  14.618  1.00  0.00     0.156 HD
ATOM      3  H12 UNL     1      24.784  22.857  15.973  1.00  0.00     0.156 HD
HETATM    4  C1  UNL     1      25.118  23.914  14.394  1.00  0.00     0.049 A 
HETATM    5  C2  UNL     1      24.636  25.141  14.971  1.00  0.00     0.028 A 
HETATM    6  C10 UNL     1      24.752  26.285  14.218  1.00  0.00     0.016 A 
HETATM    7  C11 UNL     1      25.329  26.222  12.896  1.00  0.00    -0.000 A 
HETATM    8  C12 UNL     1      25.754  25.119  12.331  1.00  0.00     0.011 A 
HETATM    9  C13 UNL     1      25.662  23.845  13.024  1.00  0.00     0.191 A 
ENDROOT
BRANCH   5  10
HETATM   10  C3  UNL     1      24.078  25.279  16.291  1.00  0.00     0.131 C 
HETATM   11  F1  UNL     1      24.859  26.258  17.048  1.00  0.00    -0.205 F 
HETATM   12  C4  UNL     1      23.128  24.799  16.985  1.00  0.00    -0.040 C 
HETATM   13  C5  UNL     1      22.030  23.850  16.907  1.00  0.00     0.037 C 
HETATM   14  C9  UNL     1      23.152  25.347  18.485  1.00  0.00     0.037 C 
HETATM   15  C6  UNL     1      22.319  22.607  17.759  1.00  0.00     0.004 C 
HETATM   16  C7  UNL     1      22.695  23.036  19.166  1.00  0.00     0.001 C 
HETATM   17  C8  UNL     1      23.695  24.143  19.214  1.00  0.00     0.004 C 
ENDBRANCH   5  10
BRANCH   9  18
HETATM   18  O1  UNL     1      24.930  22.922  12.257  1.00  0.00    -0.386 OA
ATOM     19  H1  UNL     1      24.019  22.920  12.526  1.00  0.00     0.210 HD
ENDBRANCH   9  18
TORSDOF 2
ENDMDL
MODEL 5
REMARK VINA RESULT: -6.680418476      2.751      4.017
REMARK  2 active torsions:
REMARK  status: ('A' for Active; 'I' for Inactive)
REMARK    1  A    between atoms: C2_5  and  C3_6 
REMARK    2  A    between atoms: C13_17  and  O1_18 
ROOT
HETATM    1  N1  UNL     1      22.396  22.658  16.384  1.00  0.00    -0.399 N 
ATOM      2  H11 UNL     1      21.618  22.217  16.876  1.00  0.00     0.156 HD
ATOM      3  H12 UNL     1      22.705  22.347  15.464  1.00  0.00     0.156 HD
HETATM    4  C1  UNL     1      23.095  23.602  16.876  1.00  0.00     0.049 A 
HETATM    5  C2  UNL     1      24.191  24.223  16.182  1.00  0.00     0.028 A 
HETATM    6  C10 UNL     1      24.788  25.308  16.779  1.00  0.00     0.016 A 
HETATM    7  C11 UNL     1      24.317  25.775  18.061  1.00  0.00    -0.000 A 
HETATM    8  C12 UNL     1      23.338  25.219  18.731  1.00  0.00     0.011 A 
HETATM    9  C13 UNL     1      22.647  24.052  18.209  1.00  0.00     0.191 A 
ENDROOT
BRANCH   5  10
HETATM   10  C3  UNL     1      24.692  23.827  14.891  1.00  0.00     0.131 C 
HETATM   11  F1  UNL     1      24.813  22.370  14.843  1.00  0.00    -0.205 F 
HETATM   12  C4  UNL     1      25.062  24.365  13.801  1.00  0.00    -0.040 C 
HETATM   13  C5  UNL     1      25.214  25.665  13.169  1.00  0.00     0.037 C 
HETATM   14  C9  UNL     1      25.632  23.286  12.769  1.00  0.00     0.037 C 
HETATM   15  C6  UNL     1      26.696  26.031  13.016  1.00  0.00     0.004 C 
HETATM   16  C7  UNL     1      27.429  24.894  12.326  1.00  0.00     0.001 C 
HETATM   17  C8  UNL     1      27.114  23.546  12.881  1.00  0.00     0.004 C 
ENDBRANCH   5  10
BRANCH   9  18
HETATM   18  O1  UNL     1      22.715  22.991  19.128  1.00  0.00    -0.386 OA
ATOM     19  H1  UNL     1      23.551  22.545  19.054  1.00  0.00     0.210 HD
ENDBRANCH   9  18
TORSDOF 2
ENDMDL
