MODEL 1
REMARK VINA RESULT: -6.076065967      0.000      0.000
REMARK  3 active torsions:
REMARK  status: ('A' for Active; 'I' for Inactive)
REMARK    1  A    between atoms: C2_2  and  N1_4 
REMARK       I    between atoms: C4_6  and  N2_7 
REMARK       I    between atoms: C4_6  and  N4_17 
REMARK    2  A    between atoms: N3_9  and  C5_11 
REMARK    3  A    between atoms: N4_17  and  N5_19 
ROOT
HETATM    1  N1  UNL     1      22.122  22.676  16.325  1.00  0.00    -0.220 N 
ATOM      2  H1  UNL     1      21.843  22.884  15.366  1.00  0.00     0.178 HD
HETATM    3  C4  UNL     1      22.821  23.555  16.924  1.00  0.00     0.706 C 
HETATM    4  N2  UNL     1      23.165  24.743  16.239  1.00  0.00    -0.135 N 
ATOM      5  H2  UNL     1      22.589  25.578  16.348  1.00  0.00     0.205 HD
HETATM    6  N3  UNL     1      24.175  24.773  15.500  1.00  0.00    -0.317 N 
ATOM      7  H3  UNL     1      24.425  25.629  15.005  1.00  0.00     0.181 HD
HETATM    8  N4  UNL     1      23.234  23.310  18.269  1.00  0.00    -0.138 N 
ATOM      9  H4  UNL     1      23.615  22.391  18.496  1.00  0.00     0.205 HD
ENDROOT
BRANCH   1  10
HETATM   10  C2  UNL     1      21.689  21.427  16.867  1.00  0.00     0.091 C 
HETATM   11  C1  UNL     1      22.733  20.378  16.467  1.00  0.00     0.032 C 
HETATM   12  C3  UNL     1      20.394  21.026  16.245  1.00  0.00     0.032 C 
ENDBRANCH   1  10
BRANCH   8  13
HETATM   13  N5  UNL     1      23.147  24.248  19.281  1.00  0.00    -0.331 N 
ATOM     14  H52 UNL     1      23.826  25.009  19.269  1.00  0.00     0.177 HD
ATOM     15  H51 UNL     1      22.449  24.215  20.025  1.00  0.00     0.177 HD
ENDBRANCH   8  13
BRANCH   6  16
HETATM   16  C5  UNL     1      24.982  23.588  15.354  1.00  0.00     0.100 C 
HETATM   17  C6  UNL     1      25.051  23.126  13.930  1.00  0.00     0.026 C 
HETATM   18  C7  UNL     1      26.425  23.249  13.328  1.00  0.00     0.002 C 
HETATM   19  C8  UNL     1      26.936  24.646  13.699  1.00  0.00     0.000 C 
HETATM   20  C9  UNL     1      27.283  24.594  15.148  1.00  0.00     0.002 C 
HETATM   21  C10 UNL     1      26.320  23.817  15.990  1.00  0.00     0.026 C 
ENDBRANCH   6  16
TORSDOF 3
ENDMDL
MODEL 2
REMARK VINA RESULT: -5.838201190      2.323      5.672
REMARK  3 active torsions:
REMARK  status: ('A' for Active; 'I' for Inactive)
REMARK    1  A    between atoms: C2_2  and  N1_4 
REMARK       I    between atoms: C4_6  and  N2_7 
REMARK       I    between atoms: C4_6  and  N4_17 
REMARK    2  A    between atoms: N3_9  and  C5_11 
REMARK    3  A    between atoms: N4_17  and  N5_19 
ROOT
HETATM    1  N1  UNL     1      25.788  26.388  17.017  1.00  0.00    -0.220 N 
ATOM      2  H1  UNL     1      25.045  26.874  17.518  1.00  0.00     0.178 HD
HETATM    3  C4  UNL     1      25.445  25.712  15.994  1.00  0.00     0.706 C 
HETATM    4  N2  UNL     1      24.082  25.673  15.622  1.00  0.00    -0.135 N 
ATOM      5  H2  UNL     1      23.727  26.325  14.922  1.00  0.00     0.205 HD
HETATM    6  N3  UNL     1      23.310  24.839  16.149  1.00  0.00    -0.317 N 
ATOM      7  H3  UNL     1      22.326  24.810  15.882  1.00  0.00     0.181 HD
HETATM    8  N4  UNL     1      26.451  25.015  15.258  1.00  0.00    -0.138 N 
ATOM      9  H4  UNL     1      27.143  24.476  15.780  1.00  0.00     0.205 HD
ENDROOT
BRANCH   1  10
HETATM   10  C2  UNL     1      27.114  26.533  17.529  1.00  0.00     0.091 C 
HETATM   11  C1  UNL     1      27.467  25.221  18.238  1.00  0.00     0.032 C 
HETATM   12  C3  UNL     1      27.146  27.617  18.554  1.00  0.00     0.032 C 
ENDBRANCH   1  10
BRANCH   8  13
HETATM   13  N5  UNL     1      26.541  25.030  13.879  1.00  0.00    -0.331 N 
ATOM     14  H52 UNL     1      27.217  24.397  13.451  1.00  0.00     0.177 HD
ATOM     15  H51 UNL     1      25.975  25.632  13.281  1.00  0.00     0.177 HD
ENDBRANCH   8  13
BRANCH   6  16
HETATM   16  C5  UNL     1      23.822  23.923  17.136  1.00  0.00     0.100 C 
HETATM   17  C6  UNL     1      23.306  24.229  18.510  1.00  0.00     0.026 C 
HETATM   18  C7  UNL     1      22.395  23.163  19.056  1.00  0.00     0.002 C 
HETATM   19  C8  UNL     1      21.410  22.818  17.934  1.00  0.00     0.000 C 
HETATM   20  C9  UNL     1      22.178  22.025  16.931  1.00  0.00     0.002 C 
HETATM   21  C10 UNL     1      23.570  22.516  16.685  1.00  0.00     0.026 C 
ENDBRANCH   6  16
TORSDOF 3
ENDMDL
MODEL 3
REMARK VINA RESULT: -5.745945252      1.733      3.132
REMARK  3 active torsions:
REMARK  status: ('A' for Active; 'I' for Inactive)
REMARK    1  A    between atoms: C2_2  and  N1_4 
REMARK       I    between atoms: C4_6  and  N2_7 
REMARK       I    between atoms: C4_6  and  N4_17 
REMARK    2  A    between atoms: N3_9  and  C5_11 
REMARK    3  A    between atoms: N4_17  and  N5_19 
ROOT
HETATM    1  N1  UNL     1      23.232  22.822  18.302  1.00  0.00    -0.220 N 
ATOM      2  H1  UNL     1      24.158  22.514  18.598  1.00  0.00     0.178 HD
HETATM    3  C4  UNL     1      22.854  22.472  17.138  1.00  0.00     0.706 C 
HETATM    4  N2  UNL     1      23.723  21.695  16.338  1.00  0.00    -0.135 N 
ATOM      5  H2  UNL     1      23.636  20.679  16.332  1.00  0.00     0.205 HD
HETATM    6  N3  UNL     1      24.600  22.252  15.638  1.00  0.00    -0.317 N 
ATOM      7  H3  UNL     1      25.227  21.692  15.060  1.00  0.00     0.181 HD
HETATM    8  N4  UNL     1      21.563  22.877  16.680  1.00  0.00    -0.138 N 
ATOM      9  H4  UNL     1      21.283  23.847  16.828  1.00  0.00     0.205 HD
ENDROOT
BRANCH   1  10
HETATM   10  C2  UNL     1      22.483  23.603  19.235  1.00  0.00     0.091 C 
HETATM   11  C1  UNL     1      22.917  25.061  19.049  1.00  0.00     0.032 C 
HETATM   12  C3  UNL     1      22.838  23.206  20.629  1.00  0.00     0.032 C 
ENDBRANCH   1  10
BRANCH   8  13
HETATM   13  N5  UNL     1      20.673  22.030  16.047  1.00  0.00    -0.331 N 
ATOM     14  H52 UNL     1      20.886  21.033  16.068  1.00  0.00     0.177 HD
ATOM     15  H51 UNL     1      19.829  22.350  15.570  1.00  0.00     0.177 HD
ENDBRANCH   8  13
BRANCH   6  16
HETATM   16  C5  UNL     1      24.714  23.688  15.654  1.00  0.00     0.100 C 
HETATM   17  C6  UNL     1      25.857  24.152  16.505  1.00  0.00     0.026 C 
HETATM   18  C7  UNL     1      26.961  24.804  15.716  1.00  0.00     0.002 C 
HETATM   19  C8  UNL     1      27.230  23.894  14.514  1.00  0.00     0.000 C 
HETATM   20  C9  UNL     1      26.084  24.086  13.578  1.00  0.00     0.002 C 
HETATM   21  C10 UNL     1      24.749  24.199  14.246  1.00  0.00     0.026 C 
ENDBRANCH   6  16
TORSDOF 3
ENDMDL
MODEL 4
REMARK VINA RESULT: -5.647336018      1.931      5.680
REMARK  3 active torsions:
REMARK  status: ('A' for Active; 'I' for Inactive)
REMARK    1  A    between atoms: C2_2  and  N1_4 
REMARK       I    between atoms: C4_6  and  N2_7 
REMARK       I    between atoms: C4_6  and  N4_17 
REMARK    2  A    between atoms: N3_9  and  C5_11 
REMARK    3  A    between atoms: N4_17  and  N5_19 
ROOT
HETATM    1  N1  UNL     1      26.307  25.454  16.295  1.00  0.00    -0.220 N 
ATOM      2  H1  UNL     1      25.793  26.173  16.805  1.00  0.00     0.178 HD
HETATM    3  C4  UNL     1      25.654  24.784  15.431  1.00  0.00     0.706 C 
HETATM    4  N2  UNL     1      24.284  25.069  15.232  1.00  0.00    -0.135 N 
ATOM      5  H2  UNL     1      23.999  25.711  14.492  1.00  0.00     0.205 HD
HETATM    6  N3  UNL     1      23.418  24.536  15.964  1.00  0.00    -0.317 N 
ATOM      7  H3  UNL     1      22.429  24.741  15.822  1.00  0.00     0.181 HD
HETATM    8  N4  UNL     1      26.331  23.767  14.691  1.00  0.00    -0.138 N 
ATOM      9  H4  UNL     1      26.938  23.124  15.200  1.00  0.00     0.205 HD
ENDROOT
BRANCH   1  10
HETATM   10  C2  UNL     1      27.689  25.296  16.620  1.00  0.00     0.091 C 
HETATM   11  C1  UNL     1      27.784  25.201  18.147  1.00  0.00     0.032 C 
HETATM   12  C3  UNL     1      28.450  26.508  16.200  1.00  0.00     0.032 C 
ENDBRANCH   1  10
BRANCH   8  13
HETATM   13  N5  UNL     1      26.210  23.605  13.324  1.00  0.00    -0.331 N 
ATOM     14  H52 UNL     1      25.265  23.540  12.946  1.00  0.00     0.177 HD
ATOM     15  H51 UNL     1      27.006  23.547  12.688  1.00  0.00     0.177 HD
ENDBRANCH   8  13
BRANCH   6  16
HETATM   16  C5  UNL     1      23.830  23.632  17.007  1.00  0.00     0.100 C 
HETATM   17  C6  UNL     1      23.371  24.085  18.360  1.00  0.00     0.026 C 
HETATM   18  C7  UNL     1      22.348  23.172  18.980  1.00  0.00     0.002 C 
HETATM   19  C8  UNL     1      21.315  22.875  17.887  1.00  0.00     0.000 C 
HETATM   20  C9  UNL     1      21.971  21.933  16.935  1.00  0.00     0.002 C 
HETATM   21  C10 UNL     1      23.409  22.238  16.651  1.00  0.00     0.026 C 
ENDBRANCH   6  16
TORSDOF 3
ENDMDL
MODEL 5
REMARK VINA RESULT: -5.642049283      1.352      1.562
REMARK  3 active torsions:
REMARK  status: ('A' for Active; 'I' for Inactive)
REMARK    1  A    between atoms: C2_2  and  N1_4 
REMARK       I    between atoms: C4_6  and  N2_7 
REMARK       I    between atoms: C4_6  and  N4_17 
REMARK    2  A    between atoms: N3_9  and  C5_11 
REMARK    3  A    between atoms: N4_17  and  N5_19 
ROOT
HETATM    1  N1  UNL     1      23.055  23.604  16.196  1.00  0.00    -0.220 N 
ATOM      2  H1  UNL     1      22.600  23.494  15.290  1.00  0.00     0.178 HD
HETATM    3  C4  UNL     1      23.847  24.593  16.327  1.00  0.00     0.706 C 
HETATM    4  N2  UNL     1      24.046  25.462  15.230  1.00  0.00    -0.135 N 
ATOM      5  H2  UNL     1      23.493  26.316  15.150  1.00  0.00     0.205 HD
HETATM    6  N3  UNL     1      24.899  25.187  14.355  1.00  0.00    -0.317 N 
ATOM      7  H3  UNL     1      25.044  25.813  13.564  1.00  0.00     0.181 HD
HETATM    8  N4  UNL     1      24.506  24.789  17.578  1.00  0.00    -0.138 N 
ATOM      9  H4  UNL     1      24.931  23.979  18.030  1.00  0.00     0.205 HD
ENDROOT
BRANCH   1  10
HETATM   10  C2  UNL     1      22.742  22.634  17.198  1.00  0.00     0.091 C 
HETATM   11  C1  UNL     1      23.159  21.267  16.643  1.00  0.00     0.032 C 
HETATM   12  C3  UNL     1      21.268  22.594  17.421  1.00  0.00     0.032 C 
ENDBRANCH   1  10
BRANCH   8  13
HETATM   13  N5  UNL     1      24.602  26.014  18.211  1.00  0.00    -0.331 N 
ATOM     14  H52 UNL     1      25.468  26.537  18.081  1.00  0.00     0.177 HD
ATOM     15  H51 UNL     1      23.862  26.411  18.790  1.00  0.00     0.177 HD
ENDBRANCH   8  13
BRANCH   6  16
HETATM   16  C5  UNL     1      25.675  23.979  14.477  1.00  0.00     0.100 C 
HETATM   17  C6  UNL     1      25.638  23.157  13.224  1.00  0.00     0.026 C 
HETATM   18  C7  UNL     1      26.969  23.072  12.527  1.00  0.00     0.002 C 
HETATM   19  C8  UNL     1      27.527  24.499  12.484  1.00  0.00     0.000 C 
HETATM   20  C9  UNL     1      27.972  24.817  13.871  1.00  0.00     0.002 C 
HETATM   21  C10 UNL     1      27.057  24.321  14.946  1.00  0.00     0.026 C 
ENDBRANCH   6  16
TORSDOF 3
ENDMDL
