MODEL 1
REMARK VINA RESULT: -6.470281673      0.000      0.000
REMARK  3 active torsions:
REMARK  status: ('A' for Active; 'I' for Inactive)
REMARK    1  A    between atoms: C2_2  and  O1_4 
REMARK    2  A    between atoms: C2_2  and  C4_6 
REMARK    3  A    between atoms: C6_10  and  C7_11 
ROOT
HETATM    1  C4  UNL     1      24.553  24.781  15.597  1.00  0.00     0.116 A 
HETATM    2  N1  UNL     1      24.282  25.246  16.833  1.00  0.00    -0.351 N 
ATOM      3  H1  UNL     1      24.572  26.154  17.194  1.00  0.00     0.166 HD
HETATM    4  C5  UNL     1      23.573  24.337  17.516  1.00  0.00     0.115 A 
HETATM    5  C6  UNL     1      23.370  23.250  16.710  1.00  0.00     0.030 A 
HETATM    6  N2  UNL     1      23.991  23.562  15.535  1.00  0.00    -0.345 N 
ATOM      7  H2  UNL     1      24.025  22.950  14.720  1.00  0.00     0.167 HD
ENDROOT
BRANCH   5   8
HETATM    8  C7  UNL     1      22.641  22.030  17.047  1.00  0.00     0.037 C 
HETATM    9  C8  UNL     1      21.148  22.150  17.047  1.00  0.00     0.011 C 
HETATM   10  C9  UNL     1      20.427  21.146  16.200  1.00  0.00     0.001 C 
HETATM   11  C10 UNL     1      20.896  19.730  16.378  1.00  0.00     0.000 C 
HETATM   12  C11 UNL     1      22.362  19.609  16.614  1.00  0.00     0.001 C 
HETATM   13  C12 UNL     1      23.119  20.859  16.192  1.00  0.00     0.011 C 
ENDBRANCH   5   8
BRANCH   1  14
HETATM   14  C2  UNL     1      25.305  25.470  14.507  1.00  0.00     0.108 C 
HETATM   15  C1  UNL     1      25.420  24.471  13.356  1.00  0.00     0.054 C 
HETATM   16  C3  UNL     1      24.689  26.757  14.075  1.00  0.00     0.054 C 
BRANCH  14  17
HETATM   17  O1  UNL     1      26.641  25.704  14.921  1.00  0.00    -0.383 OA
ATOM     18  H1  UNL     1      27.110  25.917  14.123  1.00  0.00     0.211 HD
ENDBRANCH  14  17
ENDBRANCH   1  14
TORSDOF 3
ENDMDL
MODEL 2
REMARK VINA RESULT: -6.302296263      2.164      6.197
REMARK  3 active torsions:
REMARK  status: ('A' for Active; 'I' for Inactive)
REMARK    1  A    between atoms: C2_2  and  O1_4 
REMARK    2  A    between atoms: C2_2  and  C4_6 
REMARK    3  A    between atoms: C6_10  and  C7_11 
ROOT
HETATM    1  C4  UNL     1      23.588  23.426  16.367  1.00  0.00     0.116 A 
HETATM    2  N1  UNL     1      24.819  23.009  16.010  1.00  0.00    -0.351 N 
ATOM      3  H1  UNL     1      25.193  22.075  16.177  1.00  0.00     0.166 HD
HETATM    4  C5  UNL     1      25.479  24.004  15.402  1.00  0.00     0.115 A 
HETATM    5  C6  UNL     1      24.662  25.101  15.355  1.00  0.00     0.030 A 
HETATM    6  N2  UNL     1      23.505  24.705  15.962  1.00  0.00    -0.345 N 
ATOM      7  H2  UNL     1      22.687  25.300  16.091  1.00  0.00     0.167 HD
ENDROOT
BRANCH   5   8
HETATM    8  C7  UNL     1      24.974  26.404  14.774  1.00  0.00     0.037 C 
HETATM    9  C8  UNL     1      26.208  27.068  15.303  1.00  0.00     0.011 C 
HETATM   10  C9  UNL     1      27.202  27.491  14.265  1.00  0.00     0.001 C 
HETATM   11  C10 UNL     1      26.605  28.222  13.096  1.00  0.00     0.000 C 
HETATM   12  C11 UNL     1      25.260  27.721  12.698  1.00  0.00     0.001 C 
HETATM   13  C12 UNL     1      24.976  26.332  13.249  1.00  0.00     0.011 C 
ENDBRANCH   5   8
BRANCH   1  14
HETATM   14  C2  UNL     1      22.521  22.640  17.054  1.00  0.00     0.108 C 
HETATM   15  C1  UNL     1      22.856  21.165  16.836  1.00  0.00     0.054 C 
HETATM   16  C3  UNL     1      22.366  22.974  18.498  1.00  0.00     0.054 C 
BRANCH  14  17
HETATM   17  O1  UNL     1      21.282  22.834  16.391  1.00  0.00    -0.383 OA
ATOM     18  H1  UNL     1      21.104  23.763  16.473  1.00  0.00     0.211 HD
ENDBRANCH  14  17
ENDBRANCH   1  14
TORSDOF 3
ENDMDL
MODEL 3
REMARK VINA RESULT: -6.272766643      2.222      3.344
REMARK  3 active torsions:
REMARK  status: ('A' for Active; 'I' for Inactive)
REMARK    1  A    between atoms: C2_2  and  O1_4 
REMARK    2  A    between atoms: C2_2  and  C4_6 
REMARK    3  A    between atoms: C6_10  and  C7_11 
ROOT
HETATM    1  C4  UNL     1      25.602  24.934  13.824  1.00  0.00     0.116 A 
HETATM    2  N1  UNL     1      26.263  23.972  14.499  1.00  0.00    -0.351 N 
ATOM      3  H1  UNL     1      27.142  23.547  14.204  1.00  0.00     0.166 HD
HETATM    4  C5  UNL     1      25.593  23.657  15.616  1.00  0.00     0.115 A 
HETATM    5  C6  UNL     1      24.467  24.432  15.680  1.00  0.00     0.030 A 
HETATM    6  N2  UNL     1      24.507  25.205  14.556  1.00  0.00    -0.345 N 
ATOM      7  H2  UNL     1      23.801  25.896  14.304  1.00  0.00     0.167 HD
ENDROOT
BRANCH   5   8
HETATM    8  C7  UNL     1      23.453  24.423  16.731  1.00  0.00     0.037 C 
HETATM    9  C8  UNL     1      22.638  23.171  16.831  1.00  0.00     0.011 C 
HETATM   10  C9  UNL     1      22.605  22.535  18.188  1.00  0.00     0.001 C 
HETATM   11  C10 UNL     1      22.341  23.492  19.315  1.00  0.00     0.000 C 
HETATM   12  C11 UNL     1      22.959  24.834  19.122  1.00  0.00     0.001 C 
HETATM   13  C12 UNL     1      24.063  24.815  18.076  1.00  0.00     0.011 C 
ENDBRANCH   5   8
BRANCH   1  14
HETATM   14  C2  UNL     1      25.998  25.585  12.541  1.00  0.00     0.108 C 
HETATM   15  C1  UNL     1      25.338  26.964  12.528  1.00  0.00     0.054 C 
HETATM   16  C3  UNL     1      27.472  25.667  12.339  1.00  0.00     0.054 C 
BRANCH  14  17
HETATM   17  O1  UNL     1      25.412  24.891  11.451  1.00  0.00    -0.383 OA
ATOM     18  H1  UNL     1      24.805  24.279  11.850  1.00  0.00     0.211 HD
ENDBRANCH  14  17
ENDBRANCH   1  14
TORSDOF 3
ENDMDL
MODEL 4
REMARK VINA RESULT: -6.269016166      2.284      5.828
REMARK  3 active torsions:
REMARK  status: ('A' for Active; 'I' for Inactive)
REMARK    1  A    between atoms: C2_2  and  O1_4 
REMARK    2  A    between atoms: C2_2  and  C4_6 
REMARK    3  A    between atoms: C6_10  and  C7_11 
ROOT
HETATM    1  C4  UNL     1      23.284  23.564  16.243  1.00  0.00     0.116 A 
HETATM    2  N1  UNL     1      23.420  24.903  16.339  1.00  0.00    -0.351 N 
ATOM      3  H1  UNL     1      22.907  25.498  16.988  1.00  0.00     0.166 HD
HETATM    4  C5  UNL     1      24.331  25.332  15.456  1.00  0.00     0.115 A 
HETATM    5  C6  UNL     1      24.807  24.253  14.764  1.00  0.00     0.030 A 
HETATM    6  N2  UNL     1      24.136  23.181  15.277  1.00  0.00    -0.345 N 
ATOM      7  H2  UNL     1      24.263  22.217  14.968  1.00  0.00     0.167 HD
ENDROOT
BRANCH   5   8
HETATM    8  C7  UNL     1      25.818  24.261  13.710  1.00  0.00     0.037 C 
HETATM    9  C8  UNL     1      25.562  25.208  12.577  1.00  0.00     0.011 C 
HETATM   10  C9  UNL     1      26.681  26.155  12.270  1.00  0.00     0.001 C 
HETATM   11  C10 UNL     1      28.037  25.511  12.193  1.00  0.00     0.000 C 
HETATM   12  C11 UNL     1      28.230  24.400  13.167  1.00  0.00     0.001 C 
HETATM   13  C12 UNL     1      27.216  24.444  14.299  1.00  0.00     0.011 C 
ENDBRANCH   5   8
BRANCH   1  14
HETATM   14  C2  UNL     1      22.390  22.678  17.044  1.00  0.00     0.108 C 
HETATM   15  C1  UNL     1      22.887  21.248  16.831  1.00  0.00     0.054 C 
HETATM   16  C3  UNL     1      22.325  23.040  18.489  1.00  0.00     0.054 C 
BRANCH  14  17
HETATM   17  O1  UNL     1      21.082  22.695  16.496  1.00  0.00    -0.383 OA
ATOM     18  H1  UNL     1      21.091  23.404  15.865  1.00  0.00     0.211 HD
ENDBRANCH  14  17
ENDBRANCH   1  14
TORSDOF 3
ENDMDL
MODEL 5
REMARK VINA RESULT: -6.230457720      2.089      5.678
REMARK  3 active torsions:
REMARK  status: ('A' for Active; 'I' for Inactive)
REMARK    1  A    between atoms: C2_2  and  O1_4 
REMARK    2  A    between atoms: C2_2  and  C4_6 
REMARK    3  A    between atoms: C6_10  and  C7_11 
ROOT
HETATM    1  C4  UNL     1      23.129  23.885  16.856  1.00  0.00     0.116 A 
HETATM    2  N1  UNL     1      23.549  24.934  17.593  1.00  0.00    -0.351 N 
ATOM      3  H1  UNL     1      23.203  25.173  18.522  1.00  0.00     0.166 HD
HETATM    4  C5  UNL     1      24.488  25.614  16.923  1.00  0.00     0.115 A 
HETATM    5  C6  UNL     1      24.695  24.998  15.719  1.00  0.00     0.030 A 
HETATM    6  N2  UNL     1      23.836  23.937  15.714  1.00  0.00    -0.345 N 
ATOM      7  H2  UNL     1      23.744  23.272  14.947  1.00  0.00     0.167 HD
ENDROOT
BRANCH   5   8
HETATM    8  C7  UNL     1      25.636  25.399  14.677  1.00  0.00     0.037 C 
HETATM    9  C8  UNL     1      26.407  24.284  14.040  1.00  0.00     0.011 C 
HETATM   10  C9  UNL     1      26.331  24.226  12.545  1.00  0.00     0.001 C 
HETATM   11  C10 UNL     1      26.547  25.546  11.860  1.00  0.00     0.000 C 
HETATM   12  C11 UNL     1      25.983  26.708  12.604  1.00  0.00     0.001 C 
HETATM   13  C12 UNL     1      24.951  26.283  13.637  1.00  0.00     0.011 C 
ENDBRANCH   5   8
BRANCH   1  14
HETATM   14  C2  UNL     1      22.106  22.863  17.223  1.00  0.00     0.108 C 
HETATM   15  C1  UNL     1      22.699  21.501  16.863  1.00  0.00     0.054 C 
HETATM   16  C3  UNL     1      21.676  22.929  18.649  1.00  0.00     0.054 C 
BRANCH  14  17
HETATM   17  O1  UNL     1      20.970  22.999  16.384  1.00  0.00    -0.383 OA
ATOM     18  H1  UNL     1      20.230  23.031  16.978  1.00  0.00     0.211 HD
ENDBRANCH  14  17
ENDBRANCH   1  14
TORSDOF 3
ENDMDL
