MODEL 1
REMARK VINA RESULT: -4.144768496      0.000      0.000
REMARK  0 active torsions:
REMARK  status: ('A' for Active; 'I' for Inactive)
ROOT
HETATM    1  C1  UNL     1      26.044   6.498   6.252  1.00  0.00     0.040 C 
HETATM    2  C2  UNL     1      25.741   6.135   4.838  1.00  0.00     0.186 C 
HETATM    3  C3  UNL     1      26.060   4.704   4.439  1.00  0.00     0.081 C 
HETATM    4  C4  UNL     1      26.422   5.408   3.121  1.00  0.00     0.283 C 
HETATM    5 CL1  UNL     1      27.661   4.626   2.177  1.00  0.00    -0.095 Cl
HETATM    6  N1  UNL     1      26.880   6.508   3.983  1.00  0.00    -0.054 N 
ATOM      7  H11 UNL     1      27.835   6.561   4.339  1.00  0.00     0.279 HD
ATOM      8  H12 UNL     1      27.011   7.457   3.632  1.00  0.00     0.279 HD
ENDROOT
TORSDOF 0
ENDMDL
MODEL 2
REMARK VINA RESULT: -4.133037407      2.382      3.192
REMARK  0 active torsions:
REMARK  status: ('A' for Active; 'I' for Inactive)
ROOT
HETATM    1  C1  UNL     1      27.751   4.908   2.276  1.00  0.00     0.040 C 
HETATM    2  C2  UNL     1      26.474   5.290   2.945  1.00  0.00     0.186 C 
HETATM    3  C3  UNL     1      26.583   6.364   4.014  1.00  0.00     0.081 C 
HETATM    4  C4  UNL     1      25.486   5.498   4.654  1.00  0.00     0.283 C 
HETATM    5 CL1  UNL     1      25.435   5.530   6.396  1.00  0.00    -0.095 Cl
HETATM    6  N1  UNL     1      26.213   4.365   4.061  1.00  0.00    -0.054 N 
ATOM      7  H11 UNL     1      26.963   3.880   4.555  1.00  0.00     0.279 HD
ATOM      8  H12 UNL     1      25.780   3.452   3.923  1.00  0.00     0.279 HD
ENDROOT
TORSDOF 0
ENDMDL
MODEL 3
REMARK VINA RESULT: -3.788105923      2.366      3.061
REMARK  0 active torsions:
REMARK  status: ('A' for Active; 'I' for Inactive)
ROOT
HETATM    1  C1  UNL     1      28.132   6.652   2.666  1.00  0.00     0.040 C 
HETATM    2  C2  UNL     1      26.857   6.834   3.417  1.00  0.00     0.186 C 
HETATM    3  C3  UNL     1      26.996   7.065   4.912  1.00  0.00     0.081 C 
HETATM    4  C4  UNL     1      25.705   6.230   4.916  1.00  0.00     0.283 C 
HETATM    5 CL1  UNL     1      25.439   5.278   6.352  1.00  0.00    -0.095 Cl
HETATM    6  N1  UNL     1      26.314   5.515   3.784  1.00  0.00    -0.054 N 
ATOM      7  H11 UNL     1      26.911   4.697   3.914  1.00  0.00     0.279 HD
ATOM      8  H12 UNL     1      25.765   4.951   3.136  1.00  0.00     0.279 HD
ENDROOT
TORSDOF 0
ENDMDL
MODEL 4
REMARK VINA RESULT: -3.524675265      1.267      1.299
REMARK  0 active torsions:
REMARK  status: ('A' for Active; 'I' for Inactive)
ROOT
HETATM    1  C1  UNL     1      25.803   6.124   6.475  1.00  0.00     0.040 C 
HETATM    2  C2  UNL     1      25.931   6.767   5.135  1.00  0.00     0.186 C 
HETATM    3  C3  UNL     1      26.063   5.818   3.956  1.00  0.00     0.081 C 
HETATM    4  C4  UNL     1      26.990   6.942   3.466  1.00  0.00     0.283 C 
HETATM    5 CL1  UNL     1      28.286   6.432   2.417  1.00  0.00    -0.095 Cl
HETATM    6  N1  UNL     1      27.345   7.095   4.885  1.00  0.00    -0.054 N 
ATOM      7  H11 UNL     1      28.110   6.574   5.315  1.00  0.00     0.279 HD
ATOM      8  H12 UNL     1      27.781   7.942   5.250  1.00  0.00     0.279 HD
ENDROOT
TORSDOF 0
ENDMDL
MODEL 5
REMARK VINA RESULT: -3.292702190      1.780      2.078
REMARK  0 active torsions:
REMARK  status: ('A' for Active; 'I' for Inactive)
ROOT
HETATM    1  C1  UNL     1      25.060   5.369   4.605  1.00  0.00     0.040 C 
HETATM    2  C2  UNL     1      26.488   5.619   4.257  1.00  0.00     0.186 C 
HETATM    3  C3  UNL     1      26.859   7.066   3.984  1.00  0.00     0.081 C 
HETATM    4  C4  UNL     1      27.777   6.384   2.956  1.00  0.00     0.283 C 
HETATM    5 CL1  UNL     1      28.135   7.330   1.536  1.00  0.00    -0.095 Cl
HETATM    6  N1  UNL     1      26.681   5.414   2.811  1.00  0.00    -0.054 N 
ATOM      7  H11 UNL     1      25.925   5.540   2.137  1.00  0.00     0.279 HD
ATOM      8  H12 UNL     1      26.822   4.489   2.406  1.00  0.00     0.279 HD
ENDROOT
TORSDOF 0
ENDMDL
