MODEL 1
REMARK VINA RESULT: -4.567666099      0.000      0.000
REMARK  0 active torsions:
REMARK  status: ('A' for Active; 'I' for Inactive)
ROOT
HETATM    1  C1  UNL     1      26.137   6.774   6.236  1.00  0.00     0.003 C 
HETATM    2  C2  UNL     1      27.204   7.253   5.307  1.00  0.00     0.027 C 
HETATM    3  C3  UNL     1      27.012   6.905   3.882  1.00  0.00     0.232 C 
HETATM    4  N1  UNL     1      26.397   5.655   3.615  1.00  0.00    -0.075 N 
ATOM      5  H11 UNL     1      27.084   4.902   3.644  1.00  0.00     0.277 HD
ATOM      6  H12 UNL     1      26.117   5.592   2.636  1.00  0.00     0.277 HD
HETATM    7  C4  UNL     1      25.275   5.360   4.489  1.00  0.00     0.232 C 
HETATM    8  C5  UNL     1      25.879   5.302   5.898  1.00  0.00     0.027 C 
ENDROOT
TORSDOF 0
ENDMDL
MODEL 2
REMARK VINA RESULT: -4.479478804      0.855      2.033
REMARK  0 active torsions:
REMARK  status: ('A' for Active; 'I' for Inactive)
ROOT
HETATM    1  C1  UNL     1      25.963   5.438   6.134  1.00  0.00     0.003 C 
HETATM    2  C2  UNL     1      25.544   5.068   4.749  1.00  0.00     0.027 C 
HETATM    3  C3  UNL     1      26.355   5.653   3.660  1.00  0.00     0.232 C 
HETATM    4  N1  UNL     1      26.865   6.958   3.883  1.00  0.00    -0.075 N 
ATOM      5  H11 UNL     1      26.162   7.662   3.657  1.00  0.00     0.277 HD
ATOM      6  H12 UNL     1      27.572   7.193   3.185  1.00  0.00     0.277 HD
HETATM    7  C4  UNL     1      27.381   7.159   5.225  1.00  0.00     0.232 C 
HETATM    8  C5  UNL     1      26.171   6.957   6.147  1.00  0.00     0.027 C 
ENDROOT
TORSDOF 0
ENDMDL
MODEL 3
REMARK VINA RESULT: -4.364404502      1.152      2.375
REMARK  0 active torsions:
REMARK  status: ('A' for Active; 'I' for Inactive)
ROOT
HETATM    1  C1  UNL     1      25.234   5.259   4.539  1.00  0.00     0.003 C 
HETATM    2  C2  UNL     1      25.589   5.536   5.963  1.00  0.00     0.027 C 
HETATM    3  C3  UNL     1      26.334   6.791   6.201  1.00  0.00     0.232 C 
HETATM    4  N1  UNL     1      27.249   7.183   5.191  1.00  0.00    -0.075 N 
ATOM      5  H11 UNL     1      28.141   6.702   5.305  1.00  0.00     0.277 HD
ATOM      6  H12 UNL     1      27.556   8.146   5.336  1.00  0.00     0.277 HD
HETATM    7  C4  UNL     1      26.739   7.005   3.843  1.00  0.00     0.232 C 
HETATM    8  C5  UNL     1      26.501   5.495   3.709  1.00  0.00     0.027 C 
ENDROOT
TORSDOF 0
ENDMDL
MODEL 4
REMARK VINA RESULT: -4.352141489      0.927      2.052
REMARK  0 active torsions:
REMARK  status: ('A' for Active; 'I' for Inactive)
ROOT
HETATM    1  C1  UNL     1      27.079   7.167   5.251  1.00  0.00     0.003 C 
HETATM    2  C2  UNL     1      26.178   6.683   6.340  1.00  0.00     0.027 C 
HETATM    3  C3  UNL     1      25.522   5.381   6.093  1.00  0.00     0.232 C 
HETATM    4  N1  UNL     1      25.166   5.099   4.749  1.00  0.00    -0.075 N 
ATOM      5  H11 UNL     1      24.270   5.527   4.516  1.00  0.00     0.277 HD
ATOM      6  H12 UNL     1      24.918   4.115   4.641  1.00  0.00     0.277 HD
HETATM    7  C4  UNL     1      26.184   5.480   3.786  1.00  0.00     0.232 C 
HETATM    8  C5  UNL     1      26.315   7.002   3.933  1.00  0.00     0.027 C 
ENDROOT
TORSDOF 0
ENDMDL
MODEL 5
REMARK VINA RESULT: -4.343444740      0.580      2.025
REMARK  0 active torsions:
REMARK  status: ('A' for Active; 'I' for Inactive)
ROOT
HETATM    1  C1  UNL     1      26.430   6.584   6.125  1.00  0.00     0.003 C 
HETATM    2  C2  UNL     1      25.597   5.381   5.832  1.00  0.00     0.027 C 
HETATM    3  C3  UNL     1      25.856   4.726   4.532  1.00  0.00     0.232 C 
HETATM    4  N1  UNL     1      26.208   5.581   3.455  1.00  0.00    -0.075 N 
ATOM      5  H11 UNL     1      25.374   5.977   3.022  1.00  0.00     0.277 HD
ATOM      6  H12 UNL     1      26.568   5.039   2.668  1.00  0.00     0.277 HD
HETATM    7  C4  UNL     1      27.141   6.630   3.826  1.00  0.00     0.232 C 
HETATM    8  C5  UNL     1      26.395   7.468   4.873  1.00  0.00     0.027 C 
ENDROOT
TORSDOF 0
ENDMDL
