MODEL 1
REMARK VINA RESULT: -10.393228032      0.000      0.000
REMARK  1 active torsions:
REMARK  status: ('A' for Active; 'I' for Inactive)
REMARK    1  A    between atoms: N1_1  and  C1_4 
ROOT
HETATM    1  C1  UNL     1      19.093   8.934  33.905  1.00  0.00     0.037 A 
HETATM    2  C2  UNL     1      20.068   7.976  33.790  1.00  0.00     0.032 A 
HETATM    3  C3  UNL     1      21.359   8.356  33.524  1.00  0.00     0.033 A 
HETATM    4  C4  UNL     1      21.729   9.676  33.364  1.00  0.00     0.044 A 
HETATM    5  N2  UNL     1      23.001  10.027  33.104  1.00  0.00    -0.353 N 
ATOM      6  H2  UNL     1      23.720   9.308  33.020  1.00  0.00     0.166 HD
HETATM    7  C5  UNL     1      23.328  11.324  32.953  1.00  0.00     0.073 A 
HETATM    8  C6  UNL     1      24.506  11.996  32.688  1.00  0.00     0.020 A 
HETATM    9  C7  UNL     1      25.783  11.517  32.483  1.00  0.00     0.016 A 
HETATM   10  C8  UNL     1      26.829  12.381  32.229  1.00  0.00     0.001 A 
HETATM   11  C9  UNL     1      26.559  13.732  32.186  1.00  0.00     0.002 A 
HETATM   12  C10 UNL     1      25.301  14.260  32.384  1.00  0.00     0.030 A 
HETATM   13  C11 UNL     1      24.277  13.359  32.636  1.00  0.00     0.045 A 
HETATM   14  N3  UNL     1      22.943  13.524  32.872  1.00  0.00    -0.353 N 
ATOM     15  H3  UNL     1      22.455  14.419  32.901  1.00  0.00     0.166 HD
HETATM   16  C12 UNL     1      22.368  12.315  33.063  1.00  0.00     0.072 A 
HETATM   17  C13 UNL     1      21.070  11.971  33.329  1.00  0.00     0.006 A 
HETATM   18  C14 UNL     1      20.050  12.899  33.454  1.00  0.00     0.015 A 
HETATM   19  C15 UNL     1      18.747  12.564  33.719  1.00  0.00     0.002 A 
HETATM   20  C16 UNL     1      18.448  11.232  33.866  1.00  0.00     0.014 A 
HETATM   21  C17 UNL     1      19.448  10.269  33.747  1.00  0.00     0.004 A 
HETATM   22  C18 UNL     1      20.734  10.636  33.483  1.00  0.00     0.016 A 
ENDROOT
BRANCH   1  23
HETATM   23  N1  UNL     1      17.849   8.664  34.155  1.00  0.00    -0.398 N 
ATOM     24  H12 UNL     1      17.486   7.762  33.847  1.00  0.00     0.156 HD
ATOM     25  H11 UNL     1      17.221   9.303  34.641  1.00  0.00     0.156 HD
ENDBRANCH   1  23
TORSDOF 1
ENDMDL
MODEL 2
REMARK VINA RESULT: -10.355474056      1.365      1.466
REMARK  1 active torsions:
REMARK  status: ('A' for Active; 'I' for Inactive)
REMARK    1  A    between atoms: N1_1  and  C1_4 
ROOT
HETATM    1  C1  UNL     1      18.931   9.088  34.788  1.00  0.00     0.037 A 
HETATM    2  C2  UNL     1      19.651   7.937  34.596  1.00  0.00     0.032 A 
HETATM    3  C3  UNL     1      20.835   7.989  33.903  1.00  0.00     0.033 A 
HETATM    4  C4  UNL     1      21.342   9.163  33.383  1.00  0.00     0.044 A 
HETATM    5  N2  UNL     1      22.504   9.192  32.708  1.00  0.00    -0.353 N 
ATOM      6  H2  UNL     1      23.034   8.331  32.569  1.00  0.00     0.166 HD
HETATM    7  C5  UNL     1      22.970  10.353  32.213  1.00  0.00     0.073 A 
HETATM    8  C6  UNL     1      24.095  10.712  31.495  1.00  0.00     0.020 A 
HETATM    9  C7  UNL     1      25.146   9.947  31.037  1.00  0.00     0.016 A 
HETATM   10  C8  UNL     1      26.183  10.521  30.328  1.00  0.00     0.001 A 
HETATM   11  C9  UNL     1      26.134  11.879  30.093  1.00  0.00     0.002 A 
HETATM   12  C10 UNL     1      25.106  12.686  30.529  1.00  0.00     0.030 A 
HETATM   13  C11 UNL     1      24.084  12.071  31.237  1.00  0.00     0.045 A 
HETATM   14  N3  UNL     1      22.939  12.550  31.804  1.00  0.00    -0.353 N 
ATOM     15  H3  UNL     1      22.636  13.524  31.790  1.00  0.00     0.166 HD
HETATM   16  C12 UNL     1      22.268  11.533  32.389  1.00  0.00     0.072 A 
HETATM   17  C13 UNL     1      21.083  11.517  33.076  1.00  0.00     0.006 A 
HETATM   18  C14 UNL     1      20.319  12.649  33.296  1.00  0.00     0.015 A 
HETATM   19  C15 UNL     1      19.131  12.643  33.982  1.00  0.00     0.002 A 
HETATM   20  C16 UNL     1      18.684  11.442  34.472  1.00  0.00     0.014 A 
HETATM   21  C17 UNL     1      19.426  10.279  34.270  1.00  0.00     0.004 A 
HETATM   22  C18 UNL     1      20.603  10.320  33.584  1.00  0.00     0.016 A 
ENDROOT
BRANCH   1  23
HETATM   23  N1  UNL     1      17.804   9.129  35.429  1.00  0.00    -0.398 N 
ATOM     24  H12 UNL     1      17.224   9.961  35.320  1.00  0.00     0.156 HD
ATOM     25  H11 UNL     1      17.472   8.376  36.032  1.00  0.00     0.156 HD
ENDBRANCH   1  23
TORSDOF 1
ENDMDL
MODEL 3
REMARK VINA RESULT: -10.143152863      1.379      3.070
REMARK  1 active torsions:
REMARK  status: ('A' for Active; 'I' for Inactive)
REMARK    1  A    between atoms: N1_1  and  C1_4 
ROOT
HETATM    1  C1  UNL     1      18.658  10.667  34.724  1.00  0.00     0.037 A 
HETATM    2  C2  UNL     1      18.673  12.014  34.469  1.00  0.00     0.032 A 
HETATM    3  C3  UNL     1      19.717  12.556  33.762  1.00  0.00     0.033 A 
HETATM    4  C4  UNL     1      20.768  11.797  33.288  1.00  0.00     0.044 A 
HETATM    5  N2  UNL     1      21.781  12.348  32.597  1.00  0.00    -0.353 N 
ATOM      6  H2  UNL     1      21.785  13.351  32.411  1.00  0.00     0.166 HD
HETATM    7  C5  UNL     1      22.792  11.580  32.149  1.00  0.00     0.073 A 
HETATM    8  C6  UNL     1      23.946  11.828  31.431  1.00  0.00     0.020 A 
HETATM    9  C7  UNL     1      24.448  13.008  30.923  1.00  0.00     0.016 A 
HETATM   10  C8  UNL     1      25.639  13.028  30.226  1.00  0.00     0.001 A 
HETATM   11  C9  UNL     1      26.309  11.835  30.053  1.00  0.00     0.002 A 
HETATM   12  C10 UNL     1      25.850  10.631  30.541  1.00  0.00     0.030 A 
HETATM   13  C11 UNL     1      24.650  10.654  31.236  1.00  0.00     0.045 A 
HETATM   14  N3  UNL     1      23.918   9.674  31.842  1.00  0.00    -0.353 N 
ATOM     15  H3  UNL     1      24.169   8.686  31.877  1.00  0.00     0.166 HD
HETATM   16  C12 UNL     1      22.808  10.217  32.389  1.00  0.00     0.072 A 
HETATM   17  C13 UNL     1      21.781   9.643  33.091  1.00  0.00     0.006 A 
HETATM   18  C14 UNL     1      21.720   8.290  33.375  1.00  0.00     0.015 A 
HETATM   19  C15 UNL     1      20.696   7.707  34.078  1.00  0.00     0.002 A 
HETATM   20  C16 UNL     1      19.683   8.520  34.520  1.00  0.00     0.014 A 
HETATM   21  C17 UNL     1      19.710   9.887  34.254  1.00  0.00     0.004 A 
HETATM   22  C18 UNL     1      20.742  10.435  33.552  1.00  0.00     0.016 A 
ENDROOT
BRANCH   1  23
HETATM   23  N1  UNL     1      17.712  10.073  35.383  1.00  0.00    -0.398 N 
ATOM     24  H12 UNL     1      16.748  10.283  35.127  1.00  0.00     0.156 HD
ATOM     25  H11 UNL     1      17.884   9.411  36.140  1.00  0.00     0.156 HD
ENDBRANCH   1  23
TORSDOF 1
ENDMDL
MODEL 4
REMARK VINA RESULT: -9.878997825      1.667      6.574
REMARK  1 active torsions:
REMARK  status: ('A' for Active; 'I' for Inactive)
REMARK    1  A    between atoms: N1_1  and  C1_4 
ROOT
HETATM    1  C1  UNL     1      25.288  13.726  32.273  1.00  0.00     0.037 A 
HETATM    2  C2  UNL     1      24.337  14.483  32.908  1.00  0.00     0.032 A 
HETATM    3  C3  UNL     1      23.187  13.884  33.360  1.00  0.00     0.033 A 
HETATM    4  C4  UNL     1      22.941  12.535  33.203  1.00  0.00     0.044 A 
HETATM    5  N2  UNL     1      21.808  11.967  33.652  1.00  0.00    -0.353 N 
ATOM      6  H2  UNL     1      21.106  12.537  34.124  1.00  0.00     0.166 HD
HETATM    7  C5  UNL     1      21.598  10.648  33.482  1.00  0.00     0.073 A 
HETATM    8  C6  UNL     1      20.572   9.785  33.817  1.00  0.00     0.020 A 
HETATM    9  C7  UNL     1      19.379  10.022  34.465  1.00  0.00     0.016 A 
HETATM   10  C8  UNL     1      18.485   8.995  34.699  1.00  0.00     0.001 A 
HETATM   11  C9  UNL     1      18.822   7.731  34.267  1.00  0.00     0.002 A 
HETATM   12  C10 UNL     1      20.002   7.443  33.615  1.00  0.00     0.030 A 
HETATM   13  C11 UNL     1      20.872   8.501  33.399  1.00  0.00     0.045 A 
HETATM   14  N3  UNL     1      22.097   8.579  32.800  1.00  0.00    -0.353 N 
ATOM     15  H3  UNL     1      22.601   7.796  32.384  1.00  0.00     0.166 HD
HETATM   16  C12 UNL     1      22.537   9.856  32.846  1.00  0.00     0.072 A 
HETATM   17  C13 UNL     1      23.696  10.422  32.383  1.00  0.00     0.006 A 
HETATM   18  C14 UNL     1      24.685   9.703  31.737  1.00  0.00     0.015 A 
HETATM   19  C15 UNL     1      25.848  10.261  31.269  1.00  0.00     0.002 A 
HETATM   20  C16 UNL     1      26.030  11.608  31.459  1.00  0.00     0.014 A 
HETATM   21  C17 UNL     1      25.055  12.366  32.106  1.00  0.00     0.004 A 
HETATM   22  C18 UNL     1      23.911  11.780  32.558  1.00  0.00     0.016 A 
ENDROOT
BRANCH   1  23
HETATM   23  N1  UNL     1      26.400  14.211  31.816  1.00  0.00    -0.398 N 
ATOM     24  H12 UNL     1      26.767  15.056  32.253  1.00  0.00     0.156 HD
ATOM     25  H11 UNL     1      26.923  13.792  31.047  1.00  0.00     0.156 HD
ENDBRANCH   1  23
TORSDOF 1
ENDMDL
MODEL 5
REMARK VINA RESULT: -9.622622403      1.697      6.021
REMARK  1 active torsions:
REMARK  status: ('A' for Active; 'I' for Inactive)
REMARK    1  A    between atoms: N1_1  and  C1_4 
ROOT
HETATM    1  C1  UNL     1      26.042  11.483  31.143  1.00  0.00     0.037 A 
HETATM    2  C2  UNL     1      26.056  10.128  30.931  1.00  0.00     0.032 A 
HETATM    3  C3  UNL     1      25.009   9.364  31.380  1.00  0.00     0.033 A 
HETATM    4  C4  UNL     1      23.925   9.902  32.045  1.00  0.00     0.044 A 
HETATM    5  N2  UNL     1      22.909   9.135  32.476  1.00  0.00    -0.353 N 
ATOM      6  H2  UNL     1      22.927   8.128  32.315  1.00  0.00     0.166 HD
HETATM    7  C5  UNL     1      21.867   9.692  33.122  1.00  0.00     0.073 A 
HETATM    8  C6  UNL     1      20.702   9.199  33.675  1.00  0.00     0.020 A 
HETATM    9  C7  UNL     1      20.218   7.909  33.742  1.00  0.00     0.016 A 
HETATM   10  C8  UNL     1      19.010   7.637  34.352  1.00  0.00     0.001 A 
HETATM   11  C9  UNL     1      18.304   8.692  34.891  1.00  0.00     0.002 A 
HETATM   12  C10 UNL     1      18.744   9.997  34.850  1.00  0.00     0.030 A 
HETATM   13  C11 UNL     1      19.962  10.228  34.229  1.00  0.00     0.045 A 
HETATM   14  N3  UNL     1      20.684  11.366  34.012  1.00  0.00    -0.353 N 
ATOM     15  H3  UNL     1      20.408  12.304  34.302  1.00  0.00     0.166 HD
HETATM   16  C12 UNL     1      21.822  11.056  33.352  1.00  0.00     0.072 A 
HETATM   17  C13 UNL     1      22.851  11.849  32.917  1.00  0.00     0.006 A 
HETATM   18  C14 UNL     1      22.884  13.219  33.105  1.00  0.00     0.015 A 
HETATM   19  C15 UNL     1      23.910  14.021  32.674  1.00  0.00     0.002 A 
HETATM   20  C16 UNL     1      24.957  13.420  32.020  1.00  0.00     0.014 A 
HETATM   21  C17 UNL     1      24.959  12.042  31.811  1.00  0.00     0.004 A 
HETATM   22  C18 UNL     1      23.923  11.274  32.253  1.00  0.00     0.016 A 
ENDROOT
BRANCH   1  23
HETATM   23  N1  UNL     1      26.989  12.279  30.753  1.00  0.00    -0.398 N 
ATOM     24  H12 UNL     1      26.765  13.268  30.642  1.00  0.00     0.156 HD
ATOM     25  H11 UNL     1      27.939  11.967  30.554  1.00  0.00     0.156 HD
ENDBRANCH   1  23
TORSDOF 1
ENDMDL
