MODEL 1
REMARK VINA RESULT: -6.038104957      0.000      0.000
REMARK  2 active torsions:
REMARK  status: ('A' for Active; 'I' for Inactive)
REMARK    1  A    between atoms: C5_5  and  N1_6 
REMARK    2  A    between atoms: N1_6  and  C6_8 
ROOT
HETATM    1  C1  UNL     1      25.854   8.799  31.630  1.00  0.00     0.002 A 
HETATM    2  C2  UNL     1      24.731   8.192  32.164  1.00  0.00     0.001 A 
HETATM    3  C3  UNL     1      23.735   8.988  32.700  1.00  0.00     0.016 A 
HETATM    4  C4  UNL     1      23.815  10.363  32.724  1.00  0.00     0.018 A 
HETATM    5  C5  UNL     1      22.767  11.130  33.285  1.00  0.00     0.058 A 
HETATM    6  C11 UNL     1      22.944  12.489  33.260  1.00  0.00     0.018 A 
HETATM    7  C12 UNL     1      22.003  13.349  33.771  1.00  0.00     0.016 A 
HETATM    8  C13 UNL     1      22.113  14.722  33.780  1.00  0.00     0.001 A 
HETATM    9  C14 UNL     1      23.249  15.274  33.236  1.00  0.00     0.002 A 
HETATM   10  C15 UNL     1      24.222  14.469  32.711  1.00  0.00     0.030 A 
HETATM   11  C16 UNL     1      24.075  13.102  32.721  1.00  0.00     0.045 A 
HETATM   12  N3  UNL     1      25.031  12.297  32.205  1.00  0.00    -0.355 N 
ATOM     13  H3  UNL     1      25.865  12.730  31.808  1.00  0.00     0.166 HD
HETATM   14  C17 UNL     1      24.938  10.955  32.189  1.00  0.00     0.045 A 
HETATM   15  C18 UNL     1      25.959  10.170  31.642  1.00  0.00     0.030 A 
ENDROOT
BRANCH   5  16
HETATM   16  N1  UNL     1      21.826  10.536  33.728  1.00  0.00    -0.355 N 
ATOM     17  H1  UNL     1      22.138  10.328  34.677  1.00  0.00     0.166 HD
BRANCH  16  18
HETATM   18  C6  UNL     1      20.610   9.986  33.714  1.00  0.00     0.035 A 
HETATM   19  C7  UNL     1      20.175   8.877  34.430  1.00  0.00     0.046 A 
HETATM   20  C8  UNL     1      18.890   8.410  34.316  1.00  0.00     0.090 A 
HETATM   21  N2  UNL     1      18.025   9.025  33.501  1.00  0.00    -0.375 N 
HETATM   22  C9  UNL     1      18.359  10.106  32.769  1.00  0.00     0.090 A 
ATOM     23  H2  UNL     1      17.074   8.662  33.431  1.00  0.00     0.164 HD
HETATM   24  C10 UNL     1      19.633  10.569  32.882  1.00  0.00     0.046 A 
ENDBRANCH  16  18
ENDBRANCH   5  16
TORSDOF 2
ENDMDL
MODEL 2
REMARK VINA RESULT: -5.980376713      0.076      3.909
REMARK  2 active torsions:
REMARK  status: ('A' for Active; 'I' for Inactive)
REMARK    1  A    between atoms: C5_5  and  N1_6 
REMARK    2  A    between atoms: N1_6  and  C6_8 
ROOT
HETATM    1  C1  UNL     1      23.274  15.290  33.232  1.00  0.00     0.002 A 
HETATM    2  C2  UNL     1      22.126  14.725  33.759  1.00  0.00     0.001 A 
HETATM    3  C3  UNL     1      21.994  13.348  33.746  1.00  0.00     0.016 A 
HETATM    4  C4  UNL     1      22.960  12.514  33.229  1.00  0.00     0.018 A 
HETATM    5  C5  UNL     1      22.775  11.111  33.241  1.00  0.00     0.058 A 
HETATM    6  C11 UNL     1      23.796  10.371  32.703  1.00  0.00     0.018 A 
HETATM    7  C12 UNL     1      23.744   9.000  32.652  1.00  0.00     0.016 A 
HETATM    8  C13 UNL     1      24.729   8.193  32.127  1.00  0.00     0.001 A 
HETATM    9  C14 UNL     1      25.849   8.805  31.617  1.00  0.00     0.002 A 
HETATM   10  C15 UNL     1      25.960  10.168  31.639  1.00  0.00     0.030 A 
HETATM   11  C16 UNL     1      24.955  10.940  32.172  1.00  0.00     0.045 A 
HETATM   12  N3  UNL     1      25.053  12.288  32.199  1.00  0.00    -0.355 N 
ATOM     13  H3  UNL     1      25.893  12.719  31.814  1.00  0.00     0.166 HD
HETATM   14  C17 UNL     1      24.099  13.088  32.708  1.00  0.00     0.045 A 
HETATM   15  C18 UNL     1      24.254  14.479  32.710  1.00  0.00     0.030 A 
ENDROOT
BRANCH   5  16
HETATM   16  N1  UNL     1      21.757  10.694  33.713  1.00  0.00    -0.355 N 
ATOM     17  H1  UNL     1      21.838  10.997  34.684  1.00  0.00     0.166 HD
BRANCH  16  18
HETATM   18  C6  UNL     1      20.579  10.067  33.720  1.00  0.00     0.035 A 
HETATM   19  C7  UNL     1      20.248   8.896  34.391  1.00  0.00     0.046 A 
HETATM   20  C8  UNL     1      18.992   8.351  34.306  1.00  0.00     0.090 A 
HETATM   21  N2  UNL     1      18.053   8.951  33.563  1.00  0.00    -0.375 N 
HETATM   22  C9  UNL     1      18.285  10.088  32.879  1.00  0.00     0.090 A 
ATOM     23  H2  UNL     1      17.125   8.530  33.514  1.00  0.00     0.164 HD
HETATM   24  C10 UNL     1      19.530  10.627  32.964  1.00  0.00     0.046 A 
ENDBRANCH  16  18
ENDBRANCH   5  16
TORSDOF 2
ENDMDL
MODEL 3
REMARK VINA RESULT: -5.918520857      0.138      1.033
REMARK  2 active torsions:
REMARK  status: ('A' for Active; 'I' for Inactive)
REMARK    1  A    between atoms: C5_5  and  N1_6 
REMARK    2  A    between atoms: N1_6  and  C6_8 
ROOT
HETATM    1  C1  UNL     1      25.834   8.784  31.664  1.00  0.00     0.002 A 
HETATM    2  C2  UNL     1      24.672   8.209  32.150  1.00  0.00     0.001 A 
HETATM    3  C3  UNL     1      23.689   9.032  32.669  1.00  0.00     0.016 A 
HETATM    4  C4  UNL     1      23.818  10.402  32.722  1.00  0.00     0.018 A 
HETATM    5  C5  UNL     1      22.781  11.198  33.264  1.00  0.00     0.058 A 
HETATM    6  C11 UNL     1      23.009  12.550  33.270  1.00  0.00     0.018 A 
HETATM    7  C12 UNL     1      22.084  13.435  33.767  1.00  0.00     0.016 A 
HETATM    8  C13 UNL     1      22.245  14.803  33.805  1.00  0.00     0.001 A 
HETATM    9  C14 UNL     1      23.417  15.321  33.309  1.00  0.00     0.002 A 
HETATM   10  C15 UNL     1      24.377  14.490  32.800  1.00  0.00     0.030 A 
HETATM   11  C16 UNL     1      24.179  13.130  32.779  1.00  0.00     0.045 A 
HETATM   12  N3  UNL     1      25.121  12.299  32.279  1.00  0.00    -0.355 N 
ATOM     13  H3  UNL     1      25.983  12.707  31.916  1.00  0.00     0.166 HD
HETATM   14  C17 UNL     1      24.979  10.962  32.234  1.00  0.00     0.045 A 
HETATM   15  C18 UNL     1      25.988  10.149  31.705  1.00  0.00     0.030 A 
ENDROOT
BRANCH   5  16
HETATM   16  N1  UNL     1      21.806  10.632  33.665  1.00  0.00    -0.355 N 
ATOM     17  H1  UNL     1      22.092  10.365  34.607  1.00  0.00     0.166 HD
BRANCH  16  18
HETATM   18  C6  UNL     1      20.564  10.145  33.608  1.00  0.00     0.035 A 
HETATM   19  C7  UNL     1      19.480  10.670  32.916  1.00  0.00     0.046 A 
HETATM   20  C8  UNL     1      18.248  10.067  32.949  1.00  0.00     0.090 A 
HETATM   21  N2  UNL     1      18.072   8.946  33.659  1.00  0.00    -0.375 N 
HETATM   22  C9  UNL     1      19.065   8.367  34.361  1.00  0.00     0.090 A 
ATOM     23  H2  UNL     1      17.148   8.513  33.670  1.00  0.00     0.164 HD
HETATM   24  C10 UNL     1      20.286   8.965  34.328  1.00  0.00     0.046 A 
ENDBRANCH  16  18
ENDBRANCH   5  16
TORSDOF 2
ENDMDL
MODEL 4
REMARK VINA RESULT: -5.785785988      1.550      6.431
REMARK  2 active torsions:
REMARK  status: ('A' for Active; 'I' for Inactive)
REMARK    1  A    between atoms: C5_5  and  N1_6 
REMARK    2  A    between atoms: N1_6  and  C6_8 
ROOT
HETATM    1  C1  UNL     1      19.511  13.765  33.279  1.00  0.00     0.002 A 
HETATM    2  C2  UNL     1      20.892  13.738  33.195  1.00  0.00     0.001 A 
HETATM    3  C3  UNL     1      21.540  12.517  33.258  1.00  0.00     0.016 A 
HETATM    4  C4  UNL     1      20.865  11.325  33.401  1.00  0.00     0.018 A 
HETATM    5  C5  UNL     1      21.577  10.103  33.459  1.00  0.00     0.058 A 
HETATM    6  C11 UNL     1      20.811   8.975  33.603  1.00  0.00     0.018 A 
HETATM    7  C12 UNL     1      21.376   7.725  33.673  1.00  0.00     0.016 A 
HETATM    8  C13 UNL     1      20.671   6.550  33.816  1.00  0.00     0.001 A 
HETATM    9  C14 UNL     1      19.302   6.633  33.895  1.00  0.00     0.002 A 
HETATM   10  C15 UNL     1      18.681   7.850  33.831  1.00  0.00     0.030 A 
HETATM   11  C16 UNL     1      19.419   9.001  33.687  1.00  0.00     0.045 A 
HETATM   12  N3  UNL     1      18.816  10.210  33.623  1.00  0.00    -0.355 N 
ATOM     13  H3  UNL     1      17.798  10.246  33.684  1.00  0.00     0.166 HD
HETATM   14  C17 UNL     1      19.491  11.365  33.483  1.00  0.00     0.045 A 
HETATM   15  C18 UNL     1      18.814  12.589  33.422  1.00  0.00     0.030 A 
ENDROOT
BRANCH   5  16
HETATM   16  N1  UNL     1      22.770  10.157  33.380  1.00  0.00    -0.355 N 
ATOM     17  H1  UNL     1      23.058   9.710  34.250  1.00  0.00     0.166 HD
BRANCH  16  18
HETATM   18  C6  UNL     1      23.947  10.456  32.825  1.00  0.00     0.035 A 
HETATM   19  C7  UNL     1      24.805  11.493  33.168  1.00  0.00     0.046 A 
HETATM   20  C8  UNL     1      25.989  11.693  32.506  1.00  0.00     0.090 A 
HETATM   21  N2  UNL     1      26.340  10.877  31.504  1.00  0.00    -0.375 N 
HETATM   22  C9  UNL     1      25.571   9.847  31.103  1.00  0.00     0.090 A 
ATOM     23  H2  UNL     1      27.225  11.043  31.025  1.00  0.00     0.164 HD
HETATM   24  C10 UNL     1      24.397   9.650  31.760  1.00  0.00     0.046 A 
ENDBRANCH  16  18
ENDBRANCH   5  16
TORSDOF 2
ENDMDL
MODEL 5
REMARK VINA RESULT: -5.781982135      1.584      5.363
REMARK  2 active torsions:
REMARK  status: ('A' for Active; 'I' for Inactive)
REMARK    1  A    between atoms: C5_5  and  N1_6 
REMARK    2  A    between atoms: N1_6  and  C6_8 
ROOT
HETATM    1  C1  UNL     1      19.471   6.412  33.948  1.00  0.00     0.002 A 
HETATM    2  C2  UNL     1      20.850   6.501  33.876  1.00  0.00     0.001 A 
HETATM    3  C3  UNL     1      21.429   7.747  33.716  1.00  0.00     0.016 A 
HETATM    4  C4  UNL     1      20.689   8.905  33.624  1.00  0.00     0.018 A 
HETATM    5  C5  UNL     1      21.332  10.154  33.461  1.00  0.00     0.058 A 
HETATM    6  C11 UNL     1      20.505  11.245  33.381  1.00  0.00     0.018 A 
HETATM    7  C12 UNL     1      21.000  12.515  33.222  1.00  0.00     0.016 A 
HETATM    8  C13 UNL     1      20.230  13.654  33.134  1.00  0.00     0.001 A 
HETATM    9  C14 UNL     1      18.866  13.510  33.211  1.00  0.00     0.002 A 
HETATM   10  C15 UNL     1      18.313  12.269  33.369  1.00  0.00     0.030 A 
HETATM   11  C16 UNL     1      19.114  11.155  33.454  1.00  0.00     0.045 A 
HETATM   12  N3  UNL     1      18.578   9.924  33.610  1.00  0.00    -0.355 N 
ATOM     13  H3  UNL     1      17.563   9.841  33.664  1.00  0.00     0.166 HD
HETATM   14  C17 UNL     1      19.317   8.802  33.698  1.00  0.00     0.045 A 
HETATM   15  C18 UNL     1      18.708   7.552  33.859  1.00  0.00     0.030 A 
ENDROOT
BRANCH   5  16
HETATM   16  N1  UNL     1      22.528  10.155  33.408  1.00  0.00    -0.355 N 
ATOM     17  H1  UNL     1      22.775   9.625  34.244  1.00  0.00     0.166 HD
BRANCH  16  18
HETATM   18  C6  UNL     1      23.730  10.439  32.900  1.00  0.00     0.035 A 
HETATM   19  C7  UNL     1      24.525  11.544  33.178  1.00  0.00     0.046 A 
HETATM   20  C8  UNL     1      25.745  11.718  32.576  1.00  0.00     0.090 A 
HETATM   21  N2  UNL     1      26.194  10.811  31.699  1.00  0.00    -0.375 N 
HETATM   22  C9  UNL     1      25.490   9.710  31.370  1.00  0.00     0.090 A 
ATOM     23  H2  UNL     1      27.104  10.959  31.264  1.00  0.00     0.164 HD
HETATM   24  C10 UNL     1      24.280   9.539  31.966  1.00  0.00     0.046 A 
ENDBRANCH  16  18
ENDBRANCH   5  16
TORSDOF 2
ENDMDL
