MODEL 1
REMARK VINA RESULT: -9.588950315      0.000      0.000
REMARK  1 active torsions:
REMARK  status: ('A' for Active; 'I' for Inactive)
REMARK    1  A    between atoms: C3_3  and  C6_6 
ROOT
HETATM    1  C1  UNL     1      18.617   9.103  35.762  1.00  0.00     0.098 C 
HETATM    2  C2  UNL     1      18.975   9.846  34.826  1.00  0.00    -0.173 C 
HETATM    3  C3  UNL     1      19.405  10.794  33.737  1.00  0.00     0.032 C 
HETATM    4  C4  UNL     1      18.637  11.972  34.200  1.00  0.00     0.033 C 
HETATM    5  C5  UNL     1      18.515  10.281  32.529  1.00  0.00     0.033 C 
ENDROOT
BRANCH   3   6
HETATM    6  C6  UNL     1      20.758  10.466  33.534  1.00  0.00    -0.015 A 
HETATM    7  C7  UNL     1      21.065   9.069  33.491  1.00  0.00    -0.052 A 
HETATM    8  C8  UNL     1      20.159   8.006  33.753  1.00  0.00     0.049 C 
HETATM    9  C9  UNL     1      22.366   8.663  33.230  1.00  0.00     0.016 A 
HETATM   10  C10 UNL     1      23.375   9.523  33.010  1.00  0.00    -0.034 A 
HETATM   11  C11 UNL     1      24.739   9.081  32.736  1.00  0.00     0.050 C 
HETATM   12  C12 UNL     1      23.101  10.864  33.047  1.00  0.00     0.056 A 
HETATM   13  N1  UNL     1      24.101  11.738  32.819  1.00  0.00    -0.332 N 
HETATM   14  C15 UNL     1      21.804  11.370  33.306  1.00  0.00     0.068 A 
HETATM   15  C13 UNL     1      23.924  13.065  32.824  1.00  0.00     0.179 A 
ATOM     16  H1  UNL     1      25.035  11.372  32.633  1.00  0.00     0.168 HD
HETATM   17  S1  UNL     1      25.208  14.031  32.535  1.00  0.00    -0.040 SA
HETATM   18  N2  UNL     1      22.717  13.563  33.064  1.00  0.00    -0.299 N 
HETATM   19  C14 UNL     1      21.664  12.721  33.303  1.00  0.00     0.260 A 
ATOM     20  H2  UNL     1      22.574  14.573  33.070  1.00  0.00     0.171 HD
HETATM   21  O1  UNL     1      20.589  13.253  33.513  1.00  0.00    -0.267 OA
ENDBRANCH   3   6
TORSDOF 1
ENDMDL
MODEL 2
REMARK VINA RESULT: -9.535290410      2.437      4.890
REMARK  1 active torsions:
REMARK  status: ('A' for Active; 'I' for Inactive)
REMARK    1  A    between atoms: C3_3  and  C6_6 
ROOT
HETATM    1  C1  UNL     1      24.788  12.288  29.584  1.00  0.00     0.098 C 
HETATM    2  C2  UNL     1      24.762  12.257  30.831  1.00  0.00    -0.173 C 
HETATM    3  C3  UNL     1      24.703  12.278  32.336  1.00  0.00     0.032 C 
HETATM    4  C4  UNL     1      24.887  13.738  32.510  1.00  0.00     0.033 C 
HETATM    5  C5  UNL     1      26.145  11.726  32.698  1.00  0.00     0.033 C 
ENDROOT
BRANCH   3   6
HETATM    6  C6  UNL     1      23.713  11.325  32.638  1.00  0.00    -0.015 A 
HETATM    7  C7  UNL     1      24.128   9.956  32.594  1.00  0.00    -0.052 A 
HETATM    8  C8  UNL     1      25.395   9.480  32.162  1.00  0.00     0.049 C 
HETATM    9  C9  UNL     1      23.229   8.959  32.943  1.00  0.00     0.016 A 
HETATM   10  C10 UNL     1      21.965   9.209  33.327  1.00  0.00    -0.034 A 
HETATM   11  C11 UNL     1      21.030   8.149  33.690  1.00  0.00     0.050 C 
HETATM   12  C12 UNL     1      21.550  10.512  33.374  1.00  0.00     0.056 A 
HETATM   13  N1  UNL     1      20.289  10.778  33.767  1.00  0.00    -0.332 N 
HETATM   14  C15 UNL     1      22.398  11.595  33.037  1.00  0.00     0.068 A 
HETATM   15  C13 UNL     1      19.800  12.022  33.854  1.00  0.00     0.179 A 
ATOM     16  H1  UNL     1      19.679   9.997  34.009  1.00  0.00     0.168 HD
HETATM   17  S1  UNL     1      18.256  12.228  34.341  1.00  0.00    -0.040 SA
HETATM   18  N2  UNL     1      20.576  13.054  33.544  1.00  0.00    -0.299 N 
HETATM   19  C14 UNL     1      21.867  12.841  33.138  1.00  0.00     0.260 A 
ATOM     20  H2  UNL     1      20.212  14.004  33.607  1.00  0.00     0.171 HD
HETATM   21  O1  UNL     1      22.516  13.836  32.873  1.00  0.00    -0.267 OA
ENDBRANCH   3   6
TORSDOF 1
ENDMDL
MODEL 3
REMARK VINA RESULT: -9.001793349      1.730      3.404
REMARK  1 active torsions:
REMARK  status: ('A' for Active; 'I' for Inactive)
REMARK    1  A    between atoms: C3_3  and  C6_6 
ROOT
HETATM    1  C1  UNL     1      19.195   8.812  31.548  1.00  0.00     0.098 C 
HETATM    2  C2  UNL     1      19.805   9.082  32.603  1.00  0.00    -0.173 C 
HETATM    3  C3  UNL     1      20.586   9.364  33.859  1.00  0.00     0.032 C 
HETATM    4  C4  UNL     1      21.111   7.995  34.065  1.00  0.00     0.033 C 
HETATM    5  C5  UNL     1      19.417   9.426  34.929  1.00  0.00     0.033 C 
ENDROOT
BRANCH   3   6
HETATM    6  C6  UNL     1      21.121  10.645  33.631  1.00  0.00    -0.015 A 
HETATM    7  C7  UNL     1      20.232  11.745  33.852  1.00  0.00    -0.052 A 
HETATM    8  C8  UNL     1      18.848  11.651  34.158  1.00  0.00     0.049 C 
HETATM    9  C9  UNL     1      20.702  13.042  33.712  1.00  0.00     0.016 A 
HETATM   10  C10 UNL     1      21.970  13.333  33.374  1.00  0.00    -0.034 A 
HETATM   11  C11 UNL     1      22.451  14.704  33.230  1.00  0.00     0.050 C 
HETATM   12  C12 UNL     1      22.836  12.295  33.157  1.00  0.00     0.056 A 
HETATM   13  N1  UNL     1      24.112  12.571  32.827  1.00  0.00    -0.332 N 
HETATM   14  C15 UNL     1      22.445  10.939  33.277  1.00  0.00     0.068 A 
HETATM   15  C13 UNL     1      25.030  11.621  32.608  1.00  0.00     0.179 A 
ATOM     16  H1  UNL     1      24.392  13.548  32.740  1.00  0.00     0.168 HD
HETATM   17  S1  UNL     1      26.548  12.071  32.212  1.00  0.00    -0.040 SA
HETATM   18  N2  UNL     1      24.688  10.343  32.715  1.00  0.00    -0.299 N 
HETATM   19  C14 UNL     1      23.403  10.004  33.049  1.00  0.00     0.260 A 
ATOM     20  H2  UNL     1      25.381   9.613  32.549  1.00  0.00     0.171 HD
HETATM   21  O1  UNL     1      23.167   8.812  33.129  1.00  0.00    -0.267 OA
ENDBRANCH   3   6
TORSDOF 1
ENDMDL
MODEL 4
REMARK VINA RESULT: -8.956181060      3.026      5.627
REMARK  1 active torsions:
REMARK  status: ('A' for Active; 'I' for Inactive)
REMARK    1  A    between atoms: C3_3  and  C6_6 
ROOT
HETATM    1  C1  UNL     1      24.380  11.139  30.150  1.00  0.00     0.098 C 
HETATM    2  C2  UNL     1      24.381  11.477  31.351  1.00  0.00    -0.173 C 
HETATM    3  C3  UNL     1      24.398  11.946  32.782  1.00  0.00     0.032 C 
HETATM    4  C4  UNL     1      25.484  12.943  32.639  1.00  0.00     0.033 C 
HETATM    5  C5  UNL     1      25.156  10.740  33.480  1.00  0.00     0.033 C 
ENDROOT
BRANCH   3   6
HETATM    6  C6  UNL     1      23.038  11.954  33.140  1.00  0.00    -0.015 A 
HETATM    7  C7  UNL     1      22.437  13.245  33.293  1.00  0.00    -0.052 A 
HETATM    8  C8  UNL     1      23.114  14.493  33.236  1.00  0.00     0.049 C 
HETATM    9  C9  UNL     1      21.084  13.339  33.580  1.00  0.00     0.016 A 
HETATM   10  C10 UNL     1      20.286  12.266  33.726  1.00  0.00    -0.034 A 
HETATM   11  C11 UNL     1      18.863  12.381  34.028  1.00  0.00     0.050 C 
HETATM   12  C12 UNL     1      20.842  11.024  33.584  1.00  0.00     0.056 A 
HETATM   13  N1  UNL     1      20.053   9.940  33.718  1.00  0.00    -0.332 N 
HETATM   14  C15 UNL     1      22.214  10.831  33.291  1.00  0.00     0.068 A 
HETATM   15  C13 UNL     1      20.506   8.687  33.585  1.00  0.00     0.179 A 
ATOM     16  H1  UNL     1      19.065  10.080  33.930  1.00  0.00     0.168 HD
HETATM   17  S1  UNL     1      19.461   7.448  33.769  1.00  0.00    -0.040 SA
HETATM   18  N2  UNL     1      21.789   8.481  33.309  1.00  0.00    -0.299 N 
HETATM   19  C14 UNL     1      22.637   9.547  33.162  1.00  0.00     0.260 A 
ATOM     20  H2  UNL     1      22.143   7.530  33.207  1.00  0.00     0.171 HD
HETATM   21  O1  UNL     1      23.797   9.277  32.909  1.00  0.00    -0.267 OA
ENDBRANCH   3   6
TORSDOF 1
ENDMDL
MODEL 5
REMARK VINA RESULT: -8.410824380      2.023      3.473
REMARK  1 active torsions:
REMARK  status: ('A' for Active; 'I' for Inactive)
REMARK    1  A    between atoms: C3_3  and  C6_6 
ROOT
HETATM    1  C1  UNL     1      17.882  11.121  31.698  1.00  0.00     0.098 C 
HETATM    2  C2  UNL     1      18.908  10.663  32.241  1.00  0.00    -0.173 C 
HETATM    3  C3  UNL     1      20.158  10.076  32.843  1.00  0.00     0.032 C 
HETATM    4  C4  UNL     1      20.087   8.758  32.172  1.00  0.00     0.033 C 
HETATM    5  C5  UNL     1      19.649   9.725  34.303  1.00  0.00     0.033 C 
ENDROOT
BRANCH   3   6
HETATM    6  C6  UNL     1      21.048  11.166  32.874  1.00  0.00    -0.015 A 
HETATM    7  C7  UNL     1      20.684  12.249  33.736  1.00  0.00    -0.052 A 
HETATM    8  C8  UNL     1      19.464  12.370  34.455  1.00  0.00     0.049 C 
HETATM    9  C9  UNL     1      21.541  13.331  33.872  1.00  0.00     0.016 A 
HETATM   10  C10 UNL     1      22.718  13.423  33.229  1.00  0.00    -0.034 A 
HETATM   11  C11 UNL     1      23.610  14.568  33.383  1.00  0.00     0.050 C 
HETATM   12  C12 UNL     1      23.083  12.397  32.400  1.00  0.00     0.056 A 
HETATM   13  N1  UNL     1      24.265  12.472  31.756  1.00  0.00    -0.332 N 
HETATM   14  C15 UNL     1      22.273  11.254  32.199  1.00  0.00     0.068 A 
HETATM   15  C13 UNL     1      24.709  11.512  30.935  1.00  0.00     0.179 A 
ATOM     16  H1  UNL     1      24.847  13.297  31.901  1.00  0.00     0.168 HD
HETATM   17  S1  UNL     1      26.156  11.708  30.206  1.00  0.00    -0.040 SA
HETATM   18  N2  UNL     1      23.967  10.430  30.732  1.00  0.00    -0.299 N 
HETATM   19  C14 UNL     1      22.757  10.302  31.360  1.00  0.00     0.260 A 
ATOM     20  H2  UNL     1      24.298   9.694  30.107  1.00  0.00     0.171 HD
HETATM   21  O1  UNL     1      22.136   9.281  31.124  1.00  0.00    -0.267 OA
ENDBRANCH   3   6
TORSDOF 1
ENDMDL
