MODEL 1
REMARK VINA RESULT: -10.228325965      0.000      0.000
REMARK  0 active torsions:
REMARK  status: ('A' for Active; 'I' for Inactive)
ROOT
HETATM    1  C1  UNL     1      26.877  12.392  32.177  1.00  0.00     0.055 C 
HETATM    2  C2  UNL     1      25.456  12.603  32.480  1.00  0.00     0.021 A 
HETATM    3  C3  UNL     1      24.613  11.494  32.611  1.00  0.00    -0.035 A 
HETATM    4  C4  UNL     1      25.204  10.252  32.116  1.00  0.00     0.050 C 
HETATM    5  C5  UNL     1      23.305  11.726  32.915  1.00  0.00     0.035 A 
HETATM    6  C6  UNL     1      22.854  13.046  33.063  1.00  0.00     0.164 A 
HETATM    7  N1  UNL     1      21.543  13.016  33.330  1.00  0.00    -0.335 N 
ATOM      8  H1  UNL     1      20.946  13.830  33.480  1.00  0.00     0.168 HD
HETATM    9  C7  UNL     1      21.149  11.742  33.370  1.00  0.00     0.053 A 
HETATM   10  C8  UNL     1      19.895  11.212  33.612  1.00  0.00    -0.016 A 
HETATM   11  C9  UNL     1      18.754  12.132  33.858  1.00  0.00     0.052 C 
HETATM   12  C10 UNL     1      19.734   9.858  33.620  1.00  0.00     0.067 A 
HETATM   13  C11 UNL     1      20.797   9.030  33.398  1.00  0.00     0.058 A 
HETATM   14  C12 UNL     1      22.091   9.543  33.150  1.00  0.00    -0.021 A 
HETATM   15  C13 UNL     1      23.141   8.524  33.230  1.00  0.00     0.052 C 
HETATM   16  C14 UNL     1      22.233  10.894  33.126  1.00  0.00     0.014 A 
HETATM   17  N2  UNL     1      19.976   7.866  33.529  1.00  0.00    -0.321 N 
ATOM     18  H2  UNL     1      20.126   6.858  33.478  1.00  0.00     0.169 HD
HETATM   19  C15 UNL     1      18.870   8.710  33.759  1.00  0.00     0.259 A 
HETATM   20  O1  UNL     1      17.626   8.513  33.991  1.00  0.00    -0.267 OA
HETATM   21  O2  UNL     1      23.679  14.048  32.927  1.00  0.00    -0.257 OA
HETATM   22  C16 UNL     1      24.934  13.868  32.651  1.00  0.00     0.296 A 
HETATM   23  O3  UNL     1      25.673  14.880  32.542  1.00  0.00    -0.259 OA
ENDROOT
TORSDOF 0
ENDMDL
MODEL 2
REMARK VINA RESULT: -10.174656527      1.783      2.908
REMARK  0 active torsions:
REMARK  status: ('A' for Active; 'I' for Inactive)
ROOT
HETATM    1  C1  UNL     1      25.733  14.455  32.124  1.00  0.00     0.055 C 
HETATM    2  C2  UNL     1      25.175  13.113  32.332  1.00  0.00     0.021 A 
HETATM    3  C3  UNL     1      23.855  12.983  32.776  1.00  0.00    -0.035 A 
HETATM    4  C4  UNL     1      23.284  14.231  33.279  1.00  0.00     0.050 C 
HETATM    5  C5  UNL     1      23.363  11.722  32.937  1.00  0.00     0.035 A 
HETATM    6  C6  UNL     1      24.190  10.620  32.676  1.00  0.00     0.164 A 
HETATM    7  N1  UNL     1      23.497   9.503  32.930  1.00  0.00    -0.335 N 
ATOM      8  H1  UNL     1      23.847   8.550  32.836  1.00  0.00     0.168 HD
HETATM    9  C7  UNL     1      22.270   9.848  33.325  1.00  0.00     0.053 A 
HETATM   10  C8  UNL     1      21.202   9.050  33.692  1.00  0.00    -0.016 A 
HETATM   11  C9  UNL     1      21.367   7.574  33.690  1.00  0.00     0.052 C 
HETATM   12  C10 UNL     1      20.024   9.636  34.047  1.00  0.00     0.067 A 
HETATM   13  C11 UNL     1      19.891  10.995  34.036  1.00  0.00     0.058 A 
HETATM   14  C12 UNL     1      20.965  11.837  33.663  1.00  0.00    -0.021 A 
HETATM   15  C13 UNL     1      20.555  13.224  33.428  1.00  0.00     0.052 C 
HETATM   16  C14 UNL     1      22.139  11.240  33.331  1.00  0.00     0.014 A 
HETATM   17  N2  UNL     1      18.535  10.912  34.483  1.00  0.00    -0.321 N 
ATOM     18  H2  UNL     1      17.795  11.582  34.698  1.00  0.00     0.169 HD
HETATM   19  C15 UNL     1      18.658   9.508  34.499  1.00  0.00     0.259 A 
HETATM   20  O1  UNL     1      17.871   8.543  34.797  1.00  0.00    -0.267 OA
HETATM   21  O2  UNL     1      25.418  10.793  32.269  1.00  0.00    -0.257 OA
HETATM   22  C16 UNL     1      25.918  11.977  32.091  1.00  0.00     0.296 A 
HETATM   23  O3  UNL     1      27.107  12.069  31.688  1.00  0.00    -0.259 OA
ENDROOT
TORSDOF 0
ENDMDL
MODEL 3
REMARK VINA RESULT: -9.751847666      1.913      6.449
REMARK  0 active torsions:
REMARK  status: ('A' for Active; 'I' for Inactive)
ROOT
HETATM    1  C1  UNL     1      18.037  11.160  34.620  1.00  0.00     0.055 C 
HETATM    2  C2  UNL     1      19.283  10.534  34.160  1.00  0.00     0.021 A 
HETATM    3  C3  UNL     1      20.373  11.345  33.828  1.00  0.00    -0.035 A 
HETATM    4  C4  UNL     1      20.026  12.758  33.686  1.00  0.00     0.050 C 
HETATM    5  C5  UNL     1      21.521  10.729  33.426  1.00  0.00     0.035 A 
HETATM    6  C6  UNL     1      21.560   9.329  33.342  1.00  0.00     0.164 A 
HETATM    7  N1  UNL     1      22.771   8.967  32.904  1.00  0.00    -0.335 N 
ATOM      8  H1  UNL     1      23.084   8.010  32.739  1.00  0.00     0.168 HD
HETATM    9  C7  UNL     1      23.501  10.069  32.719  1.00  0.00     0.053 A 
HETATM   10  C8  UNL     1      24.806  10.203  32.282  1.00  0.00    -0.016 A 
HETATM   11  C9  UNL     1      25.578   8.985  31.924  1.00  0.00     0.052 C 
HETATM   12  C10 UNL     1      25.353  11.447  32.187  1.00  0.00     0.067 A 
HETATM   13  C11 UNL     1      24.627  12.554  32.527  1.00  0.00     0.058 A 
HETATM   14  C12 UNL     1      23.292  12.448  32.980  1.00  0.00    -0.021 A 
HETATM   15  C13 UNL     1      22.783  13.690  33.570  1.00  0.00     0.052 C 
HETATM   16  C14 UNL     1      22.753  11.203  33.050  1.00  0.00     0.014 A 
HETATM   17  N2  UNL     1      25.717  13.423  32.205  1.00  0.00    -0.321 N 
ATOM     18  H2  UNL     1      25.876  14.431  32.225  1.00  0.00     0.169 HD
HETATM   19  C15 UNL     1      26.476  12.290  31.851  1.00  0.00     0.259 A 
HETATM   20  O1  UNL     1      27.667  12.110  31.415  1.00  0.00    -0.267 OA
HETATM   21  O2  UNL     1      20.514   8.616  33.659  1.00  0.00    -0.257 OA
HETATM   22  C16 UNL     1      19.408   9.164  34.058  1.00  0.00     0.296 A 
HETATM   23  O3  UNL     1      18.442   8.414  34.355  1.00  0.00    -0.259 OA
ENDROOT
TORSDOF 0
ENDMDL
MODEL 4
REMARK VINA RESULT: -9.584612568      1.688      6.506
REMARK  0 active torsions:
REMARK  status: ('A' for Active; 'I' for Inactive)
ROOT
HETATM    1  C1  UNL     1      17.984   9.284  35.144  1.00  0.00     0.055 C 
HETATM    2  C2  UNL     1      19.248   9.140  34.413  1.00  0.00     0.021 A 
HETATM    3  C3  UNL     1      19.991  10.284  34.100  1.00  0.00    -0.035 A 
HETATM    4  C4  UNL     1      19.246  11.529  34.278  1.00  0.00     0.050 C 
HETATM    5  C5  UNL     1      21.171  10.111  33.440  1.00  0.00     0.035 A 
HETATM    6  C6  UNL     1      21.581   8.817  33.085  1.00  0.00     0.164 A 
HETATM    7  N1  UNL     1      22.744   8.908  32.429  1.00  0.00    -0.335 N 
ATOM      8  H1  UNL     1      23.274   8.125  32.045  1.00  0.00     0.168 HD
HETATM    9  C7  UNL     1      23.093  10.194  32.364  1.00  0.00     0.053 A 
HETATM   10  C8  UNL     1      24.206  10.780  31.791  1.00  0.00    -0.016 A 
HETATM   11  C9  UNL     1      25.207   9.920  31.109  1.00  0.00     0.052 C 
HETATM   12  C10 UNL     1      24.360  12.132  31.865  1.00  0.00     0.067 A 
HETATM   13  C11 UNL     1      23.431  12.904  32.503  1.00  0.00     0.058 A 
HETATM   14  C12 UNL     1      22.284  12.333  33.100  1.00  0.00    -0.021 A 
HETATM   15  C13 UNL     1      21.568  13.262  33.979  1.00  0.00     0.052 C 
HETATM   16  C14 UNL     1      22.134  10.986  33.001  1.00  0.00     0.014 A 
HETATM   17  N2  UNL     1      24.159  14.101  32.212  1.00  0.00    -0.321 N 
ATOM     18  H2  UNL     1      24.034  15.095  32.403  1.00  0.00     0.169 HD
HETATM   19  C15 UNL     1      25.125  13.316  31.551  1.00  0.00     0.259 A 
HETATM   20  O1  UNL     1      26.218  13.572  30.934  1.00  0.00    -0.267 OA
HETATM   21  O2  UNL     1      20.849   7.781  33.395  1.00  0.00    -0.257 OA
HETATM   22  C16 UNL     1      19.727   7.903  34.035  1.00  0.00     0.296 A 
HETATM   23  O3  UNL     1      19.078   6.860  34.308  1.00  0.00    -0.259 OA
ENDROOT
TORSDOF 0
ENDMDL
MODEL 5
REMARK VINA RESULT: -9.324102306      1.590      5.861
REMARK  0 active torsions:
REMARK  status: ('A' for Active; 'I' for Inactive)
ROOT
HETATM    1  C1  UNL     1      19.868   7.211  33.919  1.00  0.00     0.055 C 
HETATM    2  C2  UNL     1      20.187   8.643  33.853  1.00  0.00     0.021 A 
HETATM    3  C3  UNL     1      21.485   9.040  33.515  1.00  0.00    -0.035 A 
HETATM    4  C4  UNL     1      22.459   7.951  33.568  1.00  0.00     0.050 C 
HETATM    5  C5  UNL     1      21.740  10.377  33.442  1.00  0.00     0.035 A 
HETATM    6  C6  UNL     1      20.714  11.291  33.725  1.00  0.00     0.164 A 
HETATM    7  N1  UNL     1      21.210  12.529  33.614  1.00  0.00    -0.335 N 
ATOM      8  H1  UNL     1      20.693  13.395  33.770  1.00  0.00     0.168 HD
HETATM    9  C7  UNL     1      22.494  12.440  33.264  1.00  0.00     0.053 A 
HETATM   10  C8  UNL     1      23.419  13.441  33.029  1.00  0.00    -0.016 A 
HETATM   11  C9  UNL     1      23.006  14.860  33.186  1.00  0.00     0.052 C 
HETATM   12  C10 UNL     1      24.687  13.104  32.659  1.00  0.00     0.067 A 
HETATM   13  C11 UNL     1      25.044  11.794  32.514  1.00  0.00     0.058 A 
HETATM   14  C12 UNL     1      24.120  10.749  32.745  1.00  0.00    -0.021 A 
HETATM   15  C13 UNL     1      24.588   9.447  32.259  1.00  0.00     0.052 C 
HETATM   16  C14 UNL     1      22.866  11.099  33.132  1.00  0.00     0.014 A 
HETATM   17  N2  UNL     1      26.383  12.151  32.157  1.00  0.00    -0.321 N 
ATOM     18  H2  UNL     1      27.230  11.643  31.903  1.00  0.00     0.169 HD
HETATM   19  C15 UNL     1      26.027  13.507  32.304  1.00  0.00     0.259 A 
HETATM   20  O1  UNL     1      26.653  14.617  32.171  1.00  0.00    -0.267 OA
HETATM   21  O2  UNL     1      19.519  10.871  34.041  1.00  0.00    -0.257 OA
HETATM   22  C16 UNL     1      19.234   9.607  34.108  1.00  0.00     0.296 A 
HETATM   23  O3  UNL     1      18.059   9.274  34.411  1.00  0.00    -0.259 OA
ENDROOT
TORSDOF 0
ENDMDL
