MODEL 1
REMARK VINA RESULT: -5.023232612      0.000      0.000
REMARK  0 active torsions:
REMARK  status: ('A' for Active; 'I' for Inactive)
ROOT
HETATM    1  C1  UNL     1      27.938   6.449   2.541  1.00  0.00     0.040 C 
HETATM    2  C2  UNL     1      27.321   6.115   3.880  1.00  0.00     0.181 C 
HETATM    3  C3  UNL     1      26.186   5.118   3.663  1.00  0.00     0.032 C 
HETATM    4  C4  UNL     1      25.209   5.162   4.838  1.00  0.00     0.004 C 
HETATM    5  C5  UNL     1      26.058   5.515   6.050  1.00  0.00     0.027 C 
HETATM    6  C6  UNL     1      26.619   6.914   5.954  1.00  0.00     0.232 C 
HETATM    7  N1  UNL     1      26.828   7.306   4.563  1.00  0.00    -0.071 N 
ATOM      8  H11 UNL     1      26.001   7.713   4.125  1.00  0.00     0.277 HD
ATOM      9  H12 UNL     1      27.436   8.118   4.455  1.00  0.00     0.277 HD
ENDROOT
TORSDOF 0
ENDMDL
MODEL 2
REMARK VINA RESULT: -4.727982044      1.031      1.074
REMARK  0 active torsions:
REMARK  status: ('A' for Active; 'I' for Inactive)
ROOT
HETATM    1  C1  UNL     1      27.447   4.799   2.428  1.00  0.00     0.040 C 
HETATM    2  C2  UNL     1      27.216   5.383   3.803  1.00  0.00     0.181 C 
HETATM    3  C3  UNL     1      25.967   4.745   4.405  1.00  0.00     0.032 C 
HETATM    4  C4  UNL     1      25.387   5.643   5.498  1.00  0.00     0.004 C 
HETATM    5  C5  UNL     1      26.586   6.349   6.113  1.00  0.00     0.027 C 
HETATM    6  C6  UNL     1      27.242   7.295   5.135  1.00  0.00     0.232 C 
HETATM    7  N1  UNL     1      27.076   6.834   3.760  1.00  0.00    -0.071 N 
ATOM      8  H11 UNL     1      26.206   7.146   3.327  1.00  0.00     0.277 HD
ATOM      9  H12 UNL     1      27.710   7.285   3.099  1.00  0.00     0.277 HD
ENDROOT
TORSDOF 0
ENDMDL
MODEL 3
REMARK VINA RESULT: -4.576180375      0.997      2.659
REMARK  0 active torsions:
REMARK  status: ('A' for Active; 'I' for Inactive)
ROOT
HETATM    1  C1  UNL     1      26.375   7.280   5.984  1.00  0.00     0.040 C 
HETATM    2  C2  UNL     1      26.518   6.604   4.640  1.00  0.00     0.181 C 
HETATM    3  C3  UNL     1      26.097   5.144   4.777  1.00  0.00     0.032 C 
HETATM    4  C4  UNL     1      26.713   4.306   3.656  1.00  0.00     0.004 C 
HETATM    5  C5  UNL     1      26.813   5.246   2.464  1.00  0.00     0.027 C 
HETATM    6  C6  UNL     1      27.803   6.361   2.710  1.00  0.00     0.232 C 
HETATM    7  N1  UNL     1      27.882   6.695   4.130  1.00  0.00    -0.071 N 
ATOM      8  H11 UNL     1      28.549   6.122   4.646  1.00  0.00     0.277 HD
ATOM      9  H12 UNL     1      28.326   7.595   4.312  1.00  0.00     0.277 HD
ENDROOT
TORSDOF 0
ENDMDL
MODEL 4
REMARK VINA RESULT: -4.558239659      1.335      2.068
REMARK  0 active torsions:
REMARK  status: ('A' for Active; 'I' for Inactive)
ROOT
HETATM    1  C1  UNL     1      26.933   4.991   2.435  1.00  0.00     0.040 C 
HETATM    2  C2  UNL     1      26.528   5.635   3.740  1.00  0.00     0.181 C 
HETATM    3  C3  UNL     1      27.428   6.841   3.993  1.00  0.00     0.032 C 
HETATM    4  C4  UNL     1      27.445   7.189   5.482  1.00  0.00     0.004 C 
HETATM    5  C5  UNL     1      26.067   6.801   5.998  1.00  0.00     0.027 C 
HETATM    6  C6  UNL     1      25.849   5.307   5.946  1.00  0.00     0.232 C 
HETATM    7  N1  UNL     1      26.606   4.699   4.856  1.00  0.00    -0.071 N 
ATOM      8  H11 UNL     1      27.562   4.451   5.113  1.00  0.00     0.277 HD
ATOM      9  H12 UNL     1      26.295   3.757   4.619  1.00  0.00     0.277 HD
ENDROOT
TORSDOF 0
ENDMDL
MODEL 5
REMARK VINA RESULT: -4.517086723      1.218      2.199
REMARK  0 active torsions:
REMARK  status: ('A' for Active; 'I' for Inactive)
ROOT
HETATM    1  C1  UNL     1      28.256   7.972   4.814  1.00  0.00     0.040 C 
HETATM    2  C2  UNL     1      27.071   7.045   4.671  1.00  0.00     0.181 C 
HETATM    3  C3  UNL     1      26.598   6.634   6.062  1.00  0.00     0.032 C 
HETATM    4  C4  UNL     1      25.803   5.329   5.990  1.00  0.00     0.004 C 
HETATM    5  C5  UNL     1      25.120   5.354   4.630  1.00  0.00     0.027 C 
HETATM    6  C6  UNL     1      26.119   5.269   3.500  1.00  0.00     0.232 C 
HETATM    7  N1  UNL     1      27.397   5.866   3.876  1.00  0.00    -0.071 N 
ATOM      8  H11 UNL     1      28.026   5.217   4.349  1.00  0.00     0.277 HD
ATOM      9  H12 UNL     1      28.003   6.067   3.080  1.00  0.00     0.277 HD
ENDROOT
TORSDOF 0
ENDMDL
