MODEL 1
REMARK VINA RESULT: -4.631202954      0.000      0.000
REMARK  1 active torsions:
REMARK  status: ('A' for Active; 'I' for Inactive)
REMARK    1  A    between atoms: C6_6  and  N1_7 
ROOT
HETATM    1  C1  UNL     1      24.708   5.593   4.156  1.00  0.00     0.017 C 
HETATM    2  C2  UNL     1      26.207   5.670   4.277  1.00  0.00    -0.019 C 
HETATM    3  C3  UNL     1      26.915   4.889   3.227  1.00  0.00     0.017 C 
HETATM    4  C4  UNL     1      26.681   5.416   5.711  1.00  0.00     0.013 C 
HETATM    5  C5  UNL     1      26.394   6.905   5.952  1.00  0.00     0.034 C 
HETATM    6  C6  UNL     1      26.697   7.105   4.471  1.00  0.00     0.191 C 
ENDROOT
BRANCH   6   7
HETATM    7  N1  UNL     1      28.103   7.297   4.265  1.00  0.00    -0.074 N 
ATOM      8  H13 UNL     1      28.613   6.443   4.495  1.00  0.00     0.274 HD
ATOM      9  H12 UNL     1      28.307   7.362   3.267  1.00  0.00     0.274 HD
ATOM     10  H11 UNL     1      28.507   8.093   4.760  1.00  0.00     0.274 HD
ENDBRANCH   6   7
TORSDOF 1
ENDMDL
MODEL 2
REMARK VINA RESULT: -4.192246549      0.902      2.391
REMARK  1 active torsions:
REMARK  status: ('A' for Active; 'I' for Inactive)
REMARK    1  A    between atoms: C6_6  and  N1_7 
ROOT
HETATM    1  C1  UNL     1      26.338   5.057   6.200  1.00  0.00     0.017 C 
HETATM    2  C2  UNL     1      26.353   6.186   5.202  1.00  0.00    -0.019 C 
HETATM    3  C3  UNL     1      26.436   7.526   5.843  1.00  0.00     0.017 C 
HETATM    4  C4  UNL     1      25.254   6.034   4.146  1.00  0.00     0.013 C 
HETATM    5  C5  UNL     1      26.242   5.117   3.411  1.00  0.00     0.034 C 
HETATM    6  C6  UNL     1      27.346   5.939   4.067  1.00  0.00     0.191 C 
ENDROOT
BRANCH   6   7
HETATM    7  N1  UNL     1      27.656   7.092   3.273  1.00  0.00    -0.074 N 
ATOM      8  H13 UNL     1      26.829   7.400   2.760  1.00  0.00     0.274 HD
ATOM      9  H12 UNL     1      27.806   7.903   3.873  1.00  0.00     0.274 HD
ATOM     10  H11 UNL     1      28.444   6.976   2.634  1.00  0.00     0.274 HD
ENDBRANCH   6   7
TORSDOF 1
ENDMDL
MODEL 3
REMARK VINA RESULT: -4.025203954      1.598      2.505
REMARK  1 active torsions:
REMARK  status: ('A' for Active; 'I' for Inactive)
REMARK    1  A    between atoms: C6_6  and  N1_7 
ROOT
HETATM    1  C1  UNL     1      26.854   7.054   5.906  1.00  0.00     0.017 C 
HETATM    2  C2  UNL     1      26.651   6.419   4.556  1.00  0.00    -0.019 C 
HETATM    3  C3  UNL     1      27.543   6.986   3.508  1.00  0.00     0.017 C 
HETATM    4  C4  UNL     1      25.170   6.335   4.177  1.00  0.00     0.013 C 
HETATM    5  C5  UNL     1      25.147   5.039   5.001  1.00  0.00     0.034 C 
HETATM    6  C6  UNL     1      26.619   4.893   4.635  1.00  0.00     0.191 C 
ENDROOT
BRANCH   6   7
HETATM    7  N1  UNL     1      26.762   4.218   3.377  1.00  0.00    -0.074 N 
ATOM      8  H13 UNL     1      25.850   3.917   3.033  1.00  0.00     0.274 HD
ATOM      9  H12 UNL     1      27.016   4.884   2.647  1.00  0.00     0.274 HD
ATOM     10  H11 UNL     1      27.415   3.434   3.380  1.00  0.00     0.274 HD
ENDBRANCH   6   7
TORSDOF 1
ENDMDL
MODEL 4
REMARK VINA RESULT: -3.614464748      1.240      2.468
REMARK  1 active torsions:
REMARK  status: ('A' for Active; 'I' for Inactive)
REMARK    1  A    between atoms: C6_6  and  N1_7 
ROOT
HETATM    1  C1  UNL     1      26.517   6.249   6.216  1.00  0.00     0.017 C 
HETATM    2  C2  UNL     1      26.423   6.383   4.719  1.00  0.00    -0.019 C 
HETATM    3  C3  UNL     1      26.702   7.764   4.241  1.00  0.00     0.017 C 
HETATM    4  C4  UNL     1      25.147   5.744   4.164  1.00  0.00     0.013 C 
HETATM    5  C5  UNL     1      25.929   4.423   4.188  1.00  0.00     0.034 C 
HETATM    6  C6  UNL     1      27.181   5.272   3.992  1.00  0.00     0.191 C 
ENDROOT
BRANCH   6   7
HETATM    7  N1  UNL     1      27.415   5.511   2.597  1.00  0.00    -0.074 N 
ATOM      8  H13 UNL     1      27.457   4.627   2.090  1.00  0.00     0.274 HD
ATOM      9  H12 UNL     1      26.587   5.924   2.167  1.00  0.00     0.274 HD
ATOM     10  H11 UNL     1      28.238   6.077   2.389  1.00  0.00     0.274 HD
ENDBRANCH   6   7
TORSDOF 1
ENDMDL
MODEL 5
REMARK VINA RESULT: -3.506826547      1.156      2.293
REMARK  1 active torsions:
REMARK  status: ('A' for Active; 'I' for Inactive)
REMARK    1  A    between atoms: C6_6  and  N1_7 
ROOT
HETATM    1  C1  UNL     1      26.190   4.891   4.612  1.00  0.00     0.017 C 
HETATM    2  C2  UNL     1      26.573   6.326   4.864  1.00  0.00    -0.019 C 
HETATM    3  C3  UNL     1      26.292   6.765   6.257  1.00  0.00     0.017 C 
HETATM    4  C4  UNL     1      26.054   7.260   3.767  1.00  0.00     0.013 C 
HETATM    5  C5  UNL     1      27.314   6.862   2.985  1.00  0.00     0.034 C 
HETATM    6  C6  UNL     1      27.973   6.649   4.343  1.00  0.00     0.191 C 
ENDROOT
BRANCH   6   7
HETATM    7  N1  UNL     1      28.532   7.876   4.831  1.00  0.00    -0.074 N 
ATOM      8  H13 UNL     1      28.670   8.532   4.061  1.00  0.00     0.274 HD
ATOM      9  H12 UNL     1      27.837   8.387   5.377  1.00  0.00     0.274 HD
ATOM     10  H11 UNL     1      29.395   7.775   5.367  1.00  0.00     0.274 HD
ENDBRANCH   6   7
TORSDOF 1
ENDMDL
