MODEL 1
REMARK VINA RESULT: -3.845253066      0.000      0.000
REMARK  1 active torsions:
REMARK  status: ('A' for Active; 'I' for Inactive)
REMARK    1  A    between atoms: N1_2  and  C2_4 
ROOT
HETATM    1  C2  UNL     1      26.158   5.567   4.552  1.00  0.00     0.014 C 
HETATM    2  C3  UNL     1      24.740   5.887   4.089  1.00  0.00     0.037 C 
HETATM    3  C4  UNL     1      26.110   5.439   6.049  1.00  0.00     0.037 C 
HETATM    4  C5  UNL     1      26.619   4.302   3.879  1.00  0.00     0.037 C 
ENDROOT
BRANCH   1   5
HETATM    5  N1  UNL     1      26.992   6.635   4.083  1.00  0.00    -0.418 N 
HETATM    6  C1  UNL     1      27.749   6.338   2.908  1.00  0.00     0.140 C 
ATOM      7  H1  UNL     1      27.042   7.539   4.553  1.00  0.00     0.153 HD
ENDBRANCH   1   5
TORSDOF 1
ENDMDL
MODEL 2
REMARK VINA RESULT: -3.799835069      0.107      1.748
REMARK  1 active torsions:
REMARK  status: ('A' for Active; 'I' for Inactive)
REMARK    1  A    between atoms: N1_2  and  C2_4 
ROOT
HETATM    1  C2  UNL     1      26.070   5.609   4.557  1.00  0.00     0.014 C 
HETATM    2  C3  UNL     1      26.589   4.345   3.878  1.00  0.00     0.037 C 
HETATM    3  C4  UNL     1      24.674   5.837   4.048  1.00  0.00     0.037 C 
HETATM    4  C5  UNL     1      26.116   5.417   6.049  1.00  0.00     0.037 C 
ENDROOT
BRANCH   1   5
HETATM    5  N1  UNL     1      26.991   6.658   4.226  1.00  0.00    -0.418 N 
HETATM    6  C1  UNL     1      27.731   6.453   3.021  1.00  0.00     0.140 C 
ATOM      7  H1  UNL     1      27.109   7.487   4.809  1.00  0.00     0.153 HD
ENDBRANCH   1   5
TORSDOF 1
ENDMDL
MODEL 3
REMARK VINA RESULT: -3.785446266      0.127      1.745
REMARK  1 active torsions:
REMARK  status: ('A' for Active; 'I' for Inactive)
REMARK    1  A    between atoms: N1_2  and  C2_4 
ROOT
HETATM    1  C2  UNL     1      26.112   5.570   4.508  1.00  0.00     0.014 C 
HETATM    2  C3  UNL     1      26.124   5.419   6.026  1.00  0.00     0.037 C 
HETATM    3  C4  UNL     1      26.611   4.273   3.936  1.00  0.00     0.037 C 
HETATM    4  C5  UNL     1      24.712   5.898   4.060  1.00  0.00     0.037 C 
ENDROOT
BRANCH   1   5
HETATM    5  N1  UNL     1      26.940   6.700   4.203  1.00  0.00    -0.418 N 
HETATM    6  C1  UNL     1      27.760   6.552   3.042  1.00  0.00     0.140 C 
ATOM      7  H1  UNL     1      26.944   7.547   4.773  1.00  0.00     0.153 HD
ENDBRANCH   1   5
TORSDOF 1
ENDMDL
MODEL 4
REMARK VINA RESULT: -3.773320848      1.267      1.783
REMARK  1 active torsions:
REMARK  status: ('A' for Active; 'I' for Inactive)
REMARK    1  A    between atoms: N1_2  and  C2_4 
ROOT
HETATM    1  C2  UNL     1      26.051   5.570   4.592  1.00  0.00     0.014 C 
HETATM    2  C3  UNL     1      26.917   6.789   4.291  1.00  0.00     0.037 C 
HETATM    3  C4  UNL     1      26.064   5.382   6.083  1.00  0.00     0.037 C 
HETATM    4  C5  UNL     1      24.666   5.808   4.052  1.00  0.00     0.037 C 
ENDROOT
BRANCH   1   5
HETATM    5  N1  UNL     1      26.618   4.475   3.859  1.00  0.00    -0.418 N 
HETATM    6  C1  UNL     1      27.300   4.842   2.658  1.00  0.00     0.140 C 
ATOM      7  H1  UNL     1      26.541   3.507   4.172  1.00  0.00     0.153 HD
ENDBRANCH   1   5
TORSDOF 1
ENDMDL
MODEL 5
REMARK VINA RESULT: -3.740294110      1.272      1.787
REMARK  1 active torsions:
REMARK  status: ('A' for Active; 'I' for Inactive)
REMARK    1  A    between atoms: N1_2  and  C2_4 
ROOT
HETATM    1  C2  UNL     1      26.129   5.624   4.599  1.00  0.00     0.014 C 
HETATM    2  C3  UNL     1      24.711   5.850   4.081  1.00  0.00     0.037 C 
HETATM    3  C4  UNL     1      26.894   6.893   4.344  1.00  0.00     0.037 C 
HETATM    4  C5  UNL     1      26.065   5.272   6.061  1.00  0.00     0.037 C 
ENDROOT
BRANCH   1   5
HETATM    5  N1  UNL     1      26.642   4.482   3.900  1.00  0.00    -0.418 N 
HETATM    6  C1  UNL     1      27.289   4.773   2.660  1.00  0.00     0.140 C 
ATOM      7  H1  UNL     1      26.552   3.532   4.262  1.00  0.00     0.153 HD
ENDBRANCH   1   5
TORSDOF 1
ENDMDL
