MODEL 1
REMARK VINA RESULT: -5.256495674      0.000      0.000
REMARK  0 active torsions:
REMARK  status: ('A' for Active; 'I' for Inactive)
ROOT
HETATM    1  F1  UNL     1      26.577   4.199   3.857  1.00  0.00    -0.249 F 
HETATM    2  C1  UNL     1      25.578   4.869   4.544  1.00  0.00     0.171 C 
HETATM    3  C2  UNL     1      25.950   5.030   5.980  1.00  0.00     0.037 C 
HETATM    4  C3  UNL     1      25.975   6.453   6.445  1.00  0.00     0.004 C 
HETATM    5  C4  UNL     1      26.799   7.352   5.573  1.00  0.00     0.016 C 
HETATM    6  C5  UNL     1      26.389   7.205   4.130  1.00  0.00     0.061 C 
HETATM    7  S1  UNL     1      27.861   6.841   3.162  1.00  0.00    -0.092 SA
HETATM    8  C6  UNL     1      25.289   6.211   3.943  1.00  0.00     0.053 C 
ENDROOT
TORSDOF 0
ENDMDL
MODEL 2
REMARK VINA RESULT: -5.213611614      1.023      1.179
REMARK  0 active torsions:
REMARK  status: ('A' for Active; 'I' for Inactive)
ROOT
HETATM    1  F1  UNL     1      27.274   5.329   3.072  1.00  0.00    -0.249 F 
HETATM    2  C1  UNL     1      26.033   5.329   3.687  1.00  0.00     0.171 C 
HETATM    3  C2  UNL     1      26.089   4.582   4.977  1.00  0.00     0.037 C 
HETATM    4  C3  UNL     1      25.673   5.390   6.166  1.00  0.00     0.004 C 
HETATM    5  C4  UNL     1      26.387   6.704   6.275  1.00  0.00     0.016 C 
HETATM    6  C5  UNL     1      26.293   7.463   4.977  1.00  0.00     0.061 C 
HETATM    7  S1  UNL     1      27.958   7.917   4.469  1.00  0.00    -0.092 SA
HETATM    8  C6  UNL     1      25.529   6.720   3.929  1.00  0.00     0.053 C 
ENDROOT
TORSDOF 0
ENDMDL
MODEL 3
REMARK VINA RESULT: -5.003091850      1.646      2.144
REMARK  0 active torsions:
REMARK  status: ('A' for Active; 'I' for Inactive)
ROOT
HETATM    1  F1  UNL     1      26.049   4.733   6.465  1.00  0.00    -0.249 F 
HETATM    2  C1  UNL     1      25.581   5.975   6.070  1.00  0.00     0.171 C 
HETATM    3  C2  UNL     1      26.674   6.988   6.131  1.00  0.00     0.037 C 
HETATM    4  C3  UNL     1      26.936   7.678   4.828  1.00  0.00     0.004 C 
HETATM    5  C4  UNL     1      27.143   6.732   3.683  1.00  0.00     0.016 C 
HETATM    6  C5  UNL     1      26.015   5.736   3.612  1.00  0.00     0.061 C 
HETATM    7  S1  UNL     1      26.724   4.083   3.595  1.00  0.00    -0.092 SA
HETATM    8  C6  UNL     1      24.999   5.940   4.689  1.00  0.00     0.053 C 
ENDROOT
TORSDOF 0
ENDMDL
MODEL 4
REMARK VINA RESULT: -4.835455325      2.329      3.328
REMARK  0 active torsions:
REMARK  status: ('A' for Active; 'I' for Inactive)
ROOT
HETATM    1  F1  UNL     1      27.936   7.548   5.597  1.00  0.00    -0.249 F 
HETATM    2  C1  UNL     1      27.431   7.727   4.320  1.00  0.00     0.171 C 
HETATM    3  C2  UNL     1      28.180   6.888   3.339  1.00  0.00     0.037 C 
HETATM    4  C3  UNL     1      27.317   5.937   2.570  1.00  0.00     0.004 C 
HETATM    5  C4  UNL     1      26.438   5.090   3.440  1.00  0.00     0.016 C 
HETATM    6  C5  UNL     1      25.662   5.952   4.402  1.00  0.00     0.061 C 
HETATM    7  S1  UNL     1      25.942   5.331   6.067  1.00  0.00    -0.092 SA
HETATM    8  C6  UNL     1      25.968   7.407   4.247  1.00  0.00     0.053 C 
ENDROOT
TORSDOF 0
ENDMDL
MODEL 5
REMARK VINA RESULT: -3.800869763      2.059      2.801
REMARK  0 active torsions:
REMARK  status: ('A' for Active; 'I' for Inactive)
ROOT
HETATM    1  F1  UNL     1      28.503   6.975   3.490  1.00  0.00    -0.249 F 
HETATM    2  C1  UNL     1      27.375   6.424   2.904  1.00  0.00     0.171 C 
HETATM    3  C2  UNL     1      27.425   4.935   2.973  1.00  0.00     0.037 C 
HETATM    4  C3  UNL     1      26.255   4.319   3.675  1.00  0.00     0.004 C 
HETATM    5  C4  UNL     1      25.990   4.911   5.027  1.00  0.00     0.016 C 
HETATM    6  C5  UNL     1      25.907   6.412   4.937  1.00  0.00     0.061 C 
HETATM    7  S1  UNL     1      27.053   7.112   6.134  1.00  0.00    -0.092 SA
HETATM    8  C6  UNL     1      26.113   6.918   3.546  1.00  0.00     0.053 C 
ENDROOT
TORSDOF 0
ENDMDL
