MODEL 1
REMARK VINA RESULT: -6.118338285      0.000      0.000
REMARK  1 active torsions:
REMARK  status: ('A' for Active; 'I' for Inactive)
REMARK    1  A    between atoms: C1_4  and  C2_5 
ROOT
HETATM    1  C2  UNL     1      26.764   7.198   4.441  1.00  0.00     0.023 C 
HETATM    2  C3  UNL     1      26.734   6.894   5.922  1.00  0.00     0.010 C 
HETATM    3  C4  UNL     1      25.694   5.873   6.237  1.00  0.00     0.001 C 
HETATM    4  C5  UNL     1      25.012   5.321   5.010  1.00  0.00     0.000 C 
HETATM    5  C6  UNL     1      26.006   4.867   3.967  1.00  0.00     0.001 C 
HETATM    6  C7  UNL     1      26.964   5.959   3.608  1.00  0.00     0.010 C 
ENDROOT
BRANCH   1   7
HETATM    7  C1  UNL     1      27.758   8.222   4.104  1.00  0.00     0.057 C 
HETATM    8  N1  UNL     1      28.705   8.597   4.884  1.00  0.00    -0.411 N 
ATOM      9  H12 UNL     1      28.756   8.142   5.795  1.00  0.00     0.155 HD
ATOM     10  H11 UNL     1      29.397   9.309   4.650  1.00  0.00     0.155 HD
ENDBRANCH   1   7
TORSDOF 1
ENDMDL
MODEL 2
REMARK VINA RESULT: -5.851553748      0.580      1.861
REMARK  1 active torsions:
REMARK  status: ('A' for Active; 'I' for Inactive)
REMARK    1  A    between atoms: C1_4  and  C2_5 
ROOT
HETATM    1  C2  UNL     1      27.248   6.886   4.721  1.00  0.00     0.023 C 
HETATM    2  C3  UNL     1      26.610   6.115   3.586  1.00  0.00     0.010 C 
HETATM    3  C4  UNL     1      25.956   4.871   4.087  1.00  0.00     0.001 C 
HETATM    4  C5  UNL     1      25.994   4.744   5.590  1.00  0.00     0.000 C 
HETATM    5  C6  UNL     1      25.509   5.999   6.276  1.00  0.00     0.001 C 
HETATM    6  C7  UNL     1      26.266   7.204   5.817  1.00  0.00     0.010 C 
ENDROOT
BRANCH   1   7
HETATM    7  C1  UNL     1      27.925   8.100   4.254  1.00  0.00     0.057 C 
HETATM    8  N1  UNL     1      28.793   8.753   4.936  1.00  0.00    -0.411 N 
ATOM      9  H12 UNL     1      29.016   8.390   5.862  1.00  0.00     0.155 HD
ATOM     10  H11 UNL     1      29.265   9.598   4.611  1.00  0.00     0.155 HD
ENDBRANCH   1   7
TORSDOF 1
ENDMDL
MODEL 3
REMARK VINA RESULT: -5.731534104      1.304      2.327
REMARK  1 active torsions:
REMARK  status: ('A' for Active; 'I' for Inactive)
REMARK    1  A    between atoms: C1_4  and  C2_5 
ROOT
HETATM    1  C2  UNL     1      27.215   6.182   3.754  1.00  0.00     0.023 C 
HETATM    2  C3  UNL     1      25.950   5.354   3.693  1.00  0.00     0.010 C 
HETATM    3  C4  UNL     1      25.377   5.155   5.056  1.00  0.00     0.001 C 
HETATM    4  C5  UNL     1      26.122   5.906   6.131  1.00  0.00     0.000 C 
HETATM    5  C6  UNL     1      26.326   7.358   5.769  1.00  0.00     0.001 C 
HETATM    6  C7  UNL     1      26.998   7.505   4.441  1.00  0.00     0.010 C 
ENDROOT
BRANCH   1   7
HETATM    7  C1  UNL     1      27.819   6.370   2.431  1.00  0.00     0.057 C 
HETATM    8  N1  UNL     1      28.209   7.500   1.967  1.00  0.00    -0.411 N 
ATOM      9  H12 UNL     1      28.084   8.312   2.571  1.00  0.00     0.155 HD
ATOM     10  H11 UNL     1      28.630   7.631   1.046  1.00  0.00     0.155 HD
ENDBRANCH   1   7
TORSDOF 1
ENDMDL
MODEL 4
REMARK VINA RESULT: -5.647018724      0.973      2.041
REMARK  1 active torsions:
REMARK  status: ('A' for Active; 'I' for Inactive)
REMARK    1  A    between atoms: C1_4  and  C2_5 
ROOT
HETATM    1  C2  UNL     1      27.254   6.859   4.288  1.00  0.00     0.023 C 
HETATM    2  C3  UNL     1      27.484   6.350   2.882  1.00  0.00     0.010 C 
HETATM    3  C4  UNL     1      27.018   4.940   2.742  1.00  0.00     0.001 C 
HETATM    4  C5  UNL     1      26.342   4.411   3.983  1.00  0.00     0.000 C 
HETATM    5  C6  UNL     1      25.274   5.352   4.489  1.00  0.00     0.001 C 
HETATM    6  C7  UNL     1      25.815   6.728   4.713  1.00  0.00     0.010 C 
ENDROOT
BRANCH   1   7
HETATM    7  C1  UNL     1      27.730   8.235   4.464  1.00  0.00     0.057 C 
HETATM    8  N1  UNL     1      28.896   8.549   4.895  1.00  0.00    -0.411 N 
ATOM      9  H12 UNL     1      29.522   7.778   5.126  1.00  0.00     0.155 HD
ATOM     10  H11 UNL     1      29.227   9.506   5.018  1.00  0.00     0.155 HD
ENDBRANCH   1   7
TORSDOF 1
ENDMDL
MODEL 5
REMARK VINA RESULT: -5.424237210      1.966      2.820
REMARK  1 active torsions:
REMARK  status: ('A' for Active; 'I' for Inactive)
REMARK    1  A    between atoms: C1_4  and  C2_5 
ROOT
HETATM    1  C2  UNL     1      26.962   5.863   3.830  1.00  0.00     0.023 C 
HETATM    2  C3  UNL     1      25.637   5.206   4.148  1.00  0.00     0.010 C 
HETATM    3  C4  UNL     1      25.243   5.458   5.565  1.00  0.00     0.001 C 
HETATM    4  C5  UNL     1      26.190   6.384   6.289  1.00  0.00     0.000 C 
HETATM    5  C6  UNL     1      26.459   7.646   5.504  1.00  0.00     0.001 C 
HETATM    6  C7  UNL     1      26.951   7.340   4.125  1.00  0.00     0.010 C 
ENDROOT
BRANCH   1   7
HETATM    7  C1  UNL     1      27.390   5.607   2.451  1.00  0.00     0.057 C 
HETATM    8  N1  UNL     1      27.590   4.440   1.959  1.00  0.00    -0.411 N 
ATOM      9  H12 UNL     1      27.437   3.648   2.581  1.00  0.00     0.155 HD
ATOM     10  H11 UNL     1      27.888   4.262   0.999  1.00  0.00     0.155 HD
ENDBRANCH   1   7
TORSDOF 1
ENDMDL
