MODEL 1
REMARK VINA RESULT: -5.492610456      0.000      0.000
REMARK  1 active torsions:
REMARK  status: ('A' for Active; 'I' for Inactive)
REMARK    1  A    between atoms: N1_2  and  C2_5 
ROOT
HETATM    1  C2  UNL     1      26.678   7.347   4.195  1.00  0.00     0.185 C 
HETATM    2  C3  UNL     1      26.833   5.949   3.631  1.00  0.00     0.033 C 
HETATM    3  C4  UNL     1      25.539   5.224   3.999  1.00  0.00     0.002 C 
HETATM    4  C5  UNL     1      25.509   5.029   5.471  1.00  0.00     0.000 C 
HETATM    5  C6  UNL     1      25.862   6.210   6.296  1.00  0.00     0.002 C 
HETATM    6  C7  UNL     1      26.749   7.215   5.695  1.00  0.00     0.033 C 
ENDROOT
BRANCH   1   7
HETATM    7  N1  UNL     1      27.775   8.181   3.789  1.00  0.00    -0.075 N 
HETATM    8  C1  UNL     1      28.528   8.733   4.873  1.00  0.00     0.267 C 
ATOM      9  H12 UNL     1      27.449   8.921   3.168  1.00  0.00     0.277 HD
ATOM     10  H11 UNL     1      28.388   7.676   3.149  1.00  0.00     0.277 HD
ENDBRANCH   1   7
TORSDOF 1
ENDMDL
MODEL 2
REMARK VINA RESULT: -5.486489449      0.944      1.295
REMARK  1 active torsions:
REMARK  status: ('A' for Active; 'I' for Inactive)
REMARK    1  A    between atoms: N1_2  and  C2_5 
ROOT
HETATM    1  C2  UNL     1      26.736   7.189   4.022  1.00  0.00     0.185 C 
HETATM    2  C3  UNL     1      26.488   5.718   3.757  1.00  0.00     0.033 C 
HETATM    3  C4  UNL     1      25.180   5.397   4.480  1.00  0.00     0.002 C 
HETATM    4  C5  UNL     1      25.417   5.476   5.944  1.00  0.00     0.000 C 
HETATM    5  C6  UNL     1      26.163   6.665   6.424  1.00  0.00     0.002 C 
HETATM    6  C7  UNL     1      27.089   7.309   5.482  1.00  0.00     0.033 C 
ENDROOT
BRANCH   1   7
HETATM    7  N1  UNL     1      27.870   7.652   3.271  1.00  0.00    -0.075 N 
HETATM    8  C1  UNL     1      28.131   6.907   2.077  1.00  0.00     0.267 C 
ATOM      9  H12 UNL     1      28.701   7.681   3.862  1.00  0.00     0.277 HD
ATOM     10  H11 UNL     1      27.774   8.645   3.058  1.00  0.00     0.277 HD
ENDBRANCH   1   7
TORSDOF 1
ENDMDL
MODEL 3
REMARK VINA RESULT: -5.477105877      1.056      2.177
REMARK  1 active torsions:
REMARK  status: ('A' for Active; 'I' for Inactive)
REMARK    1  A    between atoms: N1_2  and  C2_5 
ROOT
HETATM    1  C2  UNL     1      27.369   6.844   4.151  1.00  0.00     0.185 C 
HETATM    2  C3  UNL     1      26.370   7.524   5.065  1.00  0.00     0.033 C 
HETATM    3  C4  UNL     1      26.114   6.525   6.193  1.00  0.00     0.002 C 
HETATM    4  C5  UNL     1      25.375   5.363   5.636  1.00  0.00     0.000 C 
HETATM    5  C6  UNL     1      25.895   4.805   4.364  1.00  0.00     0.002 C 
HETATM    6  C7  UNL     1      26.633   5.715   3.476  1.00  0.00     0.033 C 
ENDROOT
BRANCH   1   7
HETATM    7  N1  UNL     1      27.805   7.743   3.120  1.00  0.00    -0.075 N 
HETATM    8  C1  UNL     1      28.074   7.114   1.863  1.00  0.00     0.267 C 
ATOM      9  H12 UNL     1      28.616   8.277   3.432  1.00  0.00     0.277 HD
ATOM     10  H11 UNL     1      27.133   8.502   3.002  1.00  0.00     0.277 HD
ENDBRANCH   1   7
TORSDOF 1
ENDMDL
MODEL 4
REMARK VINA RESULT: -5.232753316      1.846      3.582
REMARK  1 active torsions:
REMARK  status: ('A' for Active; 'I' for Inactive)
REMARK    1  A    between atoms: N1_2  and  C2_5 
ROOT
HETATM    1  C2  UNL     1      25.712   6.094   4.096  1.00  0.00     0.185 C 
HETATM    2  C3  UNL     1      26.700   6.965   4.845  1.00  0.00     0.033 C 
HETATM    3  C4  UNL     1      27.348   7.846   3.776  1.00  0.00     0.002 C 
HETATM    4  C5  UNL     1      28.193   6.988   2.906  1.00  0.00     0.000 C 
HETATM    5  C6  UNL     1      27.578   5.722   2.437  1.00  0.00     0.002 C 
HETATM    6  C7  UNL     1      26.527   5.128   3.275  1.00  0.00     0.033 C 
ENDROOT
BRANCH   1   7
HETATM    7  N1  UNL     1      24.928   5.316   5.014  1.00  0.00    -0.075 N 
HETATM    8  C1  UNL     1      25.455   5.266   6.344  1.00  0.00     0.267 C 
ATOM      9  H12 UNL     1      24.787   4.373   4.652  1.00  0.00     0.277 HD
ATOM     10  H11 UNL     1      23.962   5.644   5.026  1.00  0.00     0.277 HD
ENDBRANCH   1   7
TORSDOF 1
ENDMDL
MODEL 5
REMARK VINA RESULT: -5.200869805      1.365      1.962
REMARK  1 active torsions:
REMARK  status: ('A' for Active; 'I' for Inactive)
REMARK    1  A    between atoms: N1_2  and  C2_5 
ROOT
HETATM    1  C2  UNL     1      26.463   5.971   3.552  1.00  0.00     0.185 C 
HETATM    2  C3  UNL     1      26.257   4.705   4.359  1.00  0.00     0.033 C 
HETATM    3  C4  UNL     1      25.144   5.040   5.352  1.00  0.00     0.002 C 
HETATM    4  C5  UNL     1      25.667   6.025   6.333  1.00  0.00     0.000 C 
HETATM    5  C6  UNL     1      26.419   7.173   5.771  1.00  0.00     0.002 C 
HETATM    6  C7  UNL     1      27.095   6.975   4.481  1.00  0.00     0.033 C 
ENDROOT
BRANCH   1   7
HETATM    7  N1  UNL     1      27.390   5.741   2.480  1.00  0.00    -0.075 N 
HETATM    8  C1  UNL     1      28.138   6.897   2.088  1.00  0.00     0.267 C 
ATOM      9  H12 UNL     1      26.911   5.337   1.675  1.00  0.00     0.277 HD
ATOM     10  H11 UNL     1      28.019   4.972   2.711  1.00  0.00     0.277 HD
ENDBRANCH   1   7
TORSDOF 1
ENDMDL
