MODEL 1
REMARK VINA RESULT: -5.996777815      0.000      0.000
REMARK  1 active torsions:
REMARK  status: ('A' for Active; 'I' for Inactive)
REMARK    1  A    between atoms: C7_8  and  N1_9 
ROOT
HETATM    1  C1  UNL     1      25.629   5.188   5.943  1.00  0.00     0.054 C 
HETATM    2  C2  UNL     1      25.771   5.921   4.601  1.00  0.00     0.128 C 
HETATM    3  F1  UNL     1      24.454   6.226   4.226  1.00  0.00    -0.241 F 
HETATM    4  C3  UNL     1      26.381   4.990   3.639  1.00  0.00     0.045 C 
HETATM    5  C4  UNL     1      27.326   5.537   2.647  1.00  0.00     0.003 C 
HETATM    6  C5  UNL     1      28.020   6.793   3.018  1.00  0.00     0.002 C 
HETATM    7  C6  UNL     1      27.129   7.815   3.659  1.00  0.00     0.036 C 
HETATM    8  C7  UNL     1      26.489   7.190   4.866  1.00  0.00     0.222 C 
ENDROOT
BRANCH   8   9
HETATM    9  N1  UNL     1      27.449   7.082   5.973  1.00  0.00    -0.072 N 
ATOM     10  H13 UNL     1      28.017   7.926   6.048  1.00  0.00     0.274 HD
ATOM     11  H12 UNL     1      26.974   7.121   6.874  1.00  0.00     0.274 HD
ATOM     12  H11 UNL     1      28.038   6.251   5.908  1.00  0.00     0.274 HD
ENDBRANCH   8   9
TORSDOF 1
ENDMDL
MODEL 2
REMARK VINA RESULT: -5.471296670      1.740      3.276
REMARK  1 active torsions:
REMARK  status: ('A' for Active; 'I' for Inactive)
REMARK    1  A    between atoms: C7_8  and  N1_9 
ROOT
HETATM    1  C1  UNL     1      28.184   7.147   3.376  1.00  0.00     0.054 C 
HETATM    2  C2  UNL     1      26.840   7.143   4.120  1.00  0.00     0.128 C 
HETATM    3  F1  UNL     1      26.216   8.335   3.722  1.00  0.00    -0.241 F 
HETATM    4  C3  UNL     1      27.122   7.163   5.563  1.00  0.00     0.045 C 
HETATM    5  C4  UNL     1      26.229   6.400   6.456  1.00  0.00     0.003 C 
HETATM    6  C5  UNL     1      25.508   5.257   5.848  1.00  0.00     0.002 C 
HETATM    7  C6  UNL     1      24.934   5.549   4.494  1.00  0.00     0.036 C 
HETATM    8  C7  UNL     1      26.051   6.003   3.598  1.00  0.00     0.222 C 
ENDROOT
BRANCH   8   9
HETATM    9  N1  UNL     1      26.889   4.869   3.187  1.00  0.00    -0.072 N 
ATOM     10  H13 UNL     1      27.628   4.695   3.869  1.00  0.00     0.274 HD
ATOM     11  H12 UNL     1      26.379   3.989   3.268  1.00  0.00     0.274 HD
ATOM     12  H11 UNL     1      27.277   4.980   2.250  1.00  0.00     0.274 HD
ENDBRANCH   8   9
TORSDOF 1
ENDMDL
MODEL 3
REMARK VINA RESULT: -5.438081280      1.661      3.026
REMARK  1 active torsions:
REMARK  status: ('A' for Active; 'I' for Inactive)
REMARK    1  A    between atoms: C7_8  and  N1_9 
ROOT
HETATM    1  C1  UNL     1      28.153   8.132   4.686  1.00  0.00     0.054 C 
HETATM    2  C2  UNL     1      26.793   7.424   4.768  1.00  0.00     0.128 C 
HETATM    3  F1  UNL     1      25.852   8.457   4.648  1.00  0.00    -0.241 F 
HETATM    4  C3  UNL     1      26.694   6.785   6.090  1.00  0.00     0.045 C 
HETATM    5  C4  UNL     1      26.005   5.484   6.183  1.00  0.00     0.003 C 
HETATM    6  C5  UNL     1      25.974   4.663   4.949  1.00  0.00     0.002 C 
HETATM    7  C6  UNL     1      25.667   5.444   3.706  1.00  0.00     0.036 C 
HETATM    8  C7  UNL     1      26.681   6.546   3.580  1.00  0.00     0.222 C 
ENDROOT
BRANCH   8   9
HETATM    9  N1  UNL     1      27.978   6.019   3.136  1.00  0.00    -0.072 N 
ATOM     10  H13 UNL     1      27.862   5.136   2.639  1.00  0.00     0.274 HD
ATOM     11  H12 UNL     1      28.363   6.585   2.380  1.00  0.00     0.274 HD
ATOM     12  H11 UNL     1      28.650   5.923   3.897  1.00  0.00     0.274 HD
ENDBRANCH   8   9
TORSDOF 1
ENDMDL
MODEL 4
REMARK VINA RESULT: -5.341307803      1.258      1.568
REMARK  1 active torsions:
REMARK  status: ('A' for Active; 'I' for Inactive)
REMARK    1  A    between atoms: C7_8  and  N1_9 
ROOT
HETATM    1  C1  UNL     1      26.678   7.326   6.039  1.00  0.00     0.054 C 
HETATM    2  C2  UNL     1      26.431   7.181   4.530  1.00  0.00     0.128 C 
HETATM    3  F1  UNL     1      25.200   7.818   4.313  1.00  0.00    -0.241 F 
HETATM    4  C3  UNL     1      26.332   5.745   4.224  1.00  0.00     0.045 C 
HETATM    5  C4  UNL     1      26.885   5.269   2.941  1.00  0.00     0.003 C 
HETATM    6  C5  UNL     1      27.961   6.092   2.340  1.00  0.00     0.002 C 
HETATM    7  C6  UNL     1      27.703   7.568   2.398  1.00  0.00     0.036 C 
HETATM    8  C7  UNL     1      27.487   7.952   3.834  1.00  0.00     0.222 C 
ENDROOT
BRANCH   8   9
HETATM    9  N1  UNL     1      28.759   7.971   4.570  1.00  0.00    -0.072 N 
ATOM     10  H13 UNL     1      29.341   8.754   4.274  1.00  0.00     0.274 HD
ATOM     11  H12 UNL     1      28.613   8.233   5.545  1.00  0.00     0.274 HD
ATOM     12  H11 UNL     1      29.270   7.091   4.502  1.00  0.00     0.274 HD
ENDBRANCH   8   9
TORSDOF 1
ENDMDL
MODEL 5
REMARK VINA RESULT: -4.995200746      1.108      1.772
REMARK  1 active torsions:
REMARK  status: ('A' for Active; 'I' for Inactive)
REMARK    1  A    between atoms: C7_8  and  N1_9 
ROOT
HETATM    1  C1  UNL     1      26.180   4.181   4.115  1.00  0.00     0.054 C 
HETATM    2  C2  UNL     1      26.089   5.712   4.030  1.00  0.00     0.128 C 
HETATM    3  F1  UNL     1      24.881   5.954   3.359  1.00  0.00    -0.241 F 
HETATM    4  C3  UNL     1      27.230   6.189   3.233  1.00  0.00     0.045 C 
HETATM    5  C4  UNL     1      27.859   7.467   3.616  1.00  0.00     0.003 C 
HETATM    6  C5  UNL     1      27.709   7.878   5.032  1.00  0.00     0.002 C 
HETATM    7  C6  UNL     1      26.330   7.672   5.584  1.00  0.00     0.036 C 
HETATM    8  C7  UNL     1      25.967   6.223   5.415  1.00  0.00     0.222 C 
ENDROOT
BRANCH   8   9
HETATM    9  N1  UNL     1      26.671   5.387   6.396  1.00  0.00    -0.072 N 
ATOM     10  H13 UNL     1      27.341   4.770   5.937  1.00  0.00     0.274 HD
ATOM     11  H12 UNL     1      27.317   5.945   6.955  1.00  0.00     0.274 HD
ATOM     12  H11 UNL     1      26.037   4.857   6.994  1.00  0.00     0.274 HD
ENDBRANCH   8   9
TORSDOF 1
ENDMDL
