MODEL 1
REMARK VINA RESULT: -5.291001142      0.000      0.000
REMARK  0 active torsions:
REMARK  status: ('A' for Active; 'I' for Inactive)
ROOT
HETATM    1  C1  UNL     1      26.357   6.867   6.176  1.00  0.00     0.001 C 
HETATM    2  C2  UNL     1      26.075   5.376   6.307  1.00  0.00     0.005 C 
HETATM    3  C3  UNL     1      25.504   5.082   4.925  1.00  0.00    -0.010 A 
HETATM    4  C4  UNL     1      26.377   4.608   3.833  1.00  0.00     0.010 A 
HETATM    5  C5  UNL     1      26.148   6.080   3.986  1.00  0.00    -0.010 A 
HETATM    6  C6  UNL     1      27.084   6.905   4.842  1.00  0.00     0.005 C 
ENDROOT
TORSDOF 0
ENDMDL
MODEL 2
REMARK VINA RESULT: -5.093679818      0.862      2.631
REMARK  0 active torsions:
REMARK  status: ('A' for Active; 'I' for Inactive)
ROOT
HETATM    1  C1  UNL     1      26.955   5.333   2.907  1.00  0.00     0.001 C 
HETATM    2  C2  UNL     1      27.383   6.506   3.780  1.00  0.00     0.005 C 
HETATM    3  C3  UNL     1      26.165   6.633   4.686  1.00  0.00    -0.010 A 
HETATM    4  C4  UNL     1      26.121   5.947   5.992  1.00  0.00     0.010 A 
HETATM    5  C5  UNL     1      25.574   5.243   4.789  1.00  0.00    -0.010 A 
HETATM    6  C6  UNL     1      26.474   4.351   3.962  1.00  0.00     0.005 C 
ENDROOT
TORSDOF 0
ENDMDL
MODEL 3
REMARK VINA RESULT: -5.032105028      0.577      2.551
REMARK  0 active torsions:
REMARK  status: ('A' for Active; 'I' for Inactive)
ROOT
HETATM    1  C1  UNL     1      25.491   4.917   4.714  1.00  0.00     0.001 C 
HETATM    2  C2  UNL     1      26.522   5.595   3.821  1.00  0.00     0.005 C 
HETATM    3  C3  UNL     1      26.589   6.970   4.473  1.00  0.00    -0.010 A 
HETATM    4  C4  UNL     1      27.598   7.266   5.508  1.00  0.00     0.010 A 
HETATM    5  C5  UNL     1      26.257   6.757   5.935  1.00  0.00    -0.010 A 
HETATM    6  C6  UNL     1      26.029   5.269   6.091  1.00  0.00     0.005 C 
ENDROOT
TORSDOF 0
ENDMDL
MODEL 4
REMARK VINA RESULT: -4.981784637      0.697      2.168
REMARK  0 active torsions:
REMARK  status: ('A' for Active; 'I' for Inactive)
ROOT
HETATM    1  C1  UNL     1      27.275   6.891   3.720  1.00  0.00     0.001 C 
HETATM    2  C2  UNL     1      27.551   7.109   5.202  1.00  0.00     0.005 C 
HETATM    3  C3  UNL     1      26.210   6.696   5.796  1.00  0.00    -0.010 A 
HETATM    4  C4  UNL     1      25.981   5.313   6.256  1.00  0.00     0.010 A 
HETATM    5  C5  UNL     1      25.630   5.671   4.845  1.00  0.00    -0.010 A 
HETATM    6  C6  UNL     1      26.656   5.503   3.745  1.00  0.00     0.005 C 
ENDROOT
TORSDOF 0
ENDMDL
MODEL 5
REMARK VINA RESULT: -4.952310465      0.716      1.842
REMARK  0 active torsions:
REMARK  status: ('A' for Active; 'I' for Inactive)
ROOT
HETATM    1  C1  UNL     1      27.517   7.108   5.510  1.00  0.00     0.001 C 
HETATM    2  C2  UNL     1      27.076   6.881   4.070  1.00  0.00     0.005 C 
HETATM    3  C3  UNL     1      26.463   5.490   4.186  1.00  0.00    -0.010 A 
HETATM    4  C4  UNL     1      25.019   5.320   4.435  1.00  0.00     0.010 A 
HETATM    5  C5  UNL     1      25.951   5.376   5.606  1.00  0.00    -0.010 A 
HETATM    6  C6  UNL     1      26.259   6.704   6.262  1.00  0.00     0.005 C 
ENDROOT
TORSDOF 0
ENDMDL
