MODEL 1
REMARK VINA RESULT: -4.747224643      0.000      0.000
REMARK  0 active torsions:
REMARK  status: ('A' for Active; 'I' for Inactive)
ROOT
HETATM    1  C1  UNL     1      26.405   6.450   6.079  1.00  0.00     0.005 C 
HETATM    2  C2  UNL     1      26.938   6.844   4.687  1.00  0.00     0.005 C 
HETATM    3  C3  UNL     1      26.414   5.679   3.899  1.00  0.00    -0.014 C 
HETATM    4  C4  UNL     1      24.958   5.636   4.388  1.00  0.00     0.009 C 
HETATM    5  C5  UNL     1      25.609   5.242   5.693  1.00  0.00    -0.014 C 
HETATM    6  C6  UNL     1      26.636   4.511   4.814  1.00  0.00     0.009 C 
ENDROOT
TORSDOF 0
ENDMDL
MODEL 2
REMARK VINA RESULT: -4.742071657      0.016      1.889
REMARK  0 active torsions:
REMARK  status: ('A' for Active; 'I' for Inactive)
ROOT
HETATM    1  C1  UNL     1      26.941   6.848   4.667  1.00  0.00     0.005 C 
HETATM    2  C2  UNL     1      26.414   6.466   6.065  1.00  0.00     0.005 C 
HETATM    3  C3  UNL     1      25.618   5.250   5.689  1.00  0.00    -0.014 C 
HETATM    4  C4  UNL     1      26.638   4.502   4.814  1.00  0.00     0.009 C 
HETATM    5  C5  UNL     1      26.420   5.679   3.891  1.00  0.00    -0.014 C 
HETATM    6  C6  UNL     1      24.969   5.644   4.396  1.00  0.00     0.009 C 
ENDROOT
TORSDOF 0
ENDMDL
MODEL 3
REMARK VINA RESULT: -4.625674522      0.639      1.853
REMARK  0 active torsions:
REMARK  status: ('A' for Active; 'I' for Inactive)
ROOT
HETATM    1  C1  UNL     1      26.470   6.758   5.888  1.00  0.00     0.005 C 
HETATM    2  C2  UNL     1      26.302   5.255   6.190  1.00  0.00     0.005 C 
HETATM    3  C3  UNL     1      25.908   4.786   4.819  1.00  0.00    -0.014 C 
HETATM    4  C4  UNL     1      26.983   5.475   3.963  1.00  0.00     0.009 C 
HETATM    5  C5  UNL     1      26.260   6.725   4.406  1.00  0.00    -0.014 C 
HETATM    6  C6  UNL     1      24.988   5.865   4.332  1.00  0.00     0.009 C 
ENDROOT
TORSDOF 0
ENDMDL
MODEL 4
REMARK VINA RESULT: -4.606536489      0.630      1.139
REMARK  0 active torsions:
REMARK  status: ('A' for Active; 'I' for Inactive)
ROOT
HETATM    1  C1  UNL     1      26.290   5.213   6.207  1.00  0.00     0.005 C 
HETATM    2  C2  UNL     1      26.447   6.727   5.955  1.00  0.00     0.005 C 
HETATM    3  C3  UNL     1      26.253   6.735   4.466  1.00  0.00    -0.014 C 
HETATM    4  C4  UNL     1      24.988   5.871   4.338  1.00  0.00     0.009 C 
HETATM    5  C5  UNL     1      25.917   4.781   4.823  1.00  0.00    -0.014 C 
HETATM    6  C6  UNL     1      26.996   5.514   4.011  1.00  0.00     0.009 C 
ENDROOT
TORSDOF 0
ENDMDL
MODEL 5
REMARK VINA RESULT: -4.439199389      0.766      1.367
REMARK  0 active torsions:
REMARK  status: ('A' for Active; 'I' for Inactive)
ROOT
HETATM    1  C1  UNL     1      27.011   6.766   4.219  1.00  0.00     0.005 C 
HETATM    2  C2  UNL     1      27.057   5.487   3.359  1.00  0.00     0.005 C 
HETATM    3  C3  UNL     1      26.109   4.638   4.155  1.00  0.00    -0.014 C 
HETATM    4  C4  UNL     1      24.941   5.618   4.347  1.00  0.00     0.009 C 
HETATM    5  C5  UNL     1      25.952   6.355   5.195  1.00  0.00    -0.014 C 
HETATM    6  C6  UNL     1      26.463   4.957   5.576  1.00  0.00     0.009 C 
ENDROOT
TORSDOF 0
ENDMDL
