MODEL 1
REMARK VINA RESULT: -4.800245414      0.000      0.000
REMARK  1 active torsions:
REMARK  status: ('A' for Active; 'I' for Inactive)
REMARK    1  A    between atoms: O1_1  and  C1_3 
ROOT
HETATM    1  C1  UNL     1      25.765   5.272   4.605  1.00  0.00     0.118 C 
HETATM    2  C2  UNL     1      26.017   5.251   6.091  1.00  0.00     0.032 C 
HETATM    3  C3  UNL     1      26.222   6.735   6.402  1.00  0.00     0.002 C 
HETATM    4  C4  UNL     1      27.257   7.049   5.312  1.00  0.00     0.002 C 
HETATM    5  C5  UNL     1      26.545   6.460   4.099  1.00  0.00     0.032 C 
ENDROOT
BRANCH   1   6
HETATM    6  O1  UNL     1      26.230   4.132   3.961  1.00  0.00    -0.396 OA
ATOM      7  H1  UNL     1      26.970   4.304   3.393  1.00  0.00     0.210 HD
ENDBRANCH   1   6
TORSDOF 1
ENDMDL
MODEL 2
REMARK VINA RESULT: -4.731194678      1.629      2.427
REMARK  1 active torsions:
REMARK  status: ('A' for Active; 'I' for Inactive)
REMARK    1  A    between atoms: O1_1  and  C1_3 
ROOT
HETATM    1  C1  UNL     1      26.887   6.953   4.218  1.00  0.00     0.118 C 
HETATM    2  C2  UNL     1      26.532   5.537   3.843  1.00  0.00     0.032 C 
HETATM    3  C3  UNL     1      25.469   5.186   4.887  1.00  0.00     0.002 C 
HETATM    4  C4  UNL     1      26.237   5.626   6.142  1.00  0.00     0.002 C 
HETATM    5  C5  UNL     1      26.666   7.024   5.708  1.00  0.00     0.032 C 
ENDROOT
BRANCH   1   6
HETATM    6  O1  UNL     1      28.214   7.266   3.953  1.00  0.00    -0.396 OA
ATOM      7  H1  UNL     1      28.371   8.202   3.904  1.00  0.00     0.210 HD
ENDBRANCH   1   6
TORSDOF 1
ENDMDL
MODEL 3
REMARK VINA RESULT: -4.712398896      0.709      1.781
REMARK  1 active torsions:
REMARK  status: ('A' for Active; 'I' for Inactive)
REMARK    1  A    between atoms: O1_1  and  C1_3 
ROOT
HETATM    1  C1  UNL     1      26.029   5.154   4.782  1.00  0.00     0.118 C 
HETATM    2  C2  UNL     1      26.429   6.456   4.136  1.00  0.00     0.032 C 
HETATM    3  C3  UNL     1      27.329   7.080   5.204  1.00  0.00     0.002 C 
HETATM    4  C4  UNL     1      26.390   6.917   6.409  1.00  0.00     0.002 C 
HETATM    5  C5  UNL     1      26.034   5.441   6.262  1.00  0.00     0.032 C 
ENDROOT
BRANCH   1   6
HETATM    6  O1  UNL     1      24.756   4.737   4.416  1.00  0.00    -0.396 OA
ATOM      7  H1  UNL     1      24.376   4.123   5.034  1.00  0.00     0.210 HD
ENDBRANCH   1   6
TORSDOF 1
ENDMDL
MODEL 4
REMARK VINA RESULT: -4.445660376      1.070      1.410
REMARK  1 active torsions:
REMARK  status: ('A' for Active; 'I' for Inactive)
REMARK    1  A    between atoms: O1_1  and  C1_3 
ROOT
HETATM    1  C1  UNL     1      26.367   5.841   3.837  1.00  0.00     0.118 C 
HETATM    2  C2  UNL     1      26.161   4.713   4.815  1.00  0.00     0.032 C 
HETATM    3  C3  UNL     1      25.629   5.449   6.046  1.00  0.00     0.002 C 
HETATM    4  C4  UNL     1      26.707   6.539   6.136  1.00  0.00     0.002 C 
HETATM    5  C5  UNL     1      26.691   7.039   4.695  1.00  0.00     0.032 C 
ENDROOT
BRANCH   1   6
HETATM    6  O1  UNL     1      27.429   5.619   2.970  1.00  0.00    -0.396 OA
ATOM      7  H1  UNL     1      28.228   6.053   3.243  1.00  0.00     0.210 HD
ENDBRANCH   1   6
TORSDOF 1
ENDMDL
MODEL 5
REMARK VINA RESULT: -4.379425898      1.724      2.741
REMARK  1 active torsions:
REMARK  status: ('A' for Active; 'I' for Inactive)
REMARK    1  A    between atoms: O1_1  and  C1_3 
ROOT
HETATM    1  C1  UNL     1      26.815   7.165   5.286  1.00  0.00     0.118 C 
HETATM    2  C2  UNL     1      26.400   6.426   4.040  1.00  0.00     0.032 C 
HETATM    3  C3  UNL     1      25.263   5.542   4.554  1.00  0.00     0.002 C 
HETATM    4  C4  UNL     1      25.984   4.937   5.768  1.00  0.00     0.002 C 
HETATM    5  C5  UNL     1      26.515   6.212   6.416  1.00  0.00     0.032 C 
ENDROOT
BRANCH   1   6
HETATM    6  O1  UNL     1      28.170   7.467   5.311  1.00  0.00    -0.396 OA
ATOM      7  H1  UNL     1      28.723   6.697   5.257  1.00  0.00     0.210 HD
ENDBRANCH   1   6
TORSDOF 1
ENDMDL
