MODEL 1
REMARK VINA RESULT: -4.523532475      0.000      0.000
REMARK  2 active torsions:
REMARK  status: ('A' for Active; 'I' for Inactive)
REMARK    1  A    between atoms: C3_3  and  C4_4 
REMARK    2  A    between atoms: C5_5  and  C6_6 
ROOT
HETATM    1  C1  UNL     1      27.554   8.995   0.580  1.00  0.00     0.098 C 
HETATM    2  C2  UNL     1      27.806   7.976   1.207  1.00  0.00    -0.176 C 
HETATM    3  C3  UNL     1      28.132   6.761   1.958  1.00  0.00     0.173 C 
ENDROOT
BRANCH   3   4
HETATM    4  C4  UNL     1      27.584   6.851   3.316  1.00  0.00    -0.091 C 
HETATM    5  C5  UNL     1      27.132   6.904   4.434  1.00  0.00    -0.079 C 
BRANCH   5   6
HETATM    6  C6  UNL     1      26.598   6.966   5.763  1.00  0.00     0.054 C 
HETATM    7  C7  UNL     1      26.026   5.890   6.273  1.00  0.00     0.020 C 
ENDBRANCH   5   6
ENDBRANCH   3   4
TORSDOF 2
ENDMDL
MODEL 2
REMARK VINA RESULT: -4.262784098      1.407      2.225
REMARK  2 active torsions:
REMARK  status: ('A' for Active; 'I' for Inactive)
REMARK    1  A    between atoms: C3_3  and  C4_4 
REMARK    2  A    between atoms: C5_5  and  C6_6 
ROOT
HETATM    1  C1  UNL     1      27.682   4.058   1.526  1.00  0.00     0.098 C 
HETATM    2  C2  UNL     1      27.822   5.203   1.930  1.00  0.00    -0.176 C 
HETATM    3  C3  UNL     1      27.974   6.583   2.397  1.00  0.00     0.173 C 
ENDROOT
BRANCH   3   4
HETATM    4  C4  UNL     1      27.408   6.720   3.744  1.00  0.00    -0.091 C 
HETATM    5  C5  UNL     1      26.936   6.814   4.851  1.00  0.00    -0.079 C 
BRANCH   5   6
HETATM    6  C6  UNL     1      26.378   6.924   6.166  1.00  0.00     0.054 C 
HETATM    7  C7  UNL     1      25.709   5.900   6.665  1.00  0.00     0.020 C 
ENDBRANCH   5   6
ENDBRANCH   3   4
TORSDOF 2
ENDMDL
MODEL 3
REMARK VINA RESULT: -4.262405458      1.337      4.618
REMARK  2 active torsions:
REMARK  status: ('A' for Active; 'I' for Inactive)
REMARK    1  A    between atoms: C3_3  and  C4_4 
REMARK    2  A    between atoms: C5_5  and  C6_6 
ROOT
HETATM    1  C1  UNL     1      25.715   5.520   6.172  1.00  0.00     0.098 C 
HETATM    2  C2  UNL     1      26.040   5.053   5.091  1.00  0.00    -0.176 C 
HETATM    3  C3  UNL     1      26.407   4.491   3.788  1.00  0.00     0.173 C 
ENDROOT
BRANCH   3   4
HETATM    4  C4  UNL     1      27.110   5.500   2.989  1.00  0.00    -0.091 C 
HETATM    5  C5  UNL     1      27.678   6.344   2.339  1.00  0.00    -0.079 C 
BRANCH   5   6
HETATM    6  C6  UNL     1      28.353   7.348   1.570  1.00  0.00     0.054 C 
HETATM    7  C7  UNL     1      27.639   8.292   0.983  1.00  0.00     0.020 C 
ENDBRANCH   5   6
ENDBRANCH   3   4
TORSDOF 2
ENDMDL
MODEL 4
REMARK VINA RESULT: -4.174166276      1.375      1.783
REMARK  2 active torsions:
REMARK  status: ('A' for Active; 'I' for Inactive)
REMARK    1  A    between atoms: C3_3  and  C4_4 
REMARK    2  A    between atoms: C5_5  and  C6_6 
ROOT
HETATM    1  C1  UNL     1      28.284   7.444   1.409  1.00  0.00     0.098 C 
HETATM    2  C2  UNL     1      27.871   6.341   1.735  1.00  0.00    -0.176 C 
HETATM    3  C3  UNL     1      27.399   5.011   2.129  1.00  0.00     0.173 C 
ENDROOT
BRANCH   3   4
HETATM    4  C4  UNL     1      26.742   5.080   3.438  1.00  0.00    -0.091 C 
HETATM    5  C5  UNL     1      26.216   5.149   4.522  1.00  0.00    -0.079 C 
BRANCH   5   6
HETATM    6  C6  UNL     1      25.591   5.233   5.810  1.00  0.00     0.054 C 
HETATM    7  C7  UNL     1      25.929   6.219   6.622  1.00  0.00     0.020 C 
ENDBRANCH   5   6
ENDBRANCH   3   4
TORSDOF 2
ENDMDL
MODEL 5
REMARK VINA RESULT: -4.137321756      0.625      4.705
REMARK  2 active torsions:
REMARK  status: ('A' for Active; 'I' for Inactive)
REMARK    1  A    between atoms: C3_3  and  C4_4 
REMARK    2  A    between atoms: C5_5  and  C6_6 
ROOT
HETATM    1  C1  UNL     1      25.699   5.221   6.344  1.00  0.00     0.098 C 
HETATM    2  C2  UNL     1      26.378   6.176   5.997  1.00  0.00    -0.176 C 
HETATM    3  C3  UNL     1      27.210   7.313   5.595  1.00  0.00     0.173 C 
ENDROOT
BRANCH   3   4
HETATM    4  C4  UNL     1      27.535   7.215   4.168  1.00  0.00    -0.091 C 
HETATM    5  C5  UNL     1      27.792   7.151   2.990  1.00  0.00    -0.079 C 
BRANCH   5   6
HETATM    6  C6  UNL     1      28.098   7.078   1.592  1.00  0.00     0.054 C 
HETATM    7  C7  UNL     1      27.968   8.163   0.851  1.00  0.00     0.020 C 
ENDBRANCH   5   6
ENDBRANCH   3   4
TORSDOF 2
ENDMDL
