MODEL 1
REMARK VINA RESULT: -10.078358646      0.000      0.000
REMARK  5 active torsions:
REMARK  status: ('A' for Active; 'I' for Inactive)
REMARK    1  A    between atoms: C6_8  and  N2_9 
REMARK    2  A    between atoms: N2_9  and  C7_11 
REMARK    3  A    between atoms: C7_11  and  O1_12 
REMARK    4  A    between atoms: N3_14  and  C8_16 
REMARK    5  A    between atoms: C9_19  and  C10_20 
ROOT
HETATM    1  C8  UNL     1       8.217 -24.902  37.953  1.00  0.00     0.685 A 
HETATM    2  N4  UNL     1       9.447 -24.434  37.770  1.00  0.00    -0.191 N 
ATOM      3  H4  UNL     1       9.554 -23.532  37.307  1.00  0.00     0.184 HD
HETATM    4  C9  UNL     1      10.563 -25.083  38.162  1.00  0.00     0.062 A 
HETATM    5  C16 UNL     1      10.459 -26.315  38.795  1.00  0.00     0.048 A 
HETATM    6  C17 UNL     1       9.168 -26.780  38.974  1.00  0.00     0.108 A 
HETATM    7  N8  UNL     1       8.086 -26.111  38.574  1.00  0.00    -0.202 N 
ATOM      8  H8  UNL     1       7.158 -26.502  38.734  1.00  0.00     0.183 HD
ENDROOT
BRANCH   1   9
HETATM    9  N3  UNL     1       7.132 -24.269  37.558  1.00  0.00    -0.155 N 
HETATM   10  C7  UNL     1       6.034 -24.871  37.111  1.00  0.00     0.237 C 
ATOM     11  H3  UNL     1       7.134 -23.250  37.598  1.00  0.00     0.188 HD
BRANCH  10  12
HETATM   12  N2  UNL     1       4.951 -25.479  36.668  1.00  0.00    -0.302 N 
ATOM     13  H2  UNL     1       4.366 -24.958  36.015  1.00  0.00     0.171 HD
BRANCH  12  14
HETATM   14  C6  UNL     1       4.557 -26.675  36.984  1.00  0.00     0.152 A 
HETATM   15  N1  UNL     1       3.289 -27.084  37.148  1.00  0.00    -0.335 N 
HETATM   16  C5  UNL     1       3.071 -28.337  37.477  1.00  0.00     0.051 A 
ATOM     17  H1  UNL     1       2.511 -26.436  37.020  1.00  0.00     0.168 HD
HETATM   18  C4  UNL     1       1.797 -28.921  37.686  1.00  0.00     0.031 A 
HETATM   19  C18 UNL     1       4.151 -29.154  37.633  1.00  0.00     0.035 A 
HETATM   20  C3  UNL     1       1.721 -30.239  38.026  1.00  0.00     0.009 A 
HETATM   21  C2  UNL     1       2.777 -31.071  38.187  1.00  0.00    -0.061 A 
HETATM   22  C1  UNL     1       2.623 -32.494  38.554  1.00  0.00     0.048 C 
HETATM   23  C19 UNL     1       4.030 -30.508  37.983  1.00  0.00     0.028 A 
HETATM   24  S1  UNL     1       5.451 -28.097  37.302  1.00  0.00    -0.052 SA
ENDBRANCH  12  14
ENDBRANCH  10  12
BRANCH  10  25
HETATM   25  O1  UNL     1       5.251 -23.468  37.121  1.00  0.00    -0.332 OA
ATOM     26  H1  UNL     1       5.701 -23.206  36.326  1.00  0.00     0.221 HD
ENDBRANCH  10  25
ENDBRANCH   1   9
BRANCH   4  27
HETATM   27  C10 UNL     1      11.884 -24.498  37.959  1.00  0.00     0.009 A 
HETATM   28  C11 UNL     1      13.021 -25.014  38.494  1.00  0.00     0.102 A 
HETATM   29  N5  UNL     1      14.212 -24.376  38.261  1.00  0.00    -0.362 N 
HETATM   30  C12 UNL     1      14.249 -23.265  37.519  1.00  0.00     0.077 A 
ATOM     31  H5  UNL     1      15.075 -24.752  38.655  1.00  0.00     0.165 HD
HETATM   32  C13 UNL     1      15.277 -22.406  37.115  1.00  0.00     0.139 A 
HETATM   33  C14 UNL     1      13.101 -22.718  36.962  1.00  0.00     0.077 A 
HETATM   34  N6  UNL     1      14.727 -21.417  36.362  1.00  0.00    -0.309 N 
HETATM   35  N7  UNL     1      13.445 -21.611  36.278  1.00  0.00    -0.299 N 
ATOM     36  H6  UNL     1      15.238 -20.646  35.932  1.00  0.00     0.186 HD
ATOM     37  H7  UNL     1      12.795 -21.012  35.769  1.00  0.00     0.187 HD
HETATM   38  C15 UNL     1      11.907 -23.333  37.179  1.00  0.00     0.048 A 
ENDBRANCH   4  27
TORSDOF 5
ENDMDL
MODEL 2
REMARK VINA RESULT: -9.926599666      1.138      1.164
REMARK  5 active torsions:
REMARK  status: ('A' for Active; 'I' for Inactive)
REMARK    1  A    between atoms: C6_8  and  N2_9 
REMARK    2  A    between atoms: N2_9  and  C7_11 
REMARK    3  A    between atoms: C7_11  and  O1_12 
REMARK    4  A    between atoms: N3_14  and  C8_16 
REMARK    5  A    between atoms: C9_19  and  C10_20 
ROOT
HETATM    1  C8  UNL     1       8.203 -24.954  36.468  1.00  0.00     0.685 A 
HETATM    2  N4  UNL     1       9.413 -24.500  36.774  1.00  0.00    -0.191 N 
ATOM      3  H4  UNL     1       9.487 -23.568  37.181  1.00  0.00     0.184 HD
HETATM    4  C9  UNL     1      10.548 -25.201  36.579  1.00  0.00     0.062 A 
HETATM    5  C16 UNL     1      10.488 -26.474  36.026  1.00  0.00     0.048 A 
HETATM    6  C17 UNL     1       9.217 -26.923  35.716  1.00  0.00     0.108 A 
HETATM    7  N8  UNL     1       8.114 -26.203  35.924  1.00  0.00    -0.202 N 
ATOM      8  H8  UNL     1       7.202 -26.587  35.677  1.00  0.00     0.183 HD
ENDROOT
BRANCH   1   9
HETATM    9  N3  UNL     1       7.098 -24.260  36.650  1.00  0.00    -0.155 N 
HETATM   10  C7  UNL     1       5.942 -24.783  37.048  1.00  0.00     0.237 C 
ATOM     11  H3  UNL     1       7.131 -23.256  36.475  1.00  0.00     0.188 HD
BRANCH  10  12
HETATM   12  N2  UNL     1       4.801 -25.312  37.442  1.00  0.00    -0.302 N 
ATOM     13  H2  UNL     1       4.052 -24.663  37.683  1.00  0.00     0.171 HD
BRANCH  12  14
HETATM   14  C6  UNL     1       4.538 -26.579  37.552  1.00  0.00     0.152 A 
HETATM   15  N1  UNL     1       3.339 -27.165  37.404  1.00  0.00    -0.335 N 
HETATM   16  C5  UNL     1       3.253 -28.467  37.559  1.00  0.00     0.051 A 
ATOM     17  H1  UNL     1       2.513 -26.612  37.175  1.00  0.00     0.168 HD
HETATM   18  C4  UNL     1       2.066 -29.232  37.437  1.00  0.00     0.031 A 
HETATM   19  C18 UNL     1       4.393 -29.151  37.862  1.00  0.00     0.035 A 
HETATM   20  C3  UNL     1       2.126 -30.580  37.627  1.00  0.00     0.009 A 
HETATM   21  C2  UNL     1       3.243 -31.283  37.929  1.00  0.00    -0.061 A 
HETATM   22  C1  UNL     1       3.237 -32.748  38.119  1.00  0.00     0.048 C 
HETATM   23  C19 UNL     1       4.412 -30.542  38.050  1.00  0.00     0.028 A 
HETATM   24  S1  UNL     1       5.557 -27.902  37.916  1.00  0.00    -0.052 SA
ENDBRANCH  12  14
ENDBRANCH  10  12
BRANCH  10  25
HETATM   25  O1  UNL     1       5.326 -23.308  37.222  1.00  0.00    -0.332 OA
ATOM     26  H1  UNL     1       4.960 -23.354  36.347  1.00  0.00     0.221 HD
ENDBRANCH  10  25
ENDBRANCH   1   9
BRANCH   4  27
HETATM   27  C10 UNL     1      11.846 -24.655  36.967  1.00  0.00     0.009 A 
HETATM   28  C11 UNL     1      12.690 -25.278  37.830  1.00  0.00     0.102 A 
HETATM   29  N5  UNL     1      13.878 -24.671  38.147  1.00  0.00    -0.362 N 
HETATM   30  C12 UNL     1      14.195 -23.487  37.614  1.00  0.00     0.077 A 
ATOM     31  H5  UNL     1      14.524 -25.126  38.793  1.00  0.00     0.165 HD
HETATM   32  C13 UNL     1      15.299 -22.635  37.738  1.00  0.00     0.139 A 
HETATM   33  C14 UNL     1      13.348 -22.832  36.730  1.00  0.00     0.077 A 
HETATM   34  N6  UNL     1      15.078 -21.546  36.956  1.00  0.00    -0.309 N 
HETATM   35  N7  UNL     1      13.927 -21.672  36.366  1.00  0.00    -0.299 N 
ATOM     36  H6  UNL     1      15.713 -20.755  36.849  1.00  0.00     0.186 HD
ATOM     37  H7  UNL     1      13.521 -20.993  35.723  1.00  0.00     0.187 HD
HETATM   38  C15 UNL     1      12.164 -23.414  36.400  1.00  0.00     0.048 A 
ENDBRANCH   4  27
TORSDOF 5
ENDMDL
MODEL 3
REMARK VINA RESULT: -9.742677674      0.826      1.278
REMARK  5 active torsions:
REMARK  status: ('A' for Active; 'I' for Inactive)
REMARK    1  A    between atoms: C6_8  and  N2_9 
REMARK    2  A    between atoms: N2_9  and  C7_11 
REMARK    3  A    between atoms: C7_11  and  O1_12 
REMARK    4  A    between atoms: N3_14  and  C8_16 
REMARK    5  A    between atoms: C9_19  and  C10_20 
ROOT
HETATM    1  C8  UNL     1       8.240 -24.925  37.966  1.00  0.00     0.685 A 
HETATM    2  N4  UNL     1       9.462 -24.444  37.769  1.00  0.00    -0.191 N 
ATOM      3  H4  UNL     1       9.555 -23.550  37.286  1.00  0.00     0.184 HD
HETATM    4  C9  UNL     1      10.588 -25.068  38.172  1.00  0.00     0.062 A 
HETATM    5  C16 UNL     1      10.503 -26.287  38.833  1.00  0.00     0.048 A 
HETATM    6  C17 UNL     1       9.220 -26.766  39.025  1.00  0.00     0.108 A 
HETATM    7  N8  UNL     1       8.127 -26.121  38.614  1.00  0.00    -0.202 N 
ATOM      8  H8  UNL     1       7.205 -26.522  38.785  1.00  0.00     0.183 HD
ENDROOT
BRANCH   1   9
HETATM    9  N3  UNL     1       7.145 -24.316  37.560  1.00  0.00    -0.155 N 
HETATM   10  C7  UNL     1       6.015 -24.940  37.240  1.00  0.00     0.237 C 
ATOM     11  H3  UNL     1       7.164 -23.299  37.487  1.00  0.00     0.188 HD
BRANCH  10  12
HETATM   12  N2  UNL     1       4.900 -25.569  36.925  1.00  0.00    -0.302 N 
ATOM     13  H2  UNL     1       4.204 -25.038  36.404  1.00  0.00     0.171 HD
BRANCH  12  14
HETATM   14  C6  UNL     1       4.604 -26.800  37.214  1.00  0.00     0.152 A 
HETATM   15  N1  UNL     1       5.405 -27.700  37.806  1.00  0.00    -0.335 N 
HETATM   16  C5  UNL     1       4.940 -28.911  38.019  1.00  0.00     0.051 A 
ATOM     17  H1  UNL     1       6.354 -27.450  38.085  1.00  0.00     0.168 HD
HETATM   18  C4  UNL     1       5.657 -29.970  38.629  1.00  0.00     0.031 A 
HETATM   19  C18 UNL     1       3.664 -29.184  37.624  1.00  0.00     0.035 A 
HETATM   20  C3  UNL     1       5.047 -31.179  38.784  1.00  0.00     0.009 A 
HETATM   21  C2  UNL     1       3.783 -31.476  38.402  1.00  0.00    -0.061 A 
HETATM   22  C1  UNL     1       3.180 -32.810  38.603  1.00  0.00     0.048 C 
HETATM   23  C19 UNL     1       3.071 -30.443  37.803  1.00  0.00     0.028 A 
HETATM   24  S1  UNL     1       3.168 -27.691  36.959  1.00  0.00    -0.052 SA
ENDBRANCH  12  14
ENDBRANCH  10  12
BRANCH  10  25
HETATM   25  O1  UNL     1       5.256 -23.528  37.135  1.00  0.00    -0.332 OA
ATOM     26  H1  UNL     1       4.424 -23.977  37.042  1.00  0.00     0.221 HD
ENDBRANCH  10  25
ENDBRANCH   1   9
BRANCH   4  27
HETATM   27  C10 UNL     1      11.901 -24.469  37.952  1.00  0.00     0.009 A 
HETATM   28  C11 UNL     1      13.046 -24.956  38.497  1.00  0.00     0.102 A 
HETATM   29  N5  UNL     1      14.227 -24.307  38.245  1.00  0.00    -0.362 N 
HETATM   30  C12 UNL     1      14.246 -23.213  37.476  1.00  0.00     0.077 A 
ATOM     31  H5  UNL     1      15.096 -24.660  38.646  1.00  0.00     0.165 HD
HETATM   32  C13 UNL     1      15.262 -22.350  37.049  1.00  0.00     0.139 A 
HETATM   33  C14 UNL     1      13.089 -22.697  36.909  1.00  0.00     0.077 A 
HETATM   34  N6  UNL     1      14.696 -21.388  36.274  1.00  0.00    -0.309 N 
HETATM   35  N7  UNL     1      13.416 -21.602  36.197  1.00  0.00    -0.299 N 
ATOM     36  H6  UNL     1      15.195 -20.621  35.824  1.00  0.00     0.186 HD
ATOM     37  H7  UNL     1      12.757 -21.025  35.675  1.00  0.00     0.187 HD
HETATM   38  C15 UNL     1      11.905 -23.323  37.143  1.00  0.00     0.048 A 
ENDBRANCH   4  27
TORSDOF 5
ENDMDL
MODEL 4
REMARK VINA RESULT: -9.715750418      0.742      1.345
REMARK  5 active torsions:
REMARK  status: ('A' for Active; 'I' for Inactive)
REMARK    1  A    between atoms: C6_8  and  N2_9 
REMARK    2  A    between atoms: N2_9  and  C7_11 
REMARK    3  A    between atoms: C7_11  and  O1_12 
REMARK    4  A    between atoms: N3_14  and  C8_16 
REMARK    5  A    between atoms: C9_19  and  C10_20 
ROOT
HETATM    1  C8  UNL     1       8.337 -24.464  37.902  1.00  0.00     0.685 A 
HETATM    2  N4  UNL     1       9.491 -23.869  37.621  1.00  0.00    -0.191 N 
ATOM      3  H4  UNL     1       9.464 -22.959  37.162  1.00  0.00     0.184 HD
HETATM    4  C9  UNL     1      10.698 -24.400  37.907  1.00  0.00     0.062 A 
HETATM    5  C16 UNL     1      10.777 -25.639  38.531  1.00  0.00     0.048 A 
HETATM    6  C17 UNL     1       9.562 -26.237  38.813  1.00  0.00     0.108 A 
HETATM    7  N8  UNL     1       8.386 -25.682  38.517  1.00  0.00    -0.202 N 
ATOM      8  H8  UNL     1       7.521 -26.169  38.750  1.00  0.00     0.183 HD
ENDROOT
BRANCH   1   9
HETATM    9  N3  UNL     1       7.162 -23.946  37.609  1.00  0.00    -0.155 N 
HETATM   10  C7  UNL     1       6.148 -24.633  37.093  1.00  0.00     0.237 C 
ATOM     11  H3  UNL     1       7.021 -22.953  37.792  1.00  0.00     0.188 HD
BRANCH  10  12
HETATM   12  N2  UNL     1       5.149 -25.324  36.580  1.00  0.00    -0.302 N 
ATOM     13  H2  UNL     1       4.600 -24.868  35.852  1.00  0.00     0.171 HD
BRANCH  12  14
HETATM   14  C6  UNL     1       4.797 -26.529  36.913  1.00  0.00     0.152 A 
HETATM   15  N1  UNL     1       3.543 -26.985  37.062  1.00  0.00    -0.335 N 
HETATM   16  C5  UNL     1       3.369 -28.240  37.411  1.00  0.00     0.051 A 
ATOM     17  H1  UNL     1       2.743 -26.372  36.908  1.00  0.00     0.168 HD
HETATM   18  C4  UNL     1       2.115 -28.870  37.610  1.00  0.00     0.031 A 
HETATM   19  C18 UNL     1       4.478 -29.010  37.602  1.00  0.00     0.035 A 
HETATM   20  C3  UNL     1       2.086 -30.184  37.974  1.00  0.00     0.009 A 
HETATM   21  C2  UNL     1       3.171 -30.970  38.169  1.00  0.00    -0.061 A 
HETATM   22  C1  UNL     1       3.066 -32.390  38.561  1.00  0.00     0.048 C 
HETATM   23  C19 UNL     1       4.404 -30.361  37.976  1.00  0.00     0.028 A 
HETATM   24  S1  UNL     1       5.740 -27.908  37.273  1.00  0.00    -0.052 SA
ENDBRANCH  12  14
ENDBRANCH  10  12
BRANCH  10  25
HETATM   25  O1  UNL     1       5.175 -23.372  37.307  1.00  0.00    -0.332 OA
ATOM     26  H1  UNL     1       4.647 -23.876  37.914  1.00  0.00     0.221 HD
ENDBRANCH  10  25
ENDBRANCH   1   9
BRANCH   4  27
HETATM   27  C10 UNL     1      11.930 -23.679  37.599  1.00  0.00     0.009 A 
HETATM   28  C11 UNL     1      11.964 -22.539  36.861  1.00  0.00     0.102 A 
HETATM   29  N5  UNL     1      13.176 -21.950  36.610  1.00  0.00    -0.362 N 
HETATM   30  C12 UNL     1      14.302 -22.491  37.086  1.00  0.00     0.077 A 
ATOM     31  H5  UNL     1      13.219 -21.093  36.058  1.00  0.00     0.165 HD
HETATM   32  C13 UNL     1      15.654 -22.140  37.001  1.00  0.00     0.139 A 
HETATM   33  C14 UNL     1      14.292 -23.655  37.842  1.00  0.00     0.077 A 
HETATM   34  N6  UNL     1      16.372 -23.071  37.682  1.00  0.00    -0.309 N 
HETATM   35  N7  UNL     1      15.561 -23.959  38.174  1.00  0.00    -0.299 N 
ATOM     36  H6  UNL     1      17.387 -23.073  37.790  1.00  0.00     0.186 HD
ATOM     37  H7  UNL     1      15.843 -24.766  38.729  1.00  0.00     0.187 HD
HETATM   38  C15 UNL     1      13.102 -24.259  38.105  1.00  0.00     0.048 A 
ENDBRANCH   4  27
TORSDOF 5
ENDMDL
MODEL 5
REMARK VINA RESULT: -9.670490828      1.282      1.763
REMARK  5 active torsions:
REMARK  status: ('A' for Active; 'I' for Inactive)
REMARK    1  A    between atoms: C6_8  and  N2_9 
REMARK    2  A    between atoms: N2_9  and  C7_11 
REMARK    3  A    between atoms: C7_11  and  O1_12 
REMARK    4  A    between atoms: N3_14  and  C8_16 
REMARK    5  A    between atoms: C9_19  and  C10_20 
ROOT
HETATM    1  C8  UNL     1       8.054 -24.893  36.316  1.00  0.00     0.685 A 
HETATM    2  N4  UNL     1       9.200 -24.233  36.445  1.00  0.00    -0.191 N 
ATOM      3  H4  UNL     1       9.159 -23.238  36.665  1.00  0.00     0.184 HD
HETATM    4  C9  UNL     1      10.414 -24.803  36.302  1.00  0.00     0.062 A 
HETATM    5  C16 UNL     1      10.511 -26.156  36.001  1.00  0.00     0.048 A 
HETATM    6  C17 UNL     1       9.305 -26.820  35.872  1.00  0.00     0.108 A 
HETATM    7  N8  UNL     1       8.121 -26.225  36.022  1.00  0.00    -0.202 N 
ATOM      8  H8  UNL     1       7.262 -26.766  35.917  1.00  0.00     0.183 HD
ENDROOT
BRANCH   1   9
HETATM    9  N3  UNL     1       6.871 -24.329  36.446  1.00  0.00    -0.155 N 
HETATM   10  C7  UNL     1       5.845 -24.878  37.088  1.00  0.00     0.237 C 
ATOM     11  H3  UNL     1       6.733 -23.410  36.026  1.00  0.00     0.188 HD
BRANCH  10  12
HETATM   12  N2  UNL     1       4.835 -25.433  37.727  1.00  0.00    -0.302 N 
ATOM     13  H2  UNL     1       4.238 -24.811  38.272  1.00  0.00     0.171 HD
BRANCH  12  14
HETATM   14  C6  UNL     1       4.525 -26.694  37.730  1.00  0.00     0.152 A 
HETATM   15  N1  UNL     1       3.308 -27.222  37.527  1.00  0.00    -0.335 N 
HETATM   16  C5  UNL     1       3.174 -28.528  37.572  1.00  0.00     0.051 A 
ATOM     17  H1  UNL     1       2.504 -26.622  37.341  1.00  0.00     0.168 HD
HETATM   18  C4  UNL     1       1.962 -29.236  37.381  1.00  0.00     0.031 A 
HETATM   19  C18 UNL     1       4.286 -29.276  37.823  1.00  0.00     0.035 A 
HETATM   20  C3  UNL     1       1.971 -30.597  37.457  1.00  0.00     0.009 A 
HETATM   21  C2  UNL     1       3.060 -31.363  37.706  1.00  0.00    -0.061 A 
HETATM   22  C1  UNL     1       3.000 -32.838  37.772  1.00  0.00     0.048 C 
HETATM   23  C19 UNL     1       4.254 -30.678  37.894  1.00  0.00     0.028 A 
HETATM   24  S1  UNL     1       5.493 -28.079  37.988  1.00  0.00    -0.052 SA
ENDBRANCH  12  14
ENDBRANCH  10  12
BRANCH  10  25
HETATM   25  O1  UNL     1       5.021 -23.505  36.962  1.00  0.00    -0.332 OA
ATOM     26  H1  UNL     1       5.807 -23.010  37.160  1.00  0.00     0.221 HD
ENDBRANCH  10  25
ENDBRANCH   1   9
BRANCH   4  27
HETATM   27  C10 UNL     1      11.636 -24.027  36.488  1.00  0.00     0.009 A 
HETATM   28  C11 UNL     1      11.865 -22.835  35.877  1.00  0.00     0.102 A 
HETATM   29  N5  UNL     1      13.056 -22.194  36.102  1.00  0.00    -0.362 N 
HETATM   30  C12 UNL     1      13.974 -22.737  36.909  1.00  0.00     0.077 A 
ATOM     31  H5  UNL     1      13.243 -21.298  35.652  1.00  0.00     0.165 HD
HETATM   32  C13 UNL     1      15.251 -22.343  37.324  1.00  0.00     0.139 A 
HETATM   33  C14 UNL     1      13.763 -23.954  37.543  1.00  0.00     0.077 A 
HETATM   34  N6  UNL     1      15.736 -23.301  38.156  1.00  0.00    -0.309 N 
HETATM   35  N7  UNL     1      14.852 -24.245  38.280  1.00  0.00    -0.299 N 
ATOM     36  H6  UNL     1      16.648 -23.282  38.612  1.00  0.00     0.186 HD
ATOM     37  H7  UNL     1      14.965 -25.082  38.850  1.00  0.00     0.187 HD
HETATM   38  C15 UNL     1      12.589 -24.609  37.336  1.00  0.00     0.048 A 
ENDBRANCH   4  27
TORSDOF 5
ENDMDL
