MODEL 1
REMARK VINA RESULT: -8.118424562      0.000      0.000
REMARK  3 active torsions:
REMARK  status: ('A' for Active; 'I' for Inactive)
REMARK       I    between atoms: C2_2  and  N1_4 
REMARK    1  A    between atoms: N1_4  and  C3_6 
REMARK    2  A    between atoms: C3_6  and  N2_8 
REMARK    3  A    between atoms: C12_21  and  C13_22 
ROOT
HETATM    1  N2  UNL     1      10.437 -26.828  38.294  1.00  0.00    -0.166 N 
ATOM      2  H2  UNL     1      10.823 -27.538  38.916  1.00  0.00     0.186 HD
HETATM    3  C4  UNL     1       9.176 -26.823  38.058  1.00  0.00     0.686 C 
HETATM    4  N3  UNL     1       8.780 -25.767  37.166  1.00  0.00    -0.191 N 
ATOM      5  H3  UNL     1       9.493 -25.075  36.937  1.00  0.00     0.184 HD
HETATM    6  C5  UNL     1       7.522 -25.585  36.578  1.00  0.00     0.060 A 
HETATM    7  C6  UNL     1       7.429 -24.434  35.831  1.00  0.00     0.031 A 
HETATM    8  C7  UNL     1       6.243 -24.106  35.180  1.00  0.00     0.002 A 
HETATM    9  C8  UNL     1       5.132 -24.938  35.274  1.00  0.00     0.001 A 
HETATM   10  C9  UNL     1       5.253 -26.093  36.035  1.00  0.00     0.015 A 
HETATM   11  C10 UNL     1       6.435 -26.405  36.675  1.00  0.00     0.012 A 
HETATM   12  C11 UNL     1       6.265 -27.678  37.398  1.00  0.00     0.064 A 
HETATM   13  S2  UNL     1       4.911 -28.750  37.319  1.00  0.00    -0.066 SA
HETATM   14  C12 UNL     1       5.474 -29.942  38.407  1.00  0.00     0.103 A 
HETATM   15  N5  UNL     1       6.645 -29.467  38.766  1.00  0.00    -0.333 N 
ATOM     16  H5  UNL     1       7.223 -29.985  39.428  1.00  0.00     0.168 HD
HETATM   17  C18 UNL     1       7.069 -28.337  38.279  1.00  0.00     0.140 A 
HETATM   18  N6  UNL     1       8.364 -27.814  38.679  1.00  0.00    -0.175 N 
ATOM     19  H6  UNL     1       8.750 -28.217  39.534  1.00  0.00     0.186 HD
ENDROOT
BRANCH   1  20
HETATM   20  C3  UNL     1      11.311 -25.869  37.709  1.00  0.00     0.193 C 
HETATM   21  S1  UNL     1      11.984 -26.063  36.247  1.00  0.00    -0.040 SA
BRANCH  20  22
HETATM   22  N1  UNL     1      11.591 -24.702  38.455  1.00  0.00    -0.304 N 
HETATM   23  C2  UNL     1      11.117 -23.450  38.021  1.00  0.00     0.219 C 
HETATM   24  C1  UNL     1      11.425 -22.241  38.823  1.00  0.00     0.117 C 
HETATM   25  O1  UNL     1      10.443 -23.320  36.980  1.00  0.00    -0.274 OA
ATOM     26  H1  UNL     1      12.140 -24.767  39.313  1.00  0.00     0.171 HD
ENDBRANCH  20  22
ENDBRANCH   1  20
BRANCH  14  27
HETATM   27  C13 UNL     1       4.786 -31.161  38.802  1.00  0.00     0.066 A 
HETATM   28  C14 UNL     1       5.464 -32.150  39.482  1.00  0.00     0.032 A 
HETATM   29  C15 UNL     1       4.858 -33.324  39.879  1.00  0.00     0.004 A 
HETATM   30  C16 UNL     1       3.528 -33.514  39.586  1.00  0.00     0.017 A 
HETATM   31  C17 UNL     1       2.853 -32.520  38.906  1.00  0.00     0.088 A 
HETATM   32  N4  UNL     1       3.489 -31.374  38.532  1.00  0.00    -0.364 N 
ATOM     33  H4  UNL     1       2.964 -30.657  38.030  1.00  0.00     0.165 HD
ENDBRANCH  14  27
TORSDOF 3
ENDMDL
MODEL 2
REMARK VINA RESULT: -7.831200249      3.256      4.541
REMARK  3 active torsions:
REMARK  status: ('A' for Active; 'I' for Inactive)
REMARK       I    between atoms: C2_2  and  N1_4 
REMARK    1  A    between atoms: N1_4  and  C3_6 
REMARK    2  A    between atoms: C3_6  and  N2_8 
REMARK    3  A    between atoms: C12_21  and  C13_22 
ROOT
HETATM    1  N2  UNL     1       8.235 -24.433  35.755  1.00  0.00    -0.166 N 
ATOM      2  H2  UNL     1       7.733 -24.014  34.972  1.00  0.00     0.186 HD
HETATM    3  C4  UNL     1       7.791 -25.521  36.271  1.00  0.00     0.686 C 
HETATM    4  N3  UNL     1       8.600 -25.990  37.363  1.00  0.00    -0.191 N 
ATOM      5  H3  UNL     1       9.485 -25.505  37.514  1.00  0.00     0.184 HD
HETATM    6  C5  UNL     1       8.306 -27.040  38.242  1.00  0.00     0.060 A 
HETATM    7  C6  UNL     1       9.317 -27.302  39.138  1.00  0.00     0.031 A 
HETATM    8  C7  UNL     1       9.181 -28.318  40.081  1.00  0.00     0.002 A 
HETATM    9  C8  UNL     1       8.021 -29.084  40.133  1.00  0.00     0.001 A 
HETATM   10  C9  UNL     1       7.017 -28.798  39.217  1.00  0.00     0.015 A 
HETATM   11  C10 UNL     1       7.166 -27.789  38.288  1.00  0.00     0.012 A 
HETATM   12  C11 UNL     1       5.949 -27.721  37.459  1.00  0.00     0.064 A 
HETATM   13  S2  UNL     1       4.472 -28.585  37.701  1.00  0.00    -0.066 SA
HETATM   14  C12 UNL     1       3.603 -27.970  36.364  1.00  0.00     0.103 A 
HETATM   15  N5  UNL     1       4.471 -27.152  35.813  1.00  0.00    -0.333 N 
ATOM     16  H5  UNL     1       4.218 -26.632  34.973  1.00  0.00     0.168 HD
HETATM   17  C18 UNL     1       5.653 -27.005  36.338  1.00  0.00     0.140 A 
HETATM   18  N6  UNL     1       6.611 -26.100  35.726  1.00  0.00    -0.175 N 
ATOM     19  H6  UNL     1       6.408 -25.842  34.759  1.00  0.00     0.186 HD
ENDROOT
BRANCH   1  20
HETATM   20  C3  UNL     1       9.408 -23.796  36.247  1.00  0.00     0.193 C 
HETATM   21  S1  UNL     1       9.518 -23.180  37.744  1.00  0.00    -0.040 SA
BRANCH  20  22
HETATM   22  N1  UNL     1      10.517 -23.707  35.376  1.00  0.00    -0.304 N 
HETATM   23  C2  UNL     1      10.553 -22.725  34.368  1.00  0.00     0.219 C 
HETATM   24  C1  UNL     1      11.729 -22.654  33.467  1.00  0.00     0.117 C 
HETATM   25  O1  UNL     1       9.626 -21.907  34.205  1.00  0.00    -0.274 OA
ATOM     26  H1  UNL     1      11.295 -24.359  35.478  1.00  0.00     0.171 HD
ENDBRANCH  20  22
ENDBRANCH   1  20
BRANCH  14  27
HETATM   27  C13 UNL     1       2.241 -28.305  35.976  1.00  0.00     0.066 A 
HETATM   28  C14 UNL     1       1.310 -28.638  36.937  1.00  0.00     0.032 A 
HETATM   29  C15 UNL     1       0.006 -28.963  36.623  1.00  0.00     0.004 A 
HETATM   30  C16 UNL     1      -0.378 -28.954  35.302  1.00  0.00     0.017 A 
HETATM   31  C17 UNL     1       0.558 -28.620  34.344  1.00  0.00     0.088 A 
HETATM   32  N4  UNL     1       1.837 -28.305  34.697  1.00  0.00    -0.364 N 
ATOM     33  H4  UNL     1       2.507 -28.061  33.967  1.00  0.00     0.165 HD
ENDBRANCH  14  27
TORSDOF 3
ENDMDL
MODEL 3
REMARK VINA RESULT: -7.647485225      3.343      8.716
REMARK  3 active torsions:
REMARK  status: ('A' for Active; 'I' for Inactive)
REMARK       I    between atoms: C2_2  and  N1_4 
REMARK    1  A    between atoms: N1_4  and  C3_6 
REMARK    2  A    between atoms: C3_6  and  N2_8 
REMARK    3  A    between atoms: C12_21  and  C13_22 
ROOT
HETATM    1  N2  UNL     1       3.949 -27.065  36.196  1.00  0.00    -0.166 N 
ATOM      2  H2  UNL     1       3.594 -26.459  35.456  1.00  0.00     0.186 HD
HETATM    3  C4  UNL     1       5.088 -26.804  36.725  1.00  0.00     0.686 C 
HETATM    4  N3  UNL     1       5.454 -27.742  37.751  1.00  0.00    -0.191 N 
ATOM      5  H3  UNL     1       4.734 -28.407  38.037  1.00  0.00     0.184 HD
HETATM    6  C5  UNL     1       6.690 -27.844  38.401  1.00  0.00     0.060 A 
HETATM    7  C6  UNL     1       6.708 -28.795  39.395  1.00  0.00     0.031 A 
HETATM    8  C7  UNL     1       7.865 -29.020  40.138  1.00  0.00     0.002 A 
HETATM    9  C8  UNL     1       9.021 -28.288  39.886  1.00  0.00     0.001 A 
HETATM   10  C9  UNL     1       8.974 -27.335  38.877  1.00  0.00     0.015 A 
HETATM   11  C10 UNL     1       7.821 -27.123  38.150  1.00  0.00     0.012 A 
HETATM   12  C11 UNL     1       8.072 -26.062  37.158  1.00  0.00     0.064 A 
HETATM   13  S2  UNL     1       9.589 -25.324  36.779  1.00  0.00    -0.066 SA
HETATM   14  C12 UNL     1       9.043 -24.237  35.579  1.00  0.00     0.103 A 
HETATM   15  N5  UNL     1       7.755 -24.490  35.531  1.00  0.00    -0.333 N 
ATOM     16  H5  UNL     1       7.159 -23.974  34.884  1.00  0.00     0.168 HD
HETATM   17  C18 UNL     1       7.239 -25.397  36.309  1.00  0.00     0.140 A 
HETATM   18  N6  UNL     1       5.813 -25.674  36.254  1.00  0.00    -0.175 N 
ATOM     19  H6  UNL     1       5.247 -24.948  35.813  1.00  0.00     0.186 HD
ENDROOT
BRANCH   1  20
HETATM   20  C3  UNL     1       3.167 -28.178  36.614  1.00  0.00     0.193 C 
HETATM   21  S1  UNL     1       1.946 -28.051  37.674  1.00  0.00    -0.040 SA
BRANCH  20  22
HETATM   22  N1  UNL     1       3.486 -29.442  36.069  1.00  0.00    -0.304 N 
HETATM   23  C2  UNL     1       3.879 -30.501  36.909  1.00  0.00     0.219 C 
HETATM   24  C1  UNL     1       4.207 -31.817  36.310  1.00  0.00     0.117 C 
HETATM   25  O1  UNL     1       3.961 -30.371  38.146  1.00  0.00    -0.274 OA
ATOM     26  H1  UNL     1       3.430 -29.588  35.061  1.00  0.00     0.171 HD
ENDBRANCH  20  22
ENDBRANCH   1  20
BRANCH  14  27
HETATM   27  C13 UNL     1       9.850 -23.287  34.827  1.00  0.00     0.066 A 
HETATM   28  C14 UNL     1      11.219 -23.262  34.986  1.00  0.00     0.032 A 
HETATM   29  C15 UNL     1      12.028 -22.382  34.298  1.00  0.00     0.004 A 
HETATM   30  C16 UNL     1      11.446 -21.497  33.420  1.00  0.00     0.017 A 
HETATM   31  C17 UNL     1      10.075 -21.526  33.264  1.00  0.00     0.088 A 
HETATM   32  N4  UNL     1       9.311 -22.413  33.964  1.00  0.00    -0.364 N 
ATOM     33  H4  UNL     1       8.300 -22.411  33.828  1.00  0.00     0.165 HD
ENDBRANCH  14  27
TORSDOF 3
ENDMDL
MODEL 4
REMARK VINA RESULT: -7.594209960      3.523      8.269
REMARK  3 active torsions:
REMARK  status: ('A' for Active; 'I' for Inactive)
REMARK       I    between atoms: C2_2  and  N1_4 
REMARK    1  A    between atoms: N1_4  and  C3_6 
REMARK    2  A    between atoms: C3_6  and  N2_8 
REMARK    3  A    between atoms: C12_21  and  C13_22 
ROOT
HETATM    1  N2  UNL     1       4.834 -31.950  36.156  1.00  0.00    -0.166 N 
ATOM      2  H2  UNL     1       5.787 -32.084  35.819  1.00  0.00     0.186 HD
HETATM    3  C4  UNL     1       4.417 -30.759  36.393  1.00  0.00     0.686 C 
HETATM    4  N3  UNL     1       3.057 -30.729  36.860  1.00  0.00    -0.191 N 
ATOM      5  H3  UNL     1       2.543 -31.609  36.819  1.00  0.00     0.184 HD
HETATM    6  C5  UNL     1       2.361 -29.623  37.364  1.00  0.00     0.060 A 
HETATM    7  C6  UNL     1       1.045 -29.892  37.657  1.00  0.00     0.031 A 
HETATM    8  C7  UNL     1       0.215 -28.896  38.168  1.00  0.00     0.002 A 
HETATM    9  C8  UNL     1       0.705 -27.613  38.390  1.00  0.00     0.001 A 
HETATM   10  C9  UNL     1       2.038 -27.369  38.085  1.00  0.00     0.015 A 
HETATM   11  C10 UNL     1       2.848 -28.365  37.579  1.00  0.00     0.012 A 
HETATM   12  C11 UNL     1       4.196 -27.815  37.356  1.00  0.00     0.064 A 
HETATM   13  S2  UNL     1       4.781 -26.259  37.828  1.00  0.00    -0.066 SA
HETATM   14  C12 UNL     1       6.373 -26.397  37.223  1.00  0.00     0.103 A 
HETATM   15  N5  UNL     1       6.375 -27.603  36.702  1.00  0.00    -0.333 N 
ATOM     16  H5  UNL     1       7.219 -27.964  36.258  1.00  0.00     0.168 HD
HETATM   17  C18 UNL     1       5.301 -28.337  36.753  1.00  0.00     0.140 A 
HETATM   18  N6  UNL     1       5.306 -29.671  36.174  1.00  0.00    -0.175 N 
ATOM     19  H6  UNL     1       6.061 -29.853  35.512  1.00  0.00     0.186 HD
ENDROOT
BRANCH   1  20
HETATM   20  C3  UNL     1       4.001 -33.087  36.351  1.00  0.00     0.193 C 
HETATM   21  S1  UNL     1       3.362 -33.934  35.125  1.00  0.00    -0.040 SA
BRANCH  20  22
HETATM   22  N1  UNL     1       3.733 -33.479  37.682  1.00  0.00    -0.304 N 
HETATM   23  C2  UNL     1       4.782 -33.603  38.612  1.00  0.00     0.219 C 
HETATM   24  C1  UNL     1       4.473 -34.016  40.002  1.00  0.00     0.117 C 
HETATM   25  O1  UNL     1       5.970 -33.376  38.307  1.00  0.00    -0.274 OA
ATOM     26  H1  UNL     1       2.774 -33.673  37.970  1.00  0.00     0.171 HD
ENDBRANCH  20  22
ENDBRANCH   1  20
BRANCH  14  27
HETATM   27  C13 UNL     1       7.426 -25.396  37.295  1.00  0.00     0.066 A 
HETATM   28  C14 UNL     1       7.787 -24.855  38.511  1.00  0.00     0.032 A 
HETATM   29  C15 UNL     1       8.778 -23.903  38.633  1.00  0.00     0.004 A 
HETATM   30  C16 UNL     1       9.431 -23.479  37.498  1.00  0.00     0.017 A 
HETATM   31  C17 UNL     1       9.067 -24.024  36.284  1.00  0.00     0.088 A 
HETATM   32  N4  UNL     1       8.081 -24.963  36.207  1.00  0.00    -0.364 N 
ATOM     33  H4  UNL     1       7.834 -25.348  35.295  1.00  0.00     0.165 HD
ENDBRANCH  14  27
TORSDOF 3
ENDMDL
MODEL 5
REMARK VINA RESULT: -7.565782701      4.024      9.004
REMARK  3 active torsions:
REMARK  status: ('A' for Active; 'I' for Inactive)
REMARK       I    between atoms: C2_2  and  N1_4 
REMARK    1  A    between atoms: N1_4  and  C3_6 
REMARK    2  A    between atoms: C3_6  and  N2_8 
REMARK    3  A    between atoms: C12_21  and  C13_22 
ROOT
HETATM    1  N2  UNL     1       0.841 -28.146  36.526  1.00  0.00    -0.166 N 
ATOM      2  H2  UNL     1       0.686 -27.186  36.218  1.00  0.00     0.186 HD
HETATM    3  C4  UNL     1       1.934 -28.439  37.131  1.00  0.00     0.686 C 
HETATM    4  N3  UNL     1       2.010 -29.825  37.504  1.00  0.00    -0.191 N 
ATOM      5  H3  UNL     1       1.160 -30.376  37.380  1.00  0.00     0.184 HD
HETATM    6  C5  UNL     1       3.122 -30.502  38.019  1.00  0.00     0.060 A 
HETATM    7  C6  UNL     1       2.859 -31.811  38.353  1.00  0.00     0.031 A 
HETATM    8  C7  UNL     1       3.862 -32.622  38.880  1.00  0.00     0.002 A 
HETATM    9  C8  UNL     1       5.145 -32.122  39.076  1.00  0.00     0.001 A 
HETATM   10  C9  UNL     1       5.382 -30.798  38.730  1.00  0.00     0.015 A 
HETATM   11  C10 UNL     1       4.379 -30.006  38.210  1.00  0.00     0.012 A 
HETATM   12  C11 UNL     1       4.923 -28.663  37.942  1.00  0.00     0.064 A 
HETATM   13  S2  UNL     1       6.576 -28.167  38.040  1.00  0.00    -0.066 SA
HETATM   14  C12 UNL     1       6.371 -26.530  37.596  1.00  0.00     0.103 A 
HETATM   15  N5  UNL     1       5.074 -26.449  37.400  1.00  0.00    -0.333 N 
ATOM     16  H5  UNL     1       4.656 -25.563  37.118  1.00  0.00     0.168 HD
HETATM   17  C18 UNL     1       4.323 -27.499  37.565  1.00  0.00     0.140 A 
HETATM   18  N6  UNL     1       2.889 -27.406  37.348  1.00  0.00    -0.175 N 
ATOM     19  H6  UNL     1       2.510 -26.459  37.353  1.00  0.00     0.186 HD
ENDROOT
BRANCH   1  20
HETATM   20  C3  UNL     1      -0.160 -29.125  36.274  1.00  0.00     0.193 C 
HETATM   21  S1  UNL     1      -1.358 -29.452  37.316  1.00  0.00    -0.040 SA
BRANCH  20  22
HETATM   22  N1  UNL     1      -0.088 -29.832  35.052  1.00  0.00    -0.304 N 
HETATM   23  C2  UNL     1       0.065 -29.139  33.837  1.00  0.00     0.219 C 
HETATM   24  C1  UNL     1       0.138 -29.905  32.569  1.00  0.00     0.117 C 
HETATM   25  O1  UNL     1       0.143 -27.895  33.787  1.00  0.00    -0.274 OA
ATOM     26  H1  UNL     1      -0.148 -30.850  35.051  1.00  0.00     0.171 HD
ENDBRANCH  20  22
ENDBRANCH   1  20
BRANCH  14  27
HETATM   27  C13 UNL     1       7.410 -25.518  37.480  1.00  0.00     0.066 A 
HETATM   28  C14 UNL     1       7.836 -24.831  38.598  1.00  0.00     0.032 A 
HETATM   29  C15 UNL     1       8.817 -23.863  38.542  1.00  0.00     0.004 A 
HETATM   30  C16 UNL     1       9.392 -23.573  37.326  1.00  0.00     0.017 A 
HETATM   31  C17 UNL     1       8.963 -24.264  36.211  1.00  0.00     0.088 A 
HETATM   32  N4  UNL     1       7.990 -25.214  36.310  1.00  0.00    -0.364 N 
ATOM     33  H4  UNL     1       7.693 -25.708  35.468  1.00  0.00     0.165 HD
ENDBRANCH  14  27
TORSDOF 3
ENDMDL
