MODEL 1
REMARK VINA RESULT: -8.983927720      0.000      0.000
REMARK  4 active torsions:
REMARK  status: ('A' for Active; 'I' for Inactive)
REMARK       I    between atoms: C1_2  and  N1_3 
REMARK       I    between atoms: C1_2  and  N4_24 
REMARK    1  A    between atoms: N1_3  and  C2_5 
REMARK    2  A    between atoms: C5_12  and  C6_13 
REMARK    3  A    between atoms: C7_14  and  C8_15 
REMARK    4  A    between atoms: N4_24  and  C16_26 
ROOT
HETATM    1  C2  UNL     1       8.634 -24.986  38.188  1.00  0.00     0.129 A 
HETATM    2  N2  UNL     1       9.512 -25.946  38.557  1.00  0.00    -0.337 N 
ATOM      3  H2  UNL     1      10.493 -25.750  38.757  1.00  0.00     0.168 HD
HETATM    4  C3  UNL     1       8.976 -27.201  38.639  1.00  0.00     0.182 A 
HETATM    5  N3  UNL     1       7.720 -27.501  38.391  1.00  0.00    -0.350 N 
ATOM      6  H3  UNL     1       7.419 -28.471  38.481  1.00  0.00     0.166 HD
HETATM    7  C4  UNL     1       6.795 -26.550  38.013  1.00  0.00     0.073 A 
HETATM    8  C5  UNL     1       5.482 -26.715  37.729  1.00  0.00     0.052 A 
HETATM    9  C14 UNL     1       4.780 -25.596  37.375  1.00  0.00     0.073 A 
HETATM   10  S1  UNL     1       5.951 -24.362  37.447  1.00  0.00    -0.094 SA
HETATM   11  C15 UNL     1       7.302 -25.286  37.923  1.00  0.00     0.077 A 
ENDROOT
BRANCH   1  12
HETATM   12  N1  UNL     1       9.013 -23.762  38.075  1.00  0.00    -0.293 N 
HETATM   13  C1  UNL     1      10.241 -23.402  37.442  1.00  0.00     0.326 C 
HETATM   14  O1  UNL     1      10.315 -23.556  36.221  1.00  0.00    -0.247 OA
HETATM   15  N4  UNL     1      11.289 -22.898  38.219  1.00  0.00    -0.307 N 
ATOM     16  H4  UNL     1      11.131 -22.799  39.222  1.00  0.00     0.170 HD
ATOM     17  H1  UNL     1       8.417 -23.024  38.449  1.00  0.00     0.172 HD
BRANCH  15  18
HETATM   18  C16 UNL     1      12.539 -22.519  37.715  1.00  0.00     0.051 A 
HETATM   19  C17 UNL     1      13.619 -23.360  38.034  1.00  0.00     0.032 A 
HETATM   20  C18 UNL     1      14.852 -23.041  37.545  1.00  0.00     0.019 A 
HETATM   21  C19 UNL     1      15.069 -21.942  36.762  1.00  0.00     0.088 A 
HETATM   22  N5  UNL     1      14.035 -21.161  36.472  1.00  0.00    -0.373 N 
HETATM   23  C20 UNL     1      12.773 -21.429  36.933  1.00  0.00     0.117 A 
ATOM     24  H5  UNL     1      14.184 -20.338  35.889  1.00  0.00     0.164 HD
ENDBRANCH  15  18
ENDBRANCH   1  12
BRANCH   8  25
HETATM   25  C6  UNL     1       4.797 -28.019  37.784  1.00  0.00    -0.059 C 
HETATM   26  C7  UNL     1       4.237 -29.089  37.806  1.00  0.00    -0.061 C 
BRANCH  26  27
HETATM   27  C8  UNL     1       3.587 -30.368  37.815  1.00  0.00     0.018 A 
HETATM   28  C9  UNL     1       4.289 -31.520  38.174  1.00  0.00     0.020 A 
HETATM   29  C10 UNL     1       3.671 -32.748  38.183  1.00  0.00     0.001 A 
HETATM   30  C11 UNL     1       2.345 -32.896  37.842  1.00  0.00     0.000 A 
HETATM   31  C12 UNL     1       1.642 -31.768  37.485  1.00  0.00     0.001 A 
HETATM   32  C13 UNL     1       2.265 -30.538  37.477  1.00  0.00     0.020 A 
ENDBRANCH  26  27
ENDBRANCH   8  25
TORSDOF 4
ENDMDL
MODEL 2
REMARK VINA RESULT: -8.908263508      3.010     10.718
REMARK  4 active torsions:
REMARK  status: ('A' for Active; 'I' for Inactive)
REMARK       I    between atoms: C1_2  and  N1_3 
REMARK       I    between atoms: C1_2  and  N4_24 
REMARK    1  A    between atoms: N1_3  and  C2_5 
REMARK    2  A    between atoms: C5_12  and  C6_13 
REMARK    3  A    between atoms: C7_14  and  C8_15 
REMARK    4  A    between atoms: N4_24  and  C16_26 
ROOT
HETATM    1  C2  UNL     1       7.675 -25.861  37.393  1.00  0.00     0.129 A 
HETATM    2  N2  UNL     1       6.588 -25.076  37.576  1.00  0.00    -0.337 N 
ATOM      3  H2  UNL     1       5.635 -25.414  37.444  1.00  0.00     0.168 HD
HETATM    4  C3  UNL     1       6.874 -23.793  37.953  1.00  0.00     0.182 A 
HETATM    5  N3  UNL     1       8.086 -23.314  38.135  1.00  0.00    -0.350 N 
ATOM      6  H3  UNL     1       8.192 -22.340  38.416  1.00  0.00     0.166 HD
HETATM    7  C4  UNL     1       9.217 -24.083  37.959  1.00  0.00     0.073 A 
HETATM    8  C5  UNL     1      10.514 -23.725  38.109  1.00  0.00     0.052 A 
HETATM    9  C14 UNL     1      11.454 -24.689  37.870  1.00  0.00     0.073 A 
HETATM   10  S1  UNL     1      10.520 -26.048  37.447  1.00  0.00    -0.094 SA
HETATM   11  C15 UNL     1       8.962 -25.371  37.582  1.00  0.00     0.077 A 
ENDROOT
BRANCH   1  12
HETATM   12  N1  UNL     1       7.540 -27.090  37.039  1.00  0.00    -0.293 N 
HETATM   13  C1  UNL     1       6.273 -27.648  36.693  1.00  0.00     0.326 C 
HETATM   14  O1  UNL     1       5.756 -27.269  35.639  1.00  0.00    -0.247 OA
HETATM   15  N4  UNL     1       5.681 -28.583  37.547  1.00  0.00    -0.307 N 
ATOM     16  H4  UNL     1       6.188 -28.840  38.394  1.00  0.00     0.170 HD
ATOM     17  H1  UNL     1       8.368 -27.686  37.003  1.00  0.00     0.172 HD
BRANCH  15  18
HETATM   18  C16 UNL     1       4.440 -29.192  37.319  1.00  0.00     0.051 A 
HETATM   19  C17 UNL     1       3.308 -28.380  37.500  1.00  0.00     0.032 A 
HETATM   20  C18 UNL     1       2.078 -28.926  37.267  1.00  0.00     0.019 A 
HETATM   21  C19 UNL     1       1.915 -30.223  36.869  1.00  0.00     0.088 A 
HETATM   22  N5  UNL     1       2.999 -30.972  36.704  1.00  0.00    -0.373 N 
HETATM   23  C20 UNL     1       4.259 -30.481  36.921  1.00  0.00     0.117 A 
ATOM     24  H5  UNL     1       2.890 -31.942  36.406  1.00  0.00     0.164 HD
ENDBRANCH  15  18
ENDBRANCH   1  12
BRANCH   8  25
HETATM   25  C6  UNL     1      10.941 -22.372  38.511  1.00  0.00    -0.059 C 
HETATM   26  C7  UNL     1      11.270 -21.261  38.848  1.00  0.00    -0.061 C 
BRANCH  26  27
HETATM   27  C8  UNL     1      11.648 -19.942  39.271  1.00  0.00     0.018 A 
HETATM   28  C9  UNL     1      12.199 -19.732  40.536  1.00  0.00     0.020 A 
HETATM   29  C10 UNL     1      12.562 -18.471  40.946  1.00  0.00     0.001 A 
HETATM   30  C11 UNL     1      12.401 -17.370  40.135  1.00  0.00     0.000 A 
HETATM   31  C12 UNL     1      11.858 -17.564  38.885  1.00  0.00     0.001 A 
HETATM   32  C13 UNL     1      11.495 -18.830  38.478  1.00  0.00     0.020 A 
ENDBRANCH  26  27
ENDBRANCH   8  25
TORSDOF 4
ENDMDL
MODEL 3
REMARK VINA RESULT: -8.819233778      2.917     10.160
REMARK  4 active torsions:
REMARK  status: ('A' for Active; 'I' for Inactive)
REMARK       I    between atoms: C1_2  and  N1_3 
REMARK       I    between atoms: C1_2  and  N4_24 
REMARK    1  A    between atoms: N1_3  and  C2_5 
REMARK    2  A    between atoms: C5_12  and  C6_13 
REMARK    3  A    between atoms: C7_14  and  C8_15 
REMARK    4  A    between atoms: N4_24  and  C16_26 
ROOT
HETATM    1  C2  UNL     1       5.190 -25.458  36.557  1.00  0.00     0.129 A 
HETATM    2  N2  UNL     1       4.970 -24.299  37.219  1.00  0.00    -0.337 N 
ATOM      3  H2  UNL     1       4.035 -23.975  37.468  1.00  0.00     0.168 HD
HETATM    4  C3  UNL     1       6.102 -23.598  37.525  1.00  0.00     0.182 A 
HETATM    5  N3  UNL     1       7.326 -23.976  37.224  1.00  0.00    -0.350 N 
ATOM      6  H3  UNL     1       8.106 -23.379  37.497  1.00  0.00     0.166 HD
HETATM    7  C4  UNL     1       7.591 -25.150  36.551  1.00  0.00     0.073 A 
HETATM    8  C5  UNL     1       8.789 -25.659  36.178  1.00  0.00     0.052 A 
HETATM    9  C14 UNL     1       8.775 -26.855  35.514  1.00  0.00     0.073 A 
HETATM   10  S1  UNL     1       7.117 -27.232  35.427  1.00  0.00    -0.094 SA
HETATM   11  C15 UNL     1       6.477 -25.872  36.232  1.00  0.00     0.077 A 
ENDROOT
BRANCH   1  12
HETATM   12  N1  UNL     1       4.206 -26.211  36.212  1.00  0.00    -0.293 N 
HETATM   13  C1  UNL     1       3.753 -27.293  37.026  1.00  0.00     0.326 C 
HETATM   14  O1  UNL     1       3.186 -27.006  38.084  1.00  0.00    -0.247 OA
HETATM   15  N4  UNL     1       3.967 -28.607  36.599  1.00  0.00    -0.307 N 
ATOM     16  H4  UNL     1       4.439 -28.745  35.706  1.00  0.00     0.170 HD
ATOM     17  H1  UNL     1       3.733 -26.029  35.327  1.00  0.00     0.172 HD
BRANCH  15  18
HETATM   18  C16 UNL     1       3.577 -29.746  37.314  1.00  0.00     0.051 A 
HETATM   19  C17 UNL     1       4.610 -30.498  37.898  1.00  0.00     0.032 A 
HETATM   20  C18 UNL     1       4.274 -31.605  38.622  1.00  0.00     0.019 A 
HETATM   21  C19 UNL     1       2.978 -32.001  38.796  1.00  0.00     0.088 A 
HETATM   22  N5  UNL     1       2.017 -31.276  38.236  1.00  0.00    -0.373 N 
HETATM   23  C20 UNL     1       2.291 -30.155  37.498  1.00  0.00     0.117 A 
ATOM     24  H5  UNL     1       1.045 -31.562  38.360  1.00  0.00     0.164 HD
ENDBRANCH  15  18
ENDBRANCH   1  12
BRANCH   8  25
HETATM   25  C6  UNL     1      10.075 -24.992  36.454  1.00  0.00    -0.059 C 
HETATM   26  C7  UNL     1      11.122 -24.430  36.666  1.00  0.00    -0.061 C 
BRANCH  26  27
HETATM   27  C8  UNL     1      12.355 -23.739  36.916  1.00  0.00     0.018 A 
HETATM   28  C9  UNL     1      12.757 -22.683  36.096  1.00  0.00     0.020 A 
HETATM   29  C10 UNL     1      13.937 -22.019  36.331  1.00  0.00     0.001 A 
HETATM   30  C11 UNL     1      14.767 -22.360  37.376  1.00  0.00     0.000 A 
HETATM   31  C12 UNL     1      14.381 -23.399  38.191  1.00  0.00     0.001 A 
HETATM   32  C13 UNL     1      13.197 -24.064  37.952  1.00  0.00     0.020 A 
ENDBRANCH  26  27
ENDBRANCH   8  25
TORSDOF 4
ENDMDL
MODEL 4
REMARK VINA RESULT: -8.720631280      2.208      2.653
REMARK  4 active torsions:
REMARK  status: ('A' for Active; 'I' for Inactive)
REMARK       I    between atoms: C1_2  and  N1_3 
REMARK       I    between atoms: C1_2  and  N4_24 
REMARK    1  A    between atoms: N1_3  and  C2_5 
REMARK    2  A    between atoms: C5_12  and  C6_13 
REMARK    3  A    between atoms: C7_14  and  C8_15 
REMARK    4  A    between atoms: N4_24  and  C16_26 
ROOT
HETATM    1  C2  UNL     1       8.520 -25.085  38.043  1.00  0.00     0.129 A 
HETATM    2  N2  UNL     1       8.022 -24.075  37.294  1.00  0.00    -0.337 N 
ATOM      3  H2  UNL     1       8.550 -23.226  37.091  1.00  0.00     0.168 HD
HETATM    4  C3  UNL     1       6.753 -24.285  36.832  1.00  0.00     0.182 A 
HETATM    5  N3  UNL     1       6.035 -25.362  37.068  1.00  0.00    -0.350 N 
ATOM      6  H3  UNL     1       5.095 -25.422  36.676  1.00  0.00     0.166 HD
HETATM    7  C4  UNL     1       6.507 -26.412  37.826  1.00  0.00     0.073 A 
HETATM    8  C5  UNL     1       5.884 -27.570  38.147  1.00  0.00     0.052 A 
HETATM    9  C14 UNL     1       6.582 -28.456  38.921  1.00  0.00     0.073 A 
HETATM   10  S1  UNL     1       8.066 -27.663  39.177  1.00  0.00    -0.094 SA
HETATM   11  C15 UNL     1       7.774 -26.230  38.301  1.00  0.00     0.077 A 
ENDROOT
BRANCH   1  12
HETATM   12  N1  UNL     1       9.705 -25.010  38.537  1.00  0.00    -0.293 N 
HETATM   13  C1  UNL     1      10.622 -23.983  38.161  1.00  0.00     0.326 C 
HETATM   14  O1  UNL     1      10.373 -22.835  38.539  1.00  0.00    -0.247 OA
HETATM   15  N4  UNL     1      11.744 -24.314  37.394  1.00  0.00    -0.307 N 
ATOM     16  H4  UNL     1      11.869 -25.292  37.135  1.00  0.00     0.170 HD
ATOM     17  H1  UNL     1      10.000 -25.708  39.221  1.00  0.00     0.172 HD
BRANCH  15  18
HETATM   18  C16 UNL     1      12.706 -23.395  36.959  1.00  0.00     0.051 A 
HETATM   19  C17 UNL     1      13.932 -23.406  37.645  1.00  0.00     0.032 A 
HETATM   20  C18 UNL     1      14.907 -22.541  37.240  1.00  0.00     0.019 A 
HETATM   21  C19 UNL     1      14.732 -21.674  36.199  1.00  0.00     0.088 A 
HETATM   22  N5  UNL     1      13.566 -21.680  35.563  1.00  0.00    -0.373 N 
HETATM   23  C20 UNL     1      12.549 -22.525  35.923  1.00  0.00     0.117 A 
ATOM     24  H5  UNL     1      13.423 -21.038  34.784  1.00  0.00     0.164 HD
ENDBRANCH  15  18
ENDBRANCH   1  12
BRANCH   8  25
HETATM   25  C6  UNL     1       4.518 -27.906  37.706  1.00  0.00    -0.059 C 
HETATM   26  C7  UNL     1       3.405 -28.178  37.323  1.00  0.00    -0.061 C 
BRANCH  26  27
HETATM   27  C8  UNL     1       2.092 -28.512  36.849  1.00  0.00     0.018 A 
HETATM   28  C9  UNL     1       1.886 -28.847  35.509  1.00  0.00     0.020 A 
HETATM   29  C10 UNL     1       0.631 -29.168  35.049  1.00  0.00     0.001 A 
HETATM   30  C11 UNL     1      -0.468 -29.172  35.880  1.00  0.00     0.000 A 
HETATM   31  C12 UNL     1      -0.277 -28.842  37.202  1.00  0.00     0.001 A 
HETATM   32  C13 UNL     1       0.983 -28.521  37.660  1.00  0.00     0.020 A 
ENDBRANCH  26  27
ENDBRANCH   8  25
TORSDOF 4
ENDMDL
MODEL 5
REMARK VINA RESULT: -8.689485142      1.097      1.319
REMARK  4 active torsions:
REMARK  status: ('A' for Active; 'I' for Inactive)
REMARK       I    between atoms: C1_2  and  N1_3 
REMARK       I    between atoms: C1_2  and  N4_24 
REMARK    1  A    between atoms: N1_3  and  C2_5 
REMARK    2  A    between atoms: C5_12  and  C6_13 
REMARK    3  A    between atoms: C7_14  and  C8_15 
REMARK    4  A    between atoms: N4_24  and  C16_26 
ROOT
HETATM    1  C2  UNL     1       8.709 -25.551  37.618  1.00  0.00     0.129 A 
HETATM    2  N2  UNL     1       9.430 -26.225  38.543  1.00  0.00    -0.337 N 
ATOM      3  H2  UNL     1      10.332 -25.896  38.887  1.00  0.00     0.168 HD
HETATM    4  C3  UNL     1       8.850 -27.384  38.977  1.00  0.00     0.182 A 
HETATM    5  N3  UNL     1       7.691 -27.848  38.562  1.00  0.00    -0.350 N 
ATOM      6  H3  UNL     1       7.345 -28.725  38.949  1.00  0.00     0.166 HD
HETATM    7  C4  UNL     1       6.928 -27.189  37.621  1.00  0.00     0.073 A 
HETATM    8  C5  UNL     1       5.728 -27.546  37.106  1.00  0.00     0.052 A 
HETATM    9  C14 UNL     1       5.178 -26.708  36.176  1.00  0.00     0.073 A 
HETATM   10  S1  UNL     1       6.331 -25.462  36.046  1.00  0.00    -0.094 SA
HETATM   11  C15 UNL     1       7.482 -26.027  37.169  1.00  0.00     0.077 A 
ENDROOT
BRANCH   1  12
HETATM   12  N1  UNL     1       9.146 -24.444  37.129  1.00  0.00    -0.293 N 
HETATM   13  C1  UNL     1      10.522 -24.245  36.805  1.00  0.00     0.326 C 
HETATM   14  O1  UNL     1      10.972 -24.868  35.840  1.00  0.00    -0.247 OA
HETATM   15  N4  UNL     1      11.287 -23.368  37.580  1.00  0.00    -0.307 N 
ATOM     16  H4  UNL     1      10.825 -22.892  38.354  1.00  0.00     0.170 HD
ATOM     17  H1  UNL     1       8.486 -23.682  36.967  1.00  0.00     0.172 HD
BRANCH  15  18
HETATM   18  C16 UNL     1      12.644 -23.099  37.365  1.00  0.00     0.051 A 
HETATM   19  C17 UNL     1      12.937 -22.044  36.485  1.00  0.00     0.032 A 
HETATM   20  C18 UNL     1      14.248 -21.733  36.263  1.00  0.00     0.019 A 
HETATM   21  C19 UNL     1      15.273 -22.407  36.863  1.00  0.00     0.088 A 
HETATM   22  N5  UNL     1      14.974 -23.401  37.692  1.00  0.00    -0.373 N 
HETATM   23  C20 UNL     1      13.679 -23.760  37.955  1.00  0.00     0.117 A 
ATOM     24  H5  UNL     1      15.731 -23.911  38.147  1.00  0.00     0.164 HD
ENDBRANCH  15  18
ENDBRANCH   1  12
BRANCH   8  25
HETATM   25  C6  UNL     1       5.009 -28.773  37.498  1.00  0.00    -0.059 C 
HETATM   26  C7  UNL     1       4.440 -29.786  37.825  1.00  0.00    -0.061 C 
BRANCH  26  27
HETATM   27  C8  UNL     1       3.780 -30.995  38.230  1.00  0.00     0.018 A 
HETATM   28  C9  UNL     1       4.516 -32.075  38.722  1.00  0.00     0.020 A 
HETATM   29  C10 UNL     1       3.890 -33.235  39.112  1.00  0.00     0.001 A 
HETATM   30  C11 UNL     1       2.522 -33.382  39.036  1.00  0.00     0.000 A 
HETATM   31  C12 UNL     1       1.787 -32.325  38.552  1.00  0.00     0.001 A 
HETATM   32  C13 UNL     1       2.418 -31.163  38.162  1.00  0.00     0.020 A 
ENDBRANCH  26  27
ENDBRANCH   8  25
TORSDOF 4
ENDMDL
