MODEL 1
REMARK VINA RESULT: -12.245267610      0.000      0.000
REMARK  3 active torsions:
REMARK  status: ('A' for Active; 'I' for Inactive)
REMARK       I    between atoms: C1_2  and  N1_3 
REMARK       I    between atoms: C1_2  and  N3_16 
REMARK    1  A    between atoms: N1_3  and  C2_5 
REMARK    2  A    between atoms: N3_16  and  C11_18 
REMARK    3  A    between atoms: C14_23  and  C15_24 
ROOT
HETATM    1  C11 UNL     1      11.233 -23.528  37.036  1.00  0.00     0.234 A 
HETATM    2  N4  UNL     1      10.166 -23.826  36.287  1.00  0.00    -0.318 N 
ATOM      3  H4  UNL     1       9.869 -23.354  35.433  1.00  0.00     0.169 HD
HETATM    4  C12 UNL     1       9.564 -24.868  36.878  1.00  0.00     0.090 A 
HETATM    5  C13 UNL     1       8.429 -25.630  36.598  1.00  0.00     0.066 A 
HETATM    6  C14 UNL     1       8.065 -26.659  37.415  1.00  0.00     0.060 A 
HETATM    7  N5  UNL     1       8.844 -26.908  38.501  1.00  0.00    -0.298 N 
ATOM      8  H5  UNL     1       8.583 -27.675  39.121  1.00  0.00     0.187 HD
HETATM    9  N6  UNL     1       9.909 -26.214  38.789  1.00  0.00    -0.277 N 
ATOM     10  H6  UNL     1      10.458 -26.444  39.618  1.00  0.00     0.189 HD
HETATM   11  C21 UNL     1      10.284 -25.202  38.001  1.00  0.00     0.193 A 
HETATM   12  O2  UNL     1      11.291 -24.350  38.047  1.00  0.00    -0.258 OA
ENDROOT
BRANCH   1  13
HETATM   13  N3  UNL     1      12.054 -22.571  36.767  1.00  0.00    -0.274 N 
HETATM   14  C1  UNL     1      12.688 -21.880  37.832  1.00  0.00     0.328 C 
HETATM   15  O1  UNL     1      13.944 -21.643  37.717  1.00  0.00    -0.247 OA
HETATM   16  N1  UNL     1      12.028 -21.437  39.007  1.00  0.00    -0.294 N 
ATOM     17  H1  UNL     1      11.571 -22.134  39.595  1.00  0.00     0.172 HD
ATOM     18  H3  UNL     1      12.246 -22.313  35.799  1.00  0.00     0.174 HD
BRANCH  16  19
HETATM   19  C2  UNL     1      11.975 -20.189  39.375  1.00  0.00     0.109 A 
HETATM   20  C3  UNL     1      12.200 -19.888  40.714  1.00  0.00     0.049 A 
HETATM   21  C4  UNL     1      12.158 -18.582  41.154  1.00  0.00     0.017 A 
HETATM   22  C5  UNL     1      11.892 -17.557  40.272  1.00  0.00    -0.009 A 
HETATM   23  C6  UNL     1      11.839 -16.220  40.659  1.00  0.00     0.013 A 
HETATM   24  C10 UNL     1      11.672 -17.872  38.951  1.00  0.00     0.043 A 
HETATM   25  C7  UNL     1      11.573 -15.203  39.762  1.00  0.00     0.001 A 
HETATM   26  C8  UNL     1      11.353 -15.527  38.434  1.00  0.00     0.002 A 
HETATM   27  C9  UNL     1      11.407 -16.856  38.055  1.00  0.00     0.030 A 
HETATM   28  N2  UNL     1      11.720 -19.171  38.543  1.00  0.00    -0.342 N 
ATOM     29  H2  UNL     1      11.554 -19.378  37.558  1.00  0.00     0.167 HD
ENDBRANCH  16  19
ENDBRANCH   1  13
BRANCH   6  30
HETATM   30  C15 UNL     1       6.893 -27.467  37.148  1.00  0.00    -0.008 A 
HETATM   31  C16 UNL     1       6.181 -28.137  38.111  1.00  0.00     0.014 A 
HETATM   32  C17 UNL     1       5.047 -28.905  37.813  1.00  0.00     0.001 A 
HETATM   33  C18 UNL     1       4.614 -29.006  36.510  1.00  0.00     0.000 A 
HETATM   34  C19 UNL     1       5.323 -28.340  35.540  1.00  0.00     0.001 A 
HETATM   35  C20 UNL     1       6.438 -27.583  35.829  1.00  0.00     0.014 A 
ENDBRANCH   6  30
TORSDOF 3
ENDMDL
MODEL 2
REMARK VINA RESULT: -10.980140898      1.483      9.775
REMARK  3 active torsions:
REMARK  status: ('A' for Active; 'I' for Inactive)
REMARK       I    between atoms: C1_2  and  N1_3 
REMARK       I    between atoms: C1_2  and  N3_16 
REMARK    1  A    between atoms: N1_3  and  C2_5 
REMARK    2  A    between atoms: N3_16  and  C11_18 
REMARK    3  A    between atoms: C14_23  and  C15_24 
ROOT
HETATM    1  C11 UNL     1      12.056 -24.137  37.264  1.00  0.00     0.234 A 
HETATM    2  N4  UNL     1      11.596 -23.477  38.332  1.00  0.00    -0.318 N 
ATOM      3  H4  UNL     1      11.134 -23.882  39.146  1.00  0.00     0.169 HD
HETATM    4  C12 UNL     1      11.862 -22.180  38.123  1.00  0.00     0.090 A 
HETATM    5  C13 UNL     1      11.640 -21.007  38.846  1.00  0.00     0.066 A 
HETATM    6  C14 UNL     1      12.040 -19.801  38.352  1.00  0.00     0.060 A 
HETATM    7  N5  UNL     1      12.657 -19.789  37.140  1.00  0.00    -0.298 N 
ATOM      8  H5  UNL     1      12.961 -18.894  36.759  1.00  0.00     0.187 HD
HETATM    9  N6  UNL     1      12.877 -20.867  36.441  1.00  0.00    -0.277 N 
ATOM     10  H6  UNL     1      13.343 -20.801  35.536  1.00  0.00     0.189 HD
HETATM   11  C21 UNL     1      12.493 -22.059  36.908  1.00  0.00     0.193 A 
HETATM   12  O2  UNL     1      12.584 -23.286  36.428  1.00  0.00    -0.258 OA
ENDROOT
BRANCH   1  13
HETATM   13  N3  UNL     1      11.972 -25.415  37.118  1.00  0.00    -0.274 N 
HETATM   14  C1  UNL     1      10.854 -25.966  36.441  1.00  0.00     0.328 C 
HETATM   15  O1  UNL     1      11.081 -26.891  35.581  1.00  0.00    -0.247 OA
HETATM   16  N1  UNL     1       9.510 -25.564  36.652  1.00  0.00    -0.294 N 
ATOM     17  H1  UNL     1       9.265 -24.589  36.477  1.00  0.00     0.172 HD
ATOM     18  H3  UNL     1      12.703 -26.024  37.486  1.00  0.00     0.174 HD
BRANCH  16  19
HETATM   19  C2  UNL     1       8.572 -26.372  37.056  1.00  0.00     0.109 A 
HETATM   20  C3  UNL     1       8.645 -26.869  38.352  1.00  0.00     0.049 A 
HETATM   21  C4  UNL     1       7.673 -27.725  38.828  1.00  0.00     0.017 A 
HETATM   22  C5  UNL     1       6.617 -28.099  38.025  1.00  0.00    -0.009 A 
HETATM   23  C6  UNL     1       5.609 -28.957  38.453  1.00  0.00     0.013 A 
HETATM   24  C10 UNL     1       6.561 -27.597  36.745  1.00  0.00     0.043 A 
HETATM   25  C7  UNL     1       4.555 -29.321  37.636  1.00  0.00     0.001 A 
HETATM   26  C8  UNL     1       4.504 -28.813  36.349  1.00  0.00     0.002 A 
HETATM   27  C9  UNL     1       5.509 -27.960  35.930  1.00  0.00     0.030 A 
HETATM   28  N2  UNL     1       7.533 -26.753  36.300  1.00  0.00    -0.342 N 
ATOM     29  H2  UNL     1       7.467 -26.395  35.347  1.00  0.00     0.167 HD
ENDBRANCH  16  19
ENDBRANCH   1  13
BRANCH   6  30
HETATM   30  C15 UNL     1      11.825 -18.569  39.081  1.00  0.00    -0.008 A 
HETATM   31  C16 UNL     1      12.129 -18.392  40.408  1.00  0.00     0.014 A 
HETATM   32  C17 UNL     1      11.911 -17.181  41.076  1.00  0.00     0.001 A 
HETATM   33  C18 UNL     1      11.371 -16.112  40.397  1.00  0.00     0.000 A 
HETATM   34  C19 UNL     1      11.063 -16.282  39.069  1.00  0.00     0.001 A 
HETATM   35  C20 UNL     1      11.276 -17.471  38.407  1.00  0.00     0.014 A 
ENDBRANCH   6  30
TORSDOF 3
ENDMDL
MODEL 3
REMARK VINA RESULT: -10.964040686      1.663      9.838
REMARK  3 active torsions:
REMARK  status: ('A' for Active; 'I' for Inactive)
REMARK       I    between atoms: C1_2  and  N1_3 
REMARK       I    between atoms: C1_2  and  N3_16 
REMARK    1  A    between atoms: N1_3  and  C2_5 
REMARK    2  A    between atoms: N3_16  and  C11_18 
REMARK    3  A    between atoms: C14_23  and  C15_24 
ROOT
HETATM    1  C11 UNL     1      11.088 -24.263  37.405  1.00  0.00     0.234 A 
HETATM    2  N4  UNL     1      10.569 -23.474  38.352  1.00  0.00    -0.318 N 
ATOM      3  H4  UNL     1       9.845 -23.724  39.025  1.00  0.00     0.169 HD
HETATM    4  C12 UNL     1      11.189 -22.290  38.243  1.00  0.00     0.090 A 
HETATM    5  C13 UNL     1      11.101 -21.073  38.922  1.00  0.00     0.066 A 
HETATM    6  C14 UNL     1      11.890 -20.021  38.566  1.00  0.00     0.060 A 
HETATM    7  N5  UNL     1      12.756 -20.203  37.533  1.00  0.00    -0.298 N 
ATOM      8  H5  UNL     1      13.352 -19.423  37.256  1.00  0.00     0.187 HD
HETATM    9  N6  UNL     1      12.860 -21.326  36.879  1.00  0.00    -0.277 N 
ATOM     10  H6  UNL     1      13.526 -21.408  36.111  1.00  0.00     0.189 HD
HETATM   11  C21 UNL     1      12.096 -22.370  37.213  1.00  0.00     0.193 A 
HETATM   12  O2  UNL     1      11.990 -23.597  36.738  1.00  0.00    -0.258 OA
ENDROOT
BRANCH   1  13
HETATM   13  N3  UNL     1      10.728 -25.485  37.212  1.00  0.00    -0.274 N 
HETATM   14  C1  UNL     1       9.705 -25.769  36.271  1.00  0.00     0.328 C 
HETATM   15  O1  UNL     1       9.896 -26.753  35.470  1.00  0.00    -0.247 OA
HETATM   16  N1  UNL     1       8.493 -25.041  36.159  1.00  0.00    -0.294 N 
ATOM     17  H1  UNL     1       8.547 -24.043  35.954  1.00  0.00     0.172 HD
ATOM     18  H3  UNL     1      11.174 -26.242  37.732  1.00  0.00     0.174 HD
BRANCH  16  19
HETATM   19  C2  UNL     1       7.315 -25.576  36.303  1.00  0.00     0.109 A 
HETATM   20  C3  UNL     1       6.218 -24.905  35.776  1.00  0.00     0.049 A 
HETATM   21  C4  UNL     1       4.949 -25.433  35.899  1.00  0.00     0.017 A 
HETATM   22  C5  UNL     1       4.753 -26.633  36.548  1.00  0.00    -0.009 A 
HETATM   23  C6  UNL     1       3.497 -27.214  36.700  1.00  0.00     0.013 A 
HETATM   24  C10 UNL     1       5.850 -27.284  37.063  1.00  0.00     0.043 A 
HETATM   25  C7  UNL     1       3.316 -28.420  37.352  1.00  0.00     0.001 A 
HETATM   26  C8  UNL     1       4.424 -29.069  37.868  1.00  0.00     0.002 A 
HETATM   27  C9  UNL     1       5.669 -28.488  37.713  1.00  0.00     0.030 A 
HETATM   28  N2  UNL     1       7.091 -26.741  36.927  1.00  0.00    -0.342 N 
ATOM     29  H2  UNL     1       7.888 -27.244  37.317  1.00  0.00     0.167 HD
ENDBRANCH  16  19
ENDBRANCH   1  13
BRANCH   6  30
HETATM   30  C15 UNL     1      11.822 -18.749  39.254  1.00  0.00    -0.008 A 
HETATM   31  C16 UNL     1      12.173 -18.561  40.567  1.00  0.00     0.014 A 
HETATM   32  C17 UNL     1      12.099 -17.311  41.196  1.00  0.00     0.001 A 
HETATM   33  C18 UNL     1      11.659 -16.215  40.489  1.00  0.00     0.000 A 
HETATM   34  C19 UNL     1      11.304 -16.396  39.174  1.00  0.00     0.001 A 
HETATM   35  C20 UNL     1      11.376 -17.623  38.552  1.00  0.00     0.014 A 
ENDBRANCH   6  30
TORSDOF 3
ENDMDL
MODEL 4
REMARK VINA RESULT: -10.684847705      0.669      1.400
REMARK  3 active torsions:
REMARK  status: ('A' for Active; 'I' for Inactive)
REMARK       I    between atoms: C1_2  and  N1_3 
REMARK       I    between atoms: C1_2  and  N3_16 
REMARK    1  A    between atoms: N1_3  and  C2_5 
REMARK    2  A    between atoms: N3_16  and  C11_18 
REMARK    3  A    between atoms: C14_23  and  C15_24 
ROOT
HETATM    1  C11 UNL     1      11.416 -23.493  37.002  1.00  0.00     0.234 A 
HETATM    2  N4  UNL     1      10.380 -23.822  36.225  1.00  0.00    -0.318 N 
ATOM      3  H4  UNL     1      10.119 -23.388  35.339  1.00  0.00     0.169 HD
HETATM    4  C12 UNL     1       9.749 -24.834  36.838  1.00  0.00     0.090 A 
HETATM    5  C13 UNL     1       8.623 -25.605  36.547  1.00  0.00     0.066 A 
HETATM    6  C14 UNL     1       8.221 -26.594  37.394  1.00  0.00     0.060 A 
HETATM    7  N5  UNL     1       8.955 -26.796  38.521  1.00  0.00    -0.298 N 
ATOM      8  H5  UNL     1       8.664 -27.533  39.164  1.00  0.00     0.187 HD
HETATM    9  N6  UNL     1      10.010 -26.093  38.821  1.00  0.00    -0.277 N 
ATOM     10  H6  UNL     1      10.524 -26.286  39.680  1.00  0.00     0.189 HD
HETATM   11  C21 UNL     1      10.421 -25.119  38.003  1.00  0.00     0.193 A 
HETATM   12  O2  UNL     1      11.430 -24.268  38.051  1.00  0.00    -0.258 OA
ENDROOT
BRANCH   1  13
HETATM   13  N3  UNL     1      12.252 -22.552  36.724  1.00  0.00    -0.274 N 
HETATM   14  C1  UNL     1      12.770 -21.749  37.773  1.00  0.00     0.328 C 
HETATM   15  O1  UNL     1      14.029 -21.502  37.761  1.00  0.00    -0.247 OA
HETATM   16  N1  UNL     1      11.991 -21.207  38.827  1.00  0.00    -0.294 N 
ATOM     17  H1  UNL     1      11.482 -21.852  39.433  1.00  0.00     0.172 HD
ATOM     18  H3  UNL     1      12.539 -22.385  35.759  1.00  0.00     0.174 HD
BRANCH  16  19
HETATM   19  C2  UNL     1      11.890 -19.931  39.065  1.00  0.00     0.109 A 
HETATM   20  C3  UNL     1      11.684 -19.075  37.988  1.00  0.00     0.049 A 
HETATM   21  C4  UNL     1      11.567 -17.715  38.188  1.00  0.00     0.017 A 
HETATM   22  C5  UNL     1      11.653 -17.186  39.458  1.00  0.00    -0.009 A 
HETATM   23  C6  UNL     1      11.541 -15.823  39.719  1.00  0.00     0.013 A 
HETATM   24  C10 UNL     1      11.857 -18.047  40.511  1.00  0.00     0.043 A 
HETATM   25  C7  UNL     1      11.627 -15.308  40.999  1.00  0.00     0.001 A 
HETATM   26  C8  UNL     1      11.832 -16.180  42.054  1.00  0.00     0.002 A 
HETATM   27  C9  UNL     1      11.943 -17.533  41.789  1.00  0.00     0.030 A 
HETATM   28  N2  UNL     1      11.968 -19.386  40.287  1.00  0.00    -0.342 N 
ATOM     29  H2  UNL     1      12.119 -20.002  41.085  1.00  0.00     0.167 HD
ENDBRANCH  16  19
ENDBRANCH   1  13
BRANCH   6  30
HETATM   30  C15 UNL     1       7.057 -27.411  37.116  1.00  0.00    -0.008 A 
HETATM   31  C16 UNL     1       6.267 -27.984  38.081  1.00  0.00     0.014 A 
HETATM   32  C17 UNL     1       5.145 -28.763  37.772  1.00  0.00     0.001 A 
HETATM   33  C18 UNL     1       4.802 -28.976  36.456  1.00  0.00     0.000 A 
HETATM   34  C19 UNL     1       5.589 -28.406  35.484  1.00  0.00     0.001 A 
HETATM   35  C20 UNL     1       6.694 -27.639  35.784  1.00  0.00     0.014 A 
ENDBRANCH   6  30
TORSDOF 3
ENDMDL
MODEL 5
REMARK VINA RESULT: -10.068756120      4.381     10.658
REMARK  3 active torsions:
REMARK  status: ('A' for Active; 'I' for Inactive)
REMARK       I    between atoms: C1_2  and  N1_3 
REMARK       I    between atoms: C1_2  and  N3_16 
REMARK    1  A    between atoms: N1_3  and  C2_5 
REMARK    2  A    between atoms: N3_16  and  C11_18 
REMARK    3  A    between atoms: C14_23  and  C15_24 
ROOT
HETATM    1  C11 UNL     1       6.659 -24.116  37.376  1.00  0.00     0.234 A 
HETATM    2  N4  UNL     1       7.591 -23.420  38.035  1.00  0.00    -0.318 N 
ATOM      3  H4  UNL     1       7.452 -22.856  38.874  1.00  0.00     0.169 HD
HETATM    4  C12 UNL     1       8.745 -23.610  37.379  1.00  0.00     0.090 A 
HETATM    5  C13 UNL     1      10.056 -23.166  37.556  1.00  0.00     0.066 A 
HETATM    6  C14 UNL     1      11.040 -23.545  36.693  1.00  0.00     0.060 A 
HETATM    7  N5  UNL     1      10.695 -24.364  35.664  1.00  0.00    -0.298 N 
ATOM      8  H5  UNL     1      11.422 -24.655  35.010  1.00  0.00     0.187 HD
HETATM    9  N6  UNL     1       9.479 -24.795  35.471  1.00  0.00    -0.277 N 
ATOM     10  H6  UNL     1       9.275 -25.407  34.682  1.00  0.00     0.189 HD
HETATM   11  C21 UNL     1       8.501 -24.435  36.306  1.00  0.00     0.193 A 
HETATM   12  O2  UNL     1       7.210 -24.711  36.354  1.00  0.00    -0.258 OA
ENDROOT
BRANCH   1  13
HETATM   13  N3  UNL     1       5.419 -24.167  37.725  1.00  0.00    -0.274 N 
HETATM   14  C1  UNL     1       4.961 -25.259  38.505  1.00  0.00     0.328 C 
HETATM   15  O1  UNL     1       4.190 -24.995  39.496  1.00  0.00    -0.247 OA
HETATM   16  N1  UNL     1       5.297 -26.616  38.262  1.00  0.00    -0.294 N 
ATOM     17  H1  UNL     1       6.282 -26.880  38.284  1.00  0.00     0.172 HD
ATOM     18  H3  UNL     1       4.774 -23.428  37.443  1.00  0.00     0.174 HD
BRANCH  16  19
HETATM   19  C2  UNL     1       4.417 -27.542  38.011  1.00  0.00     0.109 A 
HETATM   20  C3  UNL     1       4.865 -28.846  37.836  1.00  0.00     0.049 A 
HETATM   21  C4  UNL     1       3.972 -29.864  37.573  1.00  0.00     0.017 A 
HETATM   22  C5  UNL     1       2.622 -29.601  37.480  1.00  0.00    -0.009 A 
HETATM   23  C6  UNL     1       1.676 -30.588  37.218  1.00  0.00     0.013 A 
HETATM   24  C10 UNL     1       2.196 -28.305  37.656  1.00  0.00     0.043 A 
HETATM   25  C7  UNL     1       0.325 -30.308  37.130  1.00  0.00     0.001 A 
HETATM   26  C8  UNL     1      -0.098 -29.003  37.309  1.00  0.00     0.002 A 
HETATM   27  C9  UNL     1       0.847 -28.026  37.569  1.00  0.00     0.030 A 
HETATM   28  N2  UNL     1       3.099 -27.319  37.916  1.00  0.00    -0.342 N 
ATOM     29  H2  UNL     1       2.756 -26.367  38.044  1.00  0.00     0.167 HD
ENDBRANCH  16  19
ENDBRANCH   1  13
BRANCH   6  30
HETATM   30  C15 UNL     1      12.409 -23.101  36.854  1.00  0.00    -0.008 A 
HETATM   31  C16 UNL     1      13.262 -23.563  37.825  1.00  0.00     0.014 A 
HETATM   32  C17 UNL     1      14.583 -23.113  37.945  1.00  0.00     0.001 A 
HETATM   33  C18 UNL     1      15.067 -22.171  37.065  1.00  0.00     0.000 A 
HETATM   34  C19 UNL     1      14.218 -21.703  36.091  1.00  0.00     0.001 A 
HETATM   35  C20 UNL     1      12.918 -22.143  35.970  1.00  0.00     0.014 A 
ENDBRANCH   6  30
TORSDOF 3
ENDMDL
