MODEL 1
REMARK VINA RESULT: -7.530141930      0.000      0.000
REMARK  4 active torsions:
REMARK  status: ('A' for Active; 'I' for Inactive)
REMARK       I    between atoms: N2_3  and  C2_4 
REMARK       I    between atoms: C2_4  and  N3_6 
REMARK    1  A    between atoms: N3_6  and  N4_8 
REMARK    2  A    between atoms: C3_10  and  C4_11 
REMARK    3  A    between atoms: C5_12  and  N5_13 
REMARK    4  A    between atoms: C8_24  and  S1_25 
ROOT
HETATM    1  N1  UNL     1      34.562  38.162  28.661  1.00  0.00    -0.156 NA
HETATM    2  C1  UNL     1      35.073  38.349  29.684  1.00  0.00     0.273 C 
HETATM    3  N2  UNL     1      35.674  38.511  30.871  1.00  0.00    -0.271 NA
HETATM    4  C2  UNL     1      36.269  38.673  32.048  1.00  0.00     0.422 C 
HETATM    5  O1  UNL     1      36.319  39.714  32.788  1.00  0.00    -0.228 OA
HETATM    6  N3  UNL     1      36.979  37.543  32.625  1.00  0.00    -0.239 N 
ATOM      7  H3  UNL     1      36.979  36.669  32.098  1.00  0.00     0.193 HD
ENDROOT
BRANCH   6   8
HETATM    8  N4  UNL     1      37.630  37.558  33.789  1.00  0.00    -0.306 N 
HETATM    9  C3  UNL     1      38.874  37.447  34.059  1.00  0.00     0.123 C 
ATOM     10  H4  UNL     1      37.032  37.681  34.606  1.00  0.00     0.186 HD
BRANCH   9  11
HETATM   11  C4  UNL     1      39.376  37.486  35.425  1.00  0.00     0.045 A 
HETATM   12  C5  UNL     1      39.491  38.711  36.097  1.00  0.00     0.157 A 
HETATM   13  C6  UNL     1      39.900  38.750  37.422  1.00  0.00     0.152 A 
HETATM   14  N6  UNL     1      40.014  39.996  38.079  1.00  0.00    -0.080 NA
HETATM   15  N7  UNL     1      40.190  37.625  38.077  1.00  0.00    -0.328 N 
HETATM   16  C7  UNL     1      40.088  36.445  37.449  1.00  0.00     0.125 A 
ATOM     17  H7  UNL     1      40.489  37.663  39.051  1.00  0.00     0.168 HD
HETATM   18  N8  UNL     1      40.361  35.338  38.085  1.00  0.00    -0.384 N 
HETATM   19  C8  UNL     1      39.681  36.333  36.115  1.00  0.00     0.138 A 
ATOM     20  H82 UNL     1      40.658  35.419  39.057  1.00  0.00     0.157 HD
ATOM     21  H81 UNL     1      40.284  34.440  37.607  1.00  0.00     0.157 HD
BRANCH  12  22
HETATM   22  N5  UNL     1      39.180  39.914  35.415  1.00  0.00    -0.111 N 
HETATM   23  O2  UNL     1      40.106  40.512  34.778  1.00  0.00    -0.532 OA
HETATM   24  O3  UNL     1      37.946  40.463  35.472  1.00  0.00    -0.532 OA
ENDBRANCH  12  22
BRANCH  19  25
HETATM   25  S1  UNL     1      39.542  34.760  35.395  1.00  0.00     0.142 S 
HETATM   26  O4  UNL     1      40.761  34.488  34.504  1.00  0.00    -0.591 OA
HETATM   27  O5  UNL     1      39.565  33.689  36.421  1.00  0.00    -0.591 OA
HETATM   28  O6  UNL     1      38.183  34.623  34.395  1.00  0.00    -0.591 OA
ENDBRANCH  19  25
ENDBRANCH   9  11
ENDBRANCH   6   8
TORSDOF 4
ENDMDL
MODEL 2
REMARK VINA RESULT: -7.503150877      2.771      7.407
REMARK  4 active torsions:
REMARK  status: ('A' for Active; 'I' for Inactive)
REMARK       I    between atoms: N2_3  and  C2_4 
REMARK       I    between atoms: C2_4  and  N3_6 
REMARK    1  A    between atoms: N3_6  and  N4_8 
REMARK    2  A    between atoms: C3_10  and  C4_11 
REMARK    3  A    between atoms: C5_12  and  N5_13 
REMARK    4  A    between atoms: C8_24  and  S1_25 
ROOT
HETATM    1  N1  UNL     1      42.662  43.036  41.823  1.00  0.00    -0.156 NA
HETATM    2  C1  UNL     1      42.490  42.395  40.872  1.00  0.00     0.273 C 
HETATM    3  N2  UNL     1      42.241  41.647  39.789  1.00  0.00    -0.271 NA
HETATM    4  C2  UNL     1      41.994  40.905  38.715  1.00  0.00     0.422 C 
HETATM    5  O1  UNL     1      42.813  40.451  37.845  1.00  0.00    -0.228 OA
HETATM    6  N3  UNL     1      40.618  40.526  38.438  1.00  0.00    -0.239 N 
ATOM      7  H3  UNL     1      39.902  40.844  39.092  1.00  0.00     0.193 HD
ENDROOT
BRANCH   6   8
HETATM    8  N4  UNL     1      40.217  39.796  37.396  1.00  0.00    -0.306 N 
HETATM    9  C3  UNL     1      39.523  38.726  37.336  1.00  0.00     0.123 C 
ATOM     10  H4  UNL     1      40.518  40.154  36.489  1.00  0.00     0.186 HD
BRANCH   9  11
HETATM   11  C4  UNL     1      39.203  38.080  36.070  1.00  0.00     0.045 A 
HETATM   12  C5  UNL     1      39.418  36.704  35.909  1.00  0.00     0.157 A 
HETATM   13  C6  UNL     1      39.049  36.068  34.732  1.00  0.00     0.152 A 
HETATM   14  N6  UNL     1      39.280  34.681  34.589  1.00  0.00    -0.080 NA
HETATM   15  N7  UNL     1      38.486  36.754  33.737  1.00  0.00    -0.328 N 
HETATM   16  C7  UNL     1      38.276  38.071  33.873  1.00  0.00     0.125 A 
ATOM     17  H7  UNL     1      38.217  36.279  32.876  1.00  0.00     0.168 HD
HETATM   18  N8  UNL     1      37.717  38.749  32.908  1.00  0.00    -0.384 N 
HETATM   19  C8  UNL     1      38.622  38.775  35.032  1.00  0.00     0.138 A 
ATOM     20  H82 UNL     1      37.465  38.237  32.063  1.00  0.00     0.157 HD
ATOM     21  H81 UNL     1      37.556  39.751  33.011  1.00  0.00     0.157 HD
BRANCH  12  22
HETATM   22  N5  UNL     1      40.011  35.961  36.961  1.00  0.00    -0.111 N 
HETATM   23  O2  UNL     1      41.280  35.886  37.016  1.00  0.00    -0.532 OA
HETATM   24  O3  UNL     1      39.261  35.292  37.866  1.00  0.00    -0.532 OA
ENDBRANCH  12  22
BRANCH  19  25
HETATM   25  S1  UNL     1      38.278  40.472  35.134  1.00  0.00     0.142 S 
HETATM   26  O4  UNL     1      39.556  41.278  34.868  1.00  0.00    -0.591 OA
HETATM   27  O5  UNL     1      37.325  40.898  34.079  1.00  0.00    -0.591 OA
HETATM   28  O6  UNL     1      37.737  40.933  36.670  1.00  0.00    -0.591 OA
ENDBRANCH  19  25
ENDBRANCH   9  11
ENDBRANCH   6   8
TORSDOF 4
ENDMDL
MODEL 3
REMARK VINA RESULT: -7.149065202      1.877      2.142
REMARK  4 active torsions:
REMARK  status: ('A' for Active; 'I' for Inactive)
REMARK       I    between atoms: N2_3  and  C2_4 
REMARK       I    between atoms: C2_4  and  N3_6 
REMARK    1  A    between atoms: N3_6  and  N4_8 
REMARK    2  A    between atoms: C3_10  and  C4_11 
REMARK    3  A    between atoms: C5_12  and  N5_13 
REMARK    4  A    between atoms: C8_24  and  S1_25 
ROOT
HETATM    1  N1  UNL     1      34.368  41.955  29.574  1.00  0.00    -0.156 NA
HETATM    2  C1  UNL     1      34.836  41.274  30.387  1.00  0.00     0.273 C 
HETATM    3  N2  UNL     1      35.409  40.529  31.343  1.00  0.00    -0.271 NA
HETATM    4  C2  UNL     1      35.976  39.790  32.290  1.00  0.00     0.422 C 
HETATM    5  O1  UNL     1      35.884  38.531  32.491  1.00  0.00    -0.228 OA
HETATM    6  N3  UNL     1      36.833  40.450  33.262  1.00  0.00    -0.239 N 
ATOM      7  H3  UNL     1      36.965  41.457  33.165  1.00  0.00     0.193 HD
ENDROOT
BRANCH   6   8
HETATM    8  N4  UNL     1      37.459  39.843  34.271  1.00  0.00    -0.306 N 
HETATM    9  C3  UNL     1      38.660  39.423  34.385  1.00  0.00     0.123 C 
ATOM     10  H4  UNL     1      36.878  39.687  35.095  1.00  0.00     0.186 HD
BRANCH   9  11
HETATM   11  C4  UNL     1      39.140  38.770  35.595  1.00  0.00     0.045 A 
HETATM   12  C5  UNL     1      39.558  39.540  36.690  1.00  0.00     0.157 A 
HETATM   13  C6  UNL     1      39.948  38.927  37.872  1.00  0.00     0.152 A 
HETATM   14  N6  UNL     1      40.371  39.722  38.962  1.00  0.00    -0.080 NA
HETATM   15  N7  UNL     1      39.933  37.598  37.985  1.00  0.00    -0.328 N 
HETATM   16  C7  UNL     1      39.539  36.847  36.948  1.00  0.00     0.125 A 
ATOM     17  H7  UNL     1      40.220  37.156  38.858  1.00  0.00     0.168 HD
HETATM   18  N8  UNL     1      39.511  35.546  37.053  1.00  0.00    -0.384 N 
HETATM   19  C8  UNL     1      39.131  37.399  35.728  1.00  0.00     0.138 A 
ATOM     20  H82 UNL     1      39.808  35.144  37.941  1.00  0.00     0.157 HD
ATOM     21  H81 UNL     1      39.211  34.974  36.263  1.00  0.00     0.157 HD
BRANCH  12  22
HETATM   22  N5  UNL     1      39.574  40.954  36.586  1.00  0.00    -0.111 N 
HETATM   23  O2  UNL     1      38.490  41.593  36.777  1.00  0.00    -0.532 OA
HETATM   24  O3  UNL     1      40.695  41.626  36.238  1.00  0.00    -0.532 OA
ENDBRANCH  12  22
BRANCH  19  25
HETATM   25  S1  UNL     1      38.601  36.350  34.452  1.00  0.00     0.142 S 
HETATM   26  O4  UNL     1      39.540  35.141  34.350  1.00  0.00    -0.591 OA
HETATM   27  O5  UNL     1      37.263  35.778  34.739  1.00  0.00    -0.591 OA
HETATM   28  O6  UNL     1      38.633  37.104  32.936  1.00  0.00    -0.591 OA
ENDBRANCH  19  25
ENDBRANCH   9  11
ENDBRANCH   6   8
TORSDOF 4
ENDMDL
MODEL 4
REMARK VINA RESULT: -7.039873023      1.636      3.891
REMARK  4 active torsions:
REMARK  status: ('A' for Active; 'I' for Inactive)
REMARK       I    between atoms: N2_3  and  C2_4 
REMARK       I    between atoms: C2_4  and  N3_6 
REMARK    1  A    between atoms: N3_6  and  N4_8 
REMARK    2  A    between atoms: C3_10  and  C4_11 
REMARK    3  A    between atoms: C5_12  and  N5_13 
REMARK    4  A    between atoms: C8_24  and  S1_25 
ROOT
HETATM    1  N1  UNL     1      34.576  39.735  28.761  1.00  0.00    -0.156 NA
HETATM    2  C1  UNL     1      35.065  39.682  29.811  1.00  0.00     0.273 C 
HETATM    3  N2  UNL     1      35.634  39.566  31.018  1.00  0.00    -0.271 NA
HETATM    4  C2  UNL     1      36.199  39.453  32.215  1.00  0.00     0.422 C 
HETATM    5  O1  UNL     1      36.302  40.326  33.143  1.00  0.00    -0.228 OA
HETATM    6  N3  UNL     1      36.801  38.179  32.578  1.00  0.00    -0.239 N 
ATOM      7  H3  UNL     1      36.754  37.425  31.892  1.00  0.00     0.193 HD
ENDROOT
BRANCH   6   8
HETATM    8  N4  UNL     1      37.411  37.921  33.736  1.00  0.00    -0.306 N 
HETATM    9  C3  UNL     1      38.649  37.915  34.051  1.00  0.00     0.123 C 
ATOM     10  H4  UNL     1      36.780  37.687  34.502  1.00  0.00     0.186 HD
BRANCH   9  11
HETATM   11  C4  UNL     1      39.103  37.591  35.396  1.00  0.00     0.045 A 
HETATM   12  C5  UNL     1      39.299  36.254  35.769  1.00  0.00     0.157 A 
HETATM   13  C6  UNL     1      39.800  35.940  37.024  1.00  0.00     0.152 A 
HETATM   14  N6  UNL     1      39.986  34.585  37.381  1.00  0.00    -0.080 NA
HETATM   15  N7  UNL     1      40.102  36.904  37.895  1.00  0.00    -0.328 N 
HETATM   16  C7  UNL     1      39.917  38.187  37.557  1.00  0.00     0.125 A 
ATOM     17  H7  UNL     1      40.471  36.665  38.816  1.00  0.00     0.168 HD
HETATM   18  N8  UNL     1      40.218  39.138  38.400  1.00  0.00    -0.384 N 
HETATM   19  C8  UNL     1      39.417  38.574  36.308  1.00  0.00     0.138 A 
ATOM     20  H82 UNL     1      40.582  38.856  39.310  1.00  0.00     0.157 HD
ATOM     21  H81 UNL     1      40.078  40.115  38.142  1.00  0.00     0.157 HD
BRANCH  12  22
HETATM   22  N5  UNL     1      38.989  35.219  34.851  1.00  0.00    -0.111 N 
HETATM   23  O2  UNL     1      37.766  34.969  34.603  1.00  0.00    -0.532 OA
HETATM   24  O3  UNL     1      39.955  34.464  34.281  1.00  0.00    -0.532 OA
ENDBRANCH  12  22
BRANCH  19  25
HETATM   25  S1  UNL     1      39.247  40.262  35.944  1.00  0.00     0.142 S 
HETATM   26  O4  UNL     1      40.529  41.009  36.332  1.00  0.00    -0.591 OA
HETATM   27  O5  UNL     1      39.092  40.491  34.486  1.00  0.00    -0.591 OA
HETATM   28  O6  UNL     1      37.991  40.990  36.815  1.00  0.00    -0.591 OA
ENDBRANCH  19  25
ENDBRANCH   9  11
ENDBRANCH   6   8
TORSDOF 4
ENDMDL
MODEL 5
REMARK VINA RESULT: -6.997365174      3.026      7.323
REMARK  4 active torsions:
REMARK  status: ('A' for Active; 'I' for Inactive)
REMARK       I    between atoms: N2_3  and  C2_4 
REMARK       I    between atoms: C2_4  and  N3_6 
REMARK    1  A    between atoms: N3_6  and  N4_8 
REMARK    2  A    between atoms: C3_10  and  C4_11 
REMARK    3  A    between atoms: C5_12  and  N5_13 
REMARK    4  A    between atoms: C8_24  and  S1_25 
ROOT
HETATM    1  N1  UNL     1      45.699  41.343  39.144  1.00  0.00    -0.156 NA
HETATM    2  C1  UNL     1      45.015  40.898  38.321  1.00  0.00     0.273 C 
HETATM    3  N2  UNL     1      44.184  40.377  37.407  1.00  0.00    -0.271 NA
HETATM    4  C2  UNL     1      43.361  39.861  36.501  1.00  0.00     0.422 C 
HETATM    5  O1  UNL     1      43.611  39.498  35.301  1.00  0.00    -0.228 OA
HETATM    6  N3  UNL     1      41.969  39.657  36.868  1.00  0.00    -0.239 N 
ATOM      7  H3  UNL     1      41.690  39.915  37.814  1.00  0.00     0.193 HD
ENDROOT
BRANCH   6   8
HETATM    8  N4  UNL     1      41.028  39.160  36.063  1.00  0.00    -0.306 N 
HETATM    9  C3  UNL     1      39.763  39.057  36.211  1.00  0.00     0.123 C 
ATOM     10  H4  UNL     1      41.379  38.799  35.176  1.00  0.00     0.186 HD
BRANCH   9  11
HETATM   11  C4  UNL     1      38.911  38.464  35.190  1.00  0.00     0.045 A 
HETATM   12  C5  UNL     1      38.704  37.078  35.166  1.00  0.00     0.157 A 
HETATM   13  C6  UNL     1      37.836  36.513  34.243  1.00  0.00     0.152 A 
HETATM   14  N6  UNL     1      37.645  35.112  34.232  1.00  0.00    -0.080 NA
HETATM   15  N7  UNL     1      37.187  37.277  33.364  1.00  0.00    -0.328 N 
HETATM   16  C7  UNL     1      37.375  38.604  33.371  1.00  0.00     0.125 A 
ATOM     17  H7  UNL     1      36.550  36.854  32.689  1.00  0.00     0.168 HD
HETATM   18  N8  UNL     1      36.737  39.362  32.521  1.00  0.00    -0.384 N 
HETATM   19  C8  UNL     1      38.234  39.240  34.275  1.00  0.00     0.138 A 
ATOM     20  H82 UNL     1      36.111  38.899  31.862  1.00  0.00     0.157 HD
ATOM     21  H81 UNL     1      36.880  40.372  32.526  1.00  0.00     0.157 HD
BRANCH  12  22
HETATM   22  N5  UNL     1      39.383  36.252  36.098  1.00  0.00    -0.111 N 
HETATM   23  O2  UNL     1      40.568  35.874  35.829  1.00  0.00    -0.532 OA
HETATM   24  O3  UNL     1      38.783  35.819  37.230  1.00  0.00    -0.532 OA
ENDBRANCH  12  22
BRANCH  19  25
HETATM   25  S1  UNL     1      38.387  40.968  34.235  1.00  0.00     0.142 S 
HETATM   26  O4  UNL     1      38.691  41.429  32.804  1.00  0.00    -0.591 OA
HETATM   27  O5  UNL     1      37.111  41.635  34.593  1.00  0.00    -0.591 OA
HETATM   28  O6  UNL     1      39.663  41.528  35.196  1.00  0.00    -0.591 OA
ENDBRANCH  19  25
ENDBRANCH   9  11
ENDBRANCH   6   8
TORSDOF 4
ENDMDL
