MODEL 1
REMARK VINA RESULT: -6.403064330      0.000      0.000
REMARK  7 active torsions:
REMARK  status: ('A' for Active; 'I' for Inactive)
REMARK    1  A    between atoms: C2_2  and  C3_3 
REMARK    2  A    between atoms: C3_3  and  N1_4 
REMARK    3  A    between atoms: C3_3  and  C4_8 
REMARK    4  A    between atoms: C3_3  and  C6_12 
REMARK    5  A    between atoms: C4_8  and  O2_10 
REMARK    6  A    between atoms: C6_12  and  O3_13 
REMARK    7  A    between atoms: C6_12  and  N2_15 
ROOT
HETATM    1  N2  UNL     1      39.476  39.588  36.898  1.00  0.00    -0.278 N 
HETATM    2  C7  UNL     1      38.216  40.160  36.358  1.00  0.00     0.163 C 
HETATM    3  C8  UNL     1      38.454  40.815  35.014  1.00  0.00     0.252 C 
HETATM    4  N3  UNL     1      37.481  40.343  34.037  1.00  0.00    -0.074 N 
ATOM      5  H31 UNL     1      36.846  41.087  33.747  1.00  0.00     0.277 HD
ATOM      6  H32 UNL     1      36.799  39.714  34.459  1.00  0.00     0.277 HD
HETATM    7  C9  UNL     1      38.134  39.741  32.916  1.00  0.00     0.234 C 
HETATM    8  C10 UNL     1      37.230  38.927  32.047  1.00  0.00     0.055 C 
HETATM    9  C11 UNL     1      37.214  37.484  32.507  1.00  0.00     0.234 C 
HETATM   10  N4  UNL     1      37.239  37.387  33.951  1.00  0.00    -0.074 N 
ATOM     11  H41 UNL     1      36.367  37.733  34.353  1.00  0.00     0.277 HD
ATOM     12  H42 UNL     1      37.888  38.067  34.349  1.00  0.00     0.277 HD
HETATM   13  C12 UNL     1      37.530  36.073  34.425  1.00  0.00     0.250 C 
HETATM   14  C13 UNL     1      38.979  35.792  34.642  1.00  0.00     0.162 C 
HETATM   15  N5  UNL     1      39.720  36.852  35.242  1.00  0.00    -0.136 NA
HETATM   16  N6  UNL     1      39.321  37.086  36.539  1.00  0.00    -0.255 N 
ATOM     17  H6  UNL     1      38.803  36.333  36.992  1.00  0.00     0.187 HD
HETATM   18  C14 UNL     1      39.544  38.246  37.322  1.00  0.00     0.340 C 
HETATM   19  O4  UNL     1      39.838  38.002  38.560  1.00  0.00    -0.245 OA
ENDROOT
BRANCH   1  20
HETATM   20  C6  UNL     1      40.565  40.458  36.991  1.00  0.00     0.169 C 
BRANCH  20  21
HETATM   21  C3  UNL     1      41.782  40.583  36.189  1.00  0.00     0.273 C 
BRANCH  21  22
HETATM   22  C2  UNL     1      41.690  39.661  34.956  1.00  0.00     0.054 C 
HETATM   23  C1  UNL     1      41.968  40.362  33.676  1.00  0.00     0.009 C 
ENDBRANCH  21  22
BRANCH  21  24
HETATM   24  N1  UNL     1      42.172  41.860  35.740  1.00  0.00    -0.053 N 
ATOM     25  H13 UNL     1      42.570  41.846  34.801  1.00  0.00     0.276 HD
ATOM     26  H12 UNL     1      41.379  42.470  35.541  1.00  0.00     0.276 HD
ATOM     27  H11 UNL     1      42.809  42.251  36.435  1.00  0.00     0.276 HD
ENDBRANCH  21  24
BRANCH  21  28
HETATM   28  C4  UNL     1      42.963  40.012  36.941  1.00  0.00     0.303 C 
HETATM   29  O1  UNL     1      43.359  38.882  36.668  1.00  0.00    -0.262 OA
BRANCH  28  30
HETATM   30  O2  UNL     1      43.554  40.780  37.906  1.00  0.00    -0.324 OA
HETATM   31  C5  UNL     1      44.955  41.007  37.941  1.00  0.00     0.213 C 
ENDBRANCH  28  30
ENDBRANCH  21  28
ENDBRANCH  20  21
BRANCH  20  32
HETATM   32  O3  UNL     1      40.480  41.320  37.969  1.00  0.00    -0.347 OA
ATOM     33  H3  UNL     1      39.593  41.477  38.272  1.00  0.00     0.219 HD
ENDBRANCH  20  32
ENDBRANCH   1  20
TORSDOF 7
ENDMDL
MODEL 2
REMARK VINA RESULT: -6.351239086      2.537      6.426
REMARK  7 active torsions:
REMARK  status: ('A' for Active; 'I' for Inactive)
REMARK    1  A    between atoms: C2_2  and  C3_3 
REMARK    2  A    between atoms: C3_3  and  N1_4 
REMARK    3  A    between atoms: C3_3  and  C4_8 
REMARK    4  A    between atoms: C3_3  and  C6_12 
REMARK    5  A    between atoms: C4_8  and  O2_10 
REMARK    6  A    between atoms: C6_12  and  O3_13 
REMARK    7  A    between atoms: C6_12  and  N2_15 
ROOT
HETATM    1  N2  UNL     1      41.392  39.522  35.918  1.00  0.00    -0.278 N 
HETATM    2  C7  UNL     1      40.597  40.573  36.602  1.00  0.00     0.163 C 
HETATM    3  C8  UNL     1      40.109  40.089  37.951  1.00  0.00     0.252 C 
HETATM    4  N3  UNL     1      40.424  41.063  38.988  1.00  0.00    -0.074 N 
ATOM      5  H31 UNL     1      39.582  41.489  39.374  1.00  0.00     0.277 HD
ATOM      6  H32 UNL     1      40.856  41.901  38.599  1.00  0.00     0.277 HD
HETATM    7  C9  UNL     1      41.235  40.476  40.010  1.00  0.00     0.234 C 
HETATM    8  C10 UNL     1      41.890  41.468  40.915  1.00  0.00     0.055 C 
HETATM    9  C11 UNL     1      43.257  41.846  40.383  1.00  0.00     0.234 C 
HETATM   10  N4  UNL     1      43.253  41.957  38.939  1.00  0.00    -0.074 N 
ATOM     11  H41 UNL     1      42.696  42.758  38.640  1.00  0.00     0.277 HD
ATOM     12  H42 UNL     1      42.705  41.206  38.520  1.00  0.00     0.277 HD
HETATM   13  C12 UNL     1      44.561  42.009  38.373  1.00  0.00     0.250 C 
HETATM   14  C13 UNL     1      45.138  40.683  38.007  1.00  0.00     0.162 C 
HETATM   15  N5  UNL     1      44.227  39.771  37.397  1.00  0.00    -0.136 NA
HETATM   16  N6  UNL     1      43.818  40.209  36.157  1.00  0.00    -0.255 N 
ATOM     17  H6  UNL     1      44.403  40.917  35.716  1.00  0.00     0.187 HD
HETATM   18  C14 UNL     1      42.681  39.792  35.418  1.00  0.00     0.340 C 
HETATM   19  O4  UNL     1      42.894  39.660  34.148  1.00  0.00    -0.245 OA
ENDROOT
BRANCH   1  20
HETATM   20  C6  UNL     1      40.779  38.276  35.769  1.00  0.00     0.169 C 
BRANCH  20  21
HETATM   21  C3  UNL     1      39.840  37.764  34.771  1.00  0.00     0.273 C 
BRANCH  21  22
HETATM   22  C2  UNL     1      38.490  38.498  34.903  1.00  0.00     0.054 C 
HETATM   23  C1  UNL     1      38.237  39.466  33.804  1.00  0.00     0.009 C 
ENDBRANCH  21  22
BRANCH  21  24
HETATM   24  N1  UNL     1      40.211  37.791  33.412  1.00  0.00    -0.053 N 
ATOM     25  H13 UNL     1      41.169  37.479  33.256  1.00  0.00     0.276 HD
ATOM     26  H12 UNL     1      39.743  37.072  32.859  1.00  0.00     0.276 HD
ATOM     27  H11 UNL     1      40.039  38.735  33.063  1.00  0.00     0.276 HD
ENDBRANCH  21  24
BRANCH  21  28
HETATM   28  C4  UNL     1      39.470  36.333  35.087  1.00  0.00     0.303 C 
HETATM   29  O1  UNL     1      38.448  36.104  35.730  1.00  0.00    -0.262 OA
BRANCH  28  30
HETATM   30  O2  UNL     1      40.293  35.334  34.646  1.00  0.00    -0.324 OA
HETATM   31  C5  UNL     1      40.112  33.979  35.028  1.00  0.00     0.213 C 
ENDBRANCH  28  30
ENDBRANCH  21  28
ENDBRANCH  20  21
BRANCH  20  32
HETATM   32  O3  UNL     1      41.108  37.405  36.687  1.00  0.00    -0.347 OA
ATOM     33  H3  UNL     1      40.597  37.472  37.486  1.00  0.00     0.219 HD
ENDBRANCH  20  32
ENDBRANCH   1  20
TORSDOF 7
ENDMDL
MODEL 3
REMARK VINA RESULT: -6.321073526      2.636      6.417
REMARK  7 active torsions:
REMARK  status: ('A' for Active; 'I' for Inactive)
REMARK    1  A    between atoms: C2_2  and  C3_3 
REMARK    2  A    between atoms: C3_3  and  N1_4 
REMARK    3  A    between atoms: C3_3  and  C4_8 
REMARK    4  A    between atoms: C3_3  and  C6_12 
REMARK    5  A    between atoms: C4_8  and  O2_10 
REMARK    6  A    between atoms: C6_12  and  O3_13 
REMARK    7  A    between atoms: C6_12  and  N2_15 
ROOT
HETATM    1  N2  UNL     1      41.406  39.335  36.121  1.00  0.00    -0.278 N 
HETATM    2  C7  UNL     1      40.603  40.410  36.757  1.00  0.00     0.163 C 
HETATM    3  C8  UNL     1      40.155  40.001  38.144  1.00  0.00     0.252 C 
HETATM    4  N3  UNL     1      40.471  41.044  39.111  1.00  0.00    -0.074 N 
ATOM      5  H31 UNL     1      39.628  41.475  39.489  1.00  0.00     0.277 HD
ATOM      6  H32 UNL     1      40.875  41.864  38.661  1.00  0.00     0.277 HD
HETATM    7  C9  UNL     1      41.316  40.539  40.149  1.00  0.00     0.234 C 
HETATM    8  C10 UNL     1      41.969  41.599  40.976  1.00  0.00     0.055 C 
HETATM    9  C11 UNL     1      43.316  41.972  40.390  1.00  0.00     0.234 C 
HETATM   10  N4  UNL     1      43.277  41.992  38.943  1.00  0.00    -0.074 N 
ATOM     11  H41 UNL     1      42.696  42.761  38.607  1.00  0.00     0.277 HD
ATOM     12  H42 UNL     1      42.738  41.205  38.583  1.00  0.00     0.277 HD
HETATM   13  C12 UNL     1      44.572  42.035  38.344  1.00  0.00     0.250 C 
HETATM   14  C13 UNL     1      45.169  40.701  38.048  1.00  0.00     0.162 C 
HETATM   15  N5  UNL     1      44.266  39.735  37.517  1.00  0.00    -0.136 NA
HETATM   16  N6  UNL     1      43.821  40.085  36.261  1.00  0.00    -0.255 N 
ATOM     17  H6  UNL     1      44.381  40.777  35.764  1.00  0.00     0.187 HD
HETATM   18  C14 UNL     1      42.678  39.600  35.577  1.00  0.00     0.340 C 
HETATM   19  O4  UNL     1      42.867  39.392  34.312  1.00  0.00    -0.245 OA
ENDROOT
BRANCH   1  20
HETATM   20  C6  UNL     1      40.818  38.069  36.065  1.00  0.00     0.169 C 
BRANCH  20  21
HETATM   21  C3  UNL     1      39.659  37.565  35.327  1.00  0.00     0.273 C 
BRANCH  21  22
HETATM   22  C2  UNL     1      39.737  36.028  35.224  1.00  0.00     0.054 C 
HETATM   23  C1  UNL     1      38.433  35.394  34.900  1.00  0.00     0.009 C 
ENDBRANCH  21  22
BRANCH  21  24
HETATM   24  N1  UNL     1      38.368  37.898  35.779  1.00  0.00    -0.053 N 
ATOM     25  H13 UNL     1      37.639  37.663  35.106  1.00  0.00     0.276 HD
ATOM     26  H12 UNL     1      38.047  37.299  36.540  1.00  0.00     0.276 HD
ATOM     27  H11 UNL     1      38.373  38.888  36.029  1.00  0.00     0.276 HD
ENDBRANCH  21  24
BRANCH  21  28
HETATM   28  C4  UNL     1      39.733  37.997  33.880  1.00  0.00     0.303 C 
HETATM   29  O1  UNL     1      40.552  37.465  33.135  1.00  0.00    -0.262 OA
BRANCH  28  30
HETATM   30  O2  UNL     1      38.880  38.974  33.448  1.00  0.00    -0.324 OA
HETATM   31  C5  UNL     1      39.329  40.280  33.116  1.00  0.00     0.213 C 
ENDBRANCH  28  30
ENDBRANCH  21  28
ENDBRANCH  20  21
BRANCH  20  32
HETATM   32  O3  UNL     1      41.414  37.168  36.801  1.00  0.00    -0.347 OA
ATOM     33  H3  UNL     1      42.074  37.520  37.386  1.00  0.00     0.219 HD
ENDBRANCH  20  32
ENDBRANCH   1  20
TORSDOF 7
ENDMDL
MODEL 4
REMARK VINA RESULT: -6.320322972      1.962      2.794
REMARK  7 active torsions:
REMARK  status: ('A' for Active; 'I' for Inactive)
REMARK    1  A    between atoms: C2_2  and  C3_3 
REMARK    2  A    between atoms: C3_3  and  N1_4 
REMARK    3  A    between atoms: C3_3  and  C4_8 
REMARK    4  A    between atoms: C3_3  and  C6_12 
REMARK    5  A    between atoms: C4_8  and  O2_10 
REMARK    6  A    between atoms: C6_12  and  O3_13 
REMARK    7  A    between atoms: C6_12  and  N2_15 
ROOT
HETATM    1  N2  UNL     1      41.015  40.676  36.712  1.00  0.00    -0.278 N 
HETATM    2  C7  UNL     1      39.924  41.101  35.800  1.00  0.00     0.163 C 
HETATM    3  C8  UNL     1      40.318  40.897  34.353  1.00  0.00     0.252 C 
HETATM    4  N3  UNL     1      39.275  40.172  33.637  1.00  0.00    -0.074 N 
ATOM      5  H31 UNL     1      38.827  40.756  32.931  1.00  0.00     0.277 HD
ATOM      6  H32 UNL     1      38.464  39.997  34.229  1.00  0.00     0.277 HD
HETATM    7  C9  UNL     1      39.789  38.963  33.073  1.00  0.00     0.234 C 
HETATM    8  C10 UNL     1      38.736  37.998  32.632  1.00  0.00     0.055 C 
HETATM    9  C11 UNL     1      38.390  37.043  33.756  1.00  0.00     0.234 C 
HETATM   10  N4  UNL     1      38.376  37.716  35.038  1.00  0.00    -0.074 N 
ATOM     11  H41 UNL     1      37.600  38.376  35.092  1.00  0.00     0.277 HD
ATOM     12  H42 UNL     1      39.156  38.369  35.113  1.00  0.00     0.277 HD
HETATM   13  C12 UNL     1      38.358  36.818  36.147  1.00  0.00     0.250 C 
HETATM   14  C13 UNL     1      39.704  36.430  36.660  1.00  0.00     0.162 C 
HETATM   15  N5  UNL     1      40.658  37.488  36.726  1.00  0.00    -0.136 NA
HETATM   16  N6  UNL     1      40.306  38.437  37.660  1.00  0.00    -0.255 N 
ATOM     17  H6  UNL     1      39.627  38.145  38.362  1.00  0.00     0.187 HD
HETATM   18  C14 UNL     1      40.775  39.771  37.765  1.00  0.00     0.340 C 
HETATM   19  O4  UNL     1      40.992  40.163  38.980  1.00  0.00    -0.245 OA
ENDROOT
BRANCH   1  20
HETATM   20  C6  UNL     1      42.271  41.245  36.487  1.00  0.00     0.169 C 
BRANCH  20  21
HETATM   21  C3  UNL     1      43.624  40.721  36.669  1.00  0.00     0.273 C 
BRANCH  21  22
HETATM   22  C2  UNL     1      44.426  41.661  37.593  1.00  0.00     0.054 C 
HETATM   23  C1  UNL     1      43.925  41.679  38.991  1.00  0.00     0.009 C 
ENDBRANCH  21  22
BRANCH  21  24
HETATM   24  N1  UNL     1      43.786  39.407  37.151  1.00  0.00    -0.053 N 
ATOM     25  H13 UNL     1      43.958  38.730  36.408  1.00  0.00     0.276 HD
ATOM     26  H12 UNL     1      44.662  39.276  37.658  1.00  0.00     0.276 HD
ATOM     27  H11 UNL     1      42.965  39.180  37.712  1.00  0.00     0.276 HD
ENDBRANCH  21  24
BRANCH  21  28
HETATM   28  C4  UNL     1      44.394  40.800  35.370  1.00  0.00     0.303 C 
HETATM   29  O1  UNL     1      45.622  40.830  35.399  1.00  0.00    -0.262 OA
BRANCH  28  30
HETATM   30  O2  UNL     1      43.691  40.837  34.198  1.00  0.00    -0.324 OA
HETATM   31  C5  UNL     1      43.720  39.768  33.263  1.00  0.00     0.213 C 
ENDBRANCH  28  30
ENDBRANCH  21  28
ENDBRANCH  20  21
BRANCH  20  32
HETATM   32  O3  UNL     1      42.231  42.468  36.026  1.00  0.00    -0.347 OA
ATOM     33  H3  UNL     1      41.757  42.558  35.208  1.00  0.00     0.219 HD
ENDBRANCH  20  32
ENDBRANCH   1  20
TORSDOF 7
ENDMDL
MODEL 5
REMARK VINA RESULT: -6.208754453      2.960      5.952
REMARK  7 active torsions:
REMARK  status: ('A' for Active; 'I' for Inactive)
REMARK    1  A    between atoms: C2_2  and  C3_3 
REMARK    2  A    between atoms: C3_3  and  N1_4 
REMARK    3  A    between atoms: C3_3  and  C4_8 
REMARK    4  A    between atoms: C3_3  and  C6_12 
REMARK    5  A    between atoms: C4_8  and  O2_10 
REMARK    6  A    between atoms: C6_12  and  O3_13 
REMARK    7  A    between atoms: C6_12  and  N2_15 
ROOT
HETATM    1  N2  UNL     1      39.269  39.116  34.480  1.00  0.00    -0.278 N 
HETATM    2  C7  UNL     1      38.942  40.234  35.401  1.00  0.00     0.163 C 
HETATM    3  C8  UNL     1      39.090  39.805  36.845  1.00  0.00     0.252 C 
HETATM    4  N3  UNL     1      39.904  40.763  37.582  1.00  0.00    -0.074 N 
ATOM      5  H31 UNL     1      39.358  41.258  38.287  1.00  0.00     0.277 HD
ATOM      6  H32 UNL     1      40.165  41.560  37.001  1.00  0.00     0.277 HD
HETATM    7  C9  UNL     1      41.051  40.127  38.152  1.00  0.00     0.234 C 
HETATM    8  C10 UNL     1      42.108  41.075  38.617  1.00  0.00     0.055 C 
HETATM    9  C11 UNL     1      43.106  41.339  37.507  1.00  0.00     0.234 C 
HETATM   10  N4  UNL     1      42.452  41.433  36.218  1.00  0.00    -0.074 N 
ATOM     11  H41 UNL     1      41.873  42.271  36.166  1.00  0.00     0.277 HD
ATOM     12  H42 UNL     1      41.727  40.722  36.127  1.00  0.00     0.277 HD
HETATM   13  C12 UNL     1      43.361  41.375  35.119  1.00  0.00     0.250 C 
HETATM   14  C13 UNL     1      43.622  40.004  34.594  1.00  0.00     0.162 C 
HETATM   15  N5  UNL     1      42.477  39.159  34.505  1.00  0.00    -0.136 NA
HETATM   16  N6  UNL     1      41.578  39.613  33.565  1.00  0.00    -0.255 N 
ATOM     17  H6  UNL     1      41.943  40.268  32.874  1.00  0.00     0.187 HD
HETATM   18  C14 UNL     1      40.206  39.278  33.440  1.00  0.00     0.340 C 
HETATM   19  O4  UNL     1      39.809  39.114  32.218  1.00  0.00    -0.245 OA
ENDROOT
BRANCH   1  20
HETATM   20  C6  UNL     1      38.577  37.919  34.683  1.00  0.00     0.169 C 
BRANCH  20  21
HETATM   21  C3  UNL     1      38.825  36.791  35.580  1.00  0.00     0.273 C 
BRANCH  21  22
HETATM   22  C2  UNL     1      40.194  36.965  36.269  1.00  0.00     0.054 C 
HETATM   23  C1  UNL     1      40.238  36.394  37.640  1.00  0.00     0.009 C 
ENDBRANCH  21  22
BRANCH  21  24
HETATM   24  N1  UNL     1      37.877  36.496  36.579  1.00  0.00    -0.053 N 
ATOM     25  H13 UNL     1      38.305  36.195  37.455  1.00  0.00     0.276 HD
ATOM     26  H12 UNL     1      37.407  37.327  36.937  1.00  0.00     0.276 HD
ATOM     27  H11 UNL     1      37.229  35.806  36.197  1.00  0.00     0.276 HD
ENDBRANCH  21  24
BRANCH  21  28
HETATM   28  C4  UNL     1      39.016  35.521  34.781  1.00  0.00     0.303 C 
HETATM   29  O1  UNL     1      38.033  34.945  34.322  1.00  0.00    -0.262 OA
BRANCH  28  30
HETATM   30  O2  UNL     1      40.288  35.054  34.595  1.00  0.00    -0.324 OA
HETATM   31  C5  UNL     1      40.669  33.733  34.953  1.00  0.00     0.213 C 
ENDBRANCH  28  30
ENDBRANCH  21  28
ENDBRANCH  20  21
BRANCH  20  32
HETATM   32  O3  UNL     1      37.511  37.785  33.938  1.00  0.00    -0.347 OA
ATOM     33  H3  UNL     1      37.028  36.982  34.094  1.00  0.00     0.219 HD
ENDBRANCH  20  32
ENDBRANCH   1  20
TORSDOF 7
ENDMDL
