MODEL 1
REMARK VINA RESULT: -7.906840095      0.000      0.000
REMARK  8 active torsions:
REMARK  status: ('A' for Active; 'I' for Inactive)
REMARK    1  A    between atoms: C2_2  and  C3_3 
REMARK    2  A    between atoms: C3_3  and  C4_4 
REMARK       I    between atoms: C4_4  and  N1_6 
REMARK    3  A    between atoms: N1_6  and  C5_8 
REMARK    4  A    between atoms: C6_11  and  C7_12 
REMARK    5  A    between atoms: C7_12  and  O2_15 
REMARK       I    between atoms: N5_22  and  C12_23 
REMARK       I    between atoms: C12_23  and  N6_25 
REMARK    6  A    between atoms: N6_25  and  N7_27 
REMARK    7  A    between atoms: N7_27  and  N8_28 
REMARK    8  A    between atoms: N8_28  and  N9_29 
ROOT
HETATM    1  C5  UNL     1      39.436  40.496  36.930  1.00  0.00     0.724 A 
HETATM    2  N2  UNL     1      38.962  41.747  36.871  1.00  0.00    -0.174 N 
ATOM      3  H2  UNL     1      39.129  42.392  37.643  1.00  0.00     0.185 HD
HETATM    4  C6  UNL     1      38.260  42.155  35.790  1.00  0.00     0.147 A 
HETATM    5  N3  UNL     1      38.033  41.319  34.768  1.00  0.00    -0.173 N 
ATOM      6  H3  UNL     1      37.505  41.628  33.952  1.00  0.00     0.185 HD
HETATM    7  C10 UNL     1      38.525  40.038  34.841  1.00  0.00     0.740 A 
HETATM    8  N4  UNL     1      38.663  38.847  34.280  1.00  0.00    -0.099 N 
HETATM    9  C11 UNL     1      38.248  38.258  33.040  1.00  0.00     0.200 C 
HETATM   10  N5  UNL     1      39.357  38.420  35.344  1.00  0.00    -0.088 N 
HETATM   11  C12 UNL     1      39.959  37.166  35.628  1.00  0.00     0.375 C 
HETATM   12  O3  UNL     1      39.925  36.247  34.725  1.00  0.00    -0.242 OA
HETATM   13  N6  UNL     1      40.607  36.787  36.814  1.00  0.00    -0.234 N 
ATOM     14  H6  UNL     1      40.694  37.439  37.593  1.00  0.00     0.189 HD
HETATM   15  N10 UNL     1      39.220  39.600  35.893  1.00  0.00     0.118 N 
ENDROOT
BRANCH  13  16
HETATM   16  N7  UNL     1      41.143  35.465  36.903  1.00  0.00    -0.005 NA
BRANCH  16  17
HETATM   17  N8  UNL     1      40.190  34.666  37.566  1.00  0.00    -0.016 NA
BRANCH  17  18
HETATM   18  N9  UNL     1      40.551  33.319  37.588  1.00  0.00    -0.330 N 
ATOM     19  H92 UNL     1      40.864  32.815  36.758  1.00  0.00     0.173 HD
ATOM     20  H91 UNL     1      40.465  32.909  38.518  1.00  0.00     0.173 HD
ENDBRANCH  17  18
ENDBRANCH  16  17
ENDBRANCH  13  16
BRANCH   1  21
HETATM   21  N1  UNL     1      40.154  40.120  37.894  1.00  0.00    -0.157 N 
HETATM   22  C4  UNL     1      41.259  40.694  38.513  1.00  0.00     0.235 C 
HETATM   23  O1  UNL     1      42.138  41.265  37.815  1.00  0.00    -0.273 OA
ATOM     24  H1  UNL     1      39.872  39.226  38.297  1.00  0.00     0.187 HD
BRANCH  22  25
HETATM   25  C3  UNL     1      41.396  40.629  40.016  1.00  0.00     0.103 C 
BRANCH  25  26
HETATM   26  C2  UNL     1      42.571  41.553  40.343  1.00  0.00     0.005 C 
HETATM   27  C1  UNL     1      42.206  42.675  41.259  1.00  0.00     0.005 C 
ENDBRANCH  25  26
ENDBRANCH  22  25
ENDBRANCH   1  21
BRANCH   4  28
HETATM   28  C7  UNL     1      37.747  43.547  35.758  1.00  0.00     0.110 C 
HETATM   29  C8  UNL     1      37.224  43.901  34.375  1.00  0.00     0.054 C 
HETATM   30  C9  UNL     1      36.613  43.696  36.732  1.00  0.00     0.054 C 
BRANCH  28  31
HETATM   31  O2  UNL     1      38.772  44.483  36.010  1.00  0.00    -0.383 OA
ATOM     32  H2  UNL     1      38.621  44.957  36.819  1.00  0.00     0.211 HD
ENDBRANCH  28  31
ENDBRANCH   4  28
TORSDOF 8
ENDMDL
MODEL 2
REMARK VINA RESULT: -7.278986518      2.453      3.516
REMARK  8 active torsions:
REMARK  status: ('A' for Active; 'I' for Inactive)
REMARK    1  A    between atoms: C2_2  and  C3_3 
REMARK    2  A    between atoms: C3_3  and  C4_4 
REMARK       I    between atoms: C4_4  and  N1_6 
REMARK    3  A    between atoms: N1_6  and  C5_8 
REMARK    4  A    between atoms: C6_11  and  C7_12 
REMARK    5  A    between atoms: C7_12  and  O2_15 
REMARK       I    between atoms: N5_22  and  C12_23 
REMARK       I    between atoms: C12_23  and  N6_25 
REMARK    6  A    between atoms: N6_25  and  N7_27 
REMARK    7  A    between atoms: N7_27  and  N8_28 
REMARK    8  A    between atoms: N8_28  and  N9_29 
ROOT
HETATM    1  C5  UNL     1      37.819  41.329  35.605  1.00  0.00     0.724 A 
HETATM    2  N2  UNL     1      37.953  42.541  36.159  1.00  0.00    -0.174 N 
ATOM      3  H2  UNL     1      38.221  42.627  37.139  1.00  0.00     0.185 HD
HETATM    4  C6  UNL     1      37.733  43.651  35.419  1.00  0.00     0.147 A 
HETATM    5  N3  UNL     1      37.382  43.555  34.130  1.00  0.00    -0.173 N 
ATOM      6  H3  UNL     1      37.218  44.393  33.572  1.00  0.00     0.185 HD
HETATM    7  C10 UNL     1      37.247  42.304  33.574  1.00  0.00     0.740 A 
HETATM    8  N4  UNL     1      36.970  41.563  32.513  1.00  0.00    -0.099 N 
HETATM    9  C11 UNL     1      36.605  41.839  31.153  1.00  0.00     0.200 C 
HETATM   10  N5  UNL     1      37.178  40.450  33.228  1.00  0.00    -0.088 N 
HETATM   11  C12 UNL     1      37.110  39.079  32.869  1.00  0.00     0.375 C 
HETATM   12  O3  UNL     1      36.868  38.775  31.639  1.00  0.00    -0.242 OA
HETATM   13  N6  UNL     1      37.274  37.971  33.715  1.00  0.00    -0.234 N 
ATOM     14  H6  UNL     1      37.472  38.098  34.708  1.00  0.00     0.189 HD
HETATM   15  N10 UNL     1      37.455  41.187  34.275  1.00  0.00     0.118 N 
ENDROOT
BRANCH  13  16
HETATM   16  N7  UNL     1      37.157  36.663  33.154  1.00  0.00    -0.005 NA
BRANCH  16  17
HETATM   17  N8  UNL     1      37.179  35.741  34.220  1.00  0.00    -0.016 NA
BRANCH  17  18
HETATM   18  N9  UNL     1      37.491  36.346  35.437  1.00  0.00    -0.330 N 
ATOM     19  H92 UNL     1      37.211  37.298  35.673  1.00  0.00     0.173 HD
ATOM     20  H91 UNL     1      38.025  35.730  36.051  1.00  0.00     0.173 HD
ENDBRANCH  17  18
ENDBRANCH  16  17
ENDBRANCH  13  16
BRANCH   1  21
HETATM   21  N1  UNL     1      38.091  40.286  36.257  1.00  0.00    -0.157 N 
HETATM   22  C4  UNL     1      39.210  39.461  36.271  1.00  0.00     0.235 C 
HETATM   23  O1  UNL     1      39.795  39.185  35.189  1.00  0.00    -0.273 OA
ATOM     24  H1  UNL     1      37.351  39.990  36.893  1.00  0.00     0.187 HD
BRANCH  22  25
HETATM   25  C3  UNL     1      39.715  38.903  37.580  1.00  0.00     0.103 C 
BRANCH  25  26
HETATM   26  C2  UNL     1      41.023  39.653  37.847  1.00  0.00     0.005 C 
HETATM   27  C1  UNL     1      41.027  40.394  39.144  1.00  0.00     0.005 C 
ENDBRANCH  25  26
ENDBRANCH  22  25
ENDBRANCH   1  21
BRANCH   4  28
HETATM   28  C7  UNL     1      37.889  44.979  36.063  1.00  0.00     0.110 C 
HETATM   29  C8  UNL     1      39.136  45.685  35.558  1.00  0.00     0.054 C 
HETATM   30  C9  UNL     1      36.704  45.845  35.739  1.00  0.00     0.054 C 
BRANCH  28  31
HETATM   31  O2  UNL     1      38.076  44.860  37.457  1.00  0.00    -0.383 OA
ATOM     32  H2  UNL     1      37.419  45.346  37.941  1.00  0.00     0.211 HD
ENDBRANCH  28  31
ENDBRANCH   4  28
TORSDOF 8
ENDMDL
MODEL 3
REMARK VINA RESULT: -7.134530792      0.945      1.106
REMARK  8 active torsions:
REMARK  status: ('A' for Active; 'I' for Inactive)
REMARK    1  A    between atoms: C2_2  and  C3_3 
REMARK    2  A    between atoms: C3_3  and  C4_4 
REMARK       I    between atoms: C4_4  and  N1_6 
REMARK    3  A    between atoms: N1_6  and  C5_8 
REMARK    4  A    between atoms: C6_11  and  C7_12 
REMARK    5  A    between atoms: C7_12  and  O2_15 
REMARK       I    between atoms: N5_22  and  C12_23 
REMARK       I    between atoms: C12_23  and  N6_25 
REMARK    6  A    between atoms: N6_25  and  N7_27 
REMARK    7  A    between atoms: N7_27  and  N8_28 
REMARK    8  A    between atoms: N8_28  and  N9_29 
ROOT
HETATM    1  C5  UNL     1      39.592  40.776  36.910  1.00  0.00     0.724 A 
HETATM    2  N2  UNL     1      39.097  42.018  36.839  1.00  0.00    -0.174 N 
ATOM      3  H2  UNL     1      39.347  42.707  37.548  1.00  0.00     0.185 HD
HETATM    4  C6  UNL     1      38.266  42.358  35.829  1.00  0.00     0.147 A 
HETATM    5  N3  UNL     1      37.929  41.464  34.890  1.00  0.00    -0.173 N 
ATOM      6  H3  UNL     1      37.303  41.722  34.128  1.00  0.00     0.185 HD
HETATM    7  C10 UNL     1      38.443  40.192  34.975  1.00  0.00     0.740 A 
HETATM    8  N4  UNL     1      38.530  38.972  34.470  1.00  0.00    -0.099 N 
HETATM    9  C11 UNL     1      37.977  38.310  33.323  1.00  0.00     0.200 C 
HETATM   10  N5  UNL     1      39.351  38.611  35.464  1.00  0.00    -0.088 N 
HETATM   11  C12 UNL     1      40.000  37.380  35.743  1.00  0.00     0.375 C 
HETATM   12  O3  UNL     1      39.871  36.410  34.904  1.00  0.00    -0.242 OA
HETATM   13  N6  UNL     1      40.791  37.074  36.862  1.00  0.00    -0.234 N 
ATOM     14  H6  UNL     1      40.962  37.770  37.587  1.00  0.00     0.189 HD
HETATM   15  N10 UNL     1      39.265  39.821  35.959  1.00  0.00     0.118 N 
ENDROOT
BRANCH  13  16
HETATM   16  N7  UNL     1      41.352  35.763  36.960  1.00  0.00    -0.005 NA
BRANCH  16  17
HETATM   17  N8  UNL     1      40.563  35.032  37.870  1.00  0.00    -0.016 NA
BRANCH  17  18
HETATM   18  N9  UNL     1      40.637  33.657  37.651  1.00  0.00    -0.330 N 
ATOM     19  H92 UNL     1      41.084  33.249  36.830  1.00  0.00     0.173 HD
ATOM     20  H91 UNL     1      40.197  33.120  38.399  1.00  0.00     0.173 HD
ENDBRANCH  17  18
ENDBRANCH  16  17
ENDBRANCH  13  16
BRANCH   1  21
HETATM   21  N1  UNL     1      40.425  40.460  37.801  1.00  0.00    -0.157 N 
HETATM   22  C4  UNL     1      41.812  40.358  37.785  1.00  0.00     0.235 C 
HETATM   23  O1  UNL     1      42.390  39.864  36.780  1.00  0.00    -0.273 OA
ATOM     24  H1  UNL     1      40.004  40.237  38.702  1.00  0.00     0.187 HD
BRANCH  22  25
HETATM   25  C3  UNL     1      42.613  40.839  38.972  1.00  0.00     0.103 C 
BRANCH  25  26
HETATM   26  C2  UNL     1      43.699  41.737  38.373  1.00  0.00     0.005 C 
HETATM   27  C1  UNL     1      45.086  41.280  38.688  1.00  0.00     0.005 C 
ENDBRANCH  25  26
ENDBRANCH  22  25
ENDBRANCH   1  21
BRANCH   4  28
HETATM   28  C7  UNL     1      37.733  43.743  35.781  1.00  0.00     0.110 C 
HETATM   29  C8  UNL     1      37.224  44.081  34.389  1.00  0.00     0.054 C 
HETATM   30  C9  UNL     1      36.583  43.881  36.739  1.00  0.00     0.054 C 
BRANCH  28  31
HETATM   31  O2  UNL     1      38.741  44.695  36.041  1.00  0.00    -0.383 OA
ATOM     32  H2  UNL     1      39.330  44.792  35.303  1.00  0.00     0.211 HD
ENDBRANCH  28  31
ENDBRANCH   4  28
TORSDOF 8
ENDMDL
MODEL 4
REMARK VINA RESULT: -7.098564774      2.151      2.968
REMARK  8 active torsions:
REMARK  status: ('A' for Active; 'I' for Inactive)
REMARK    1  A    between atoms: C2_2  and  C3_3 
REMARK    2  A    between atoms: C3_3  and  C4_4 
REMARK       I    between atoms: C4_4  and  N1_6 
REMARK    3  A    between atoms: N1_6  and  C5_8 
REMARK    4  A    between atoms: C6_11  and  C7_12 
REMARK    5  A    between atoms: C7_12  and  O2_15 
REMARK       I    between atoms: N5_22  and  C12_23 
REMARK       I    between atoms: C12_23  and  N6_25 
REMARK    6  A    between atoms: N6_25  and  N7_27 
REMARK    7  A    between atoms: N7_27  and  N8_28 
REMARK    8  A    between atoms: N8_28  and  N9_29 
ROOT
HETATM    1  C5  UNL     1      38.160  40.546  35.601  1.00  0.00     0.724 A 
HETATM    2  N2  UNL     1      38.329  41.834  35.928  1.00  0.00    -0.174 N 
ATOM      3  H2  UNL     1      38.606  42.087  36.876  1.00  0.00     0.185 HD
HETATM    4  C6  UNL     1      38.132  42.798  35.001  1.00  0.00     0.147 A 
HETATM    5  N3  UNL     1      37.769  42.481  33.751  1.00  0.00    -0.173 N 
ATOM      6  H3  UNL     1      37.623  43.209  33.052  1.00  0.00     0.185 HD
HETATM    7  C10 UNL     1      37.598  41.155  33.429  1.00  0.00     0.740 A 
HETATM    8  N4  UNL     1      37.294  40.244  32.520  1.00  0.00    -0.099 N 
HETATM    9  C11 UNL     1      36.925  40.281  31.133  1.00  0.00     0.200 C 
HETATM   10  N5  UNL     1      37.478  39.272  33.423  1.00  0.00    -0.088 N 
HETATM   11  C12 UNL     1      37.372  37.861  33.315  1.00  0.00     0.375 C 
HETATM   12  O3  UNL     1      37.113  37.348  32.161  1.00  0.00    -0.242 OA
HETATM   13  N6  UNL     1      37.513  36.919  34.347  1.00  0.00    -0.234 N 
ATOM     14  H6  UNL     1      37.722  37.216  35.300  1.00  0.00     0.189 HD
HETATM   15  N10 UNL     1      37.782  40.177  34.319  1.00  0.00     0.118 N 
ENDROOT
BRANCH  13  16
HETATM   16  N7  UNL     1      37.358  35.535  34.030  1.00  0.00    -0.005 NA
BRANCH  16  17
HETATM   17  N8  UNL     1      38.559  34.884  34.380  1.00  0.00    -0.016 NA
BRANCH  17  18
HETATM   18  N9  UNL     1      39.091  35.361  35.577  1.00  0.00    -0.330 N 
ATOM     19  H92 UNL     1      39.706  34.805  36.172  1.00  0.00     0.173 HD
ATOM     20  H91 UNL     1      38.796  36.316  35.780  1.00  0.00     0.173 HD
ENDBRANCH  17  18
ENDBRANCH  16  17
ENDBRANCH  13  16
BRANCH   1  21
HETATM   21  N1  UNL     1      38.409  39.630  36.429  1.00  0.00    -0.157 N 
HETATM   22  C4  UNL     1      39.499  38.778  36.576  1.00  0.00     0.235 C 
HETATM   23  O1  UNL     1      40.048  38.286  35.555  1.00  0.00    -0.273 OA
ATOM     24  H1  UNL     1      37.674  39.485  37.121  1.00  0.00     0.187 HD
BRANCH  22  25
HETATM   25  C3  UNL     1      40.013  38.450  37.958  1.00  0.00     0.103 C 
BRANCH  25  26
HETATM   26  C2  UNL     1      40.554  39.776  38.500  1.00  0.00     0.005 C 
HETATM   27  C1  UNL     1      41.801  40.232  37.814  1.00  0.00     0.005 C 
ENDBRANCH  25  26
ENDBRANCH  22  25
ENDBRANCH   1  21
BRANCH   4  28
HETATM   28  C7  UNL     1      38.327  44.215  35.396  1.00  0.00     0.110 C 
HETATM   29  C8  UNL     1      39.692  44.720  34.956  1.00  0.00     0.054 C 
HETATM   30  C9  UNL     1      37.283  45.076  34.740  1.00  0.00     0.054 C 
BRANCH  28  31
HETATM   31  O2  UNL     1      38.317  44.369  36.798  1.00  0.00    -0.383 OA
ATOM     32  H2  UNL     1      38.827  45.123  37.071  1.00  0.00     0.211 HD
ENDBRANCH  28  31
ENDBRANCH   4  28
TORSDOF 8
ENDMDL
MODEL 5
REMARK VINA RESULT: -7.080149753      2.315      6.159
REMARK  8 active torsions:
REMARK  status: ('A' for Active; 'I' for Inactive)
REMARK    1  A    between atoms: C2_2  and  C3_3 
REMARK    2  A    between atoms: C3_3  and  C4_4 
REMARK       I    between atoms: C4_4  and  N1_6 
REMARK    3  A    between atoms: N1_6  and  C5_8 
REMARK    4  A    between atoms: C6_11  and  C7_12 
REMARK    5  A    between atoms: C7_12  and  O2_15 
REMARK       I    between atoms: N5_22  and  C12_23 
REMARK       I    between atoms: C12_23  and  N6_25 
REMARK    6  A    between atoms: N6_25  and  N7_27 
REMARK    7  A    between atoms: N7_27  and  N8_28 
REMARK    8  A    between atoms: N8_28  and  N9_29 
ROOT
HETATM    1  C5  UNL     1      40.135  37.538  36.249  1.00  0.00     0.724 A 
HETATM    2  N2  UNL     1      40.409  36.244  36.454  1.00  0.00    -0.174 N 
ATOM      3  H2  UNL     1      41.039  35.969  37.208  1.00  0.00     0.185 HD
HETATM    4  C6  UNL     1      39.851  35.300  35.663  1.00  0.00     0.147 A 
HETATM    5  N3  UNL     1      39.020  35.645  34.670  1.00  0.00    -0.173 N 
ATOM      6  H3  UNL     1      38.598  34.932  34.075  1.00  0.00     0.185 HD
HETATM    7  C10 UNL     1      38.748  36.978  34.469  1.00  0.00     0.740 A 
HETATM    8  N4  UNL     1      38.111  37.909  33.779  1.00  0.00    -0.099 N 
HETATM    9  C11 UNL     1      37.202  37.902  32.668  1.00  0.00     0.200 C 
HETATM   10  N5  UNL     1      38.656  38.861  34.547  1.00  0.00    -0.088 N 
HETATM   11  C12 UNL     1      38.514  40.273  34.532  1.00  0.00     0.375 C 
HETATM   12  O3  UNL     1      37.685  40.801  33.697  1.00  0.00    -0.242 OA
HETATM   13  N6  UNL     1      39.191  41.202  35.338  1.00  0.00    -0.234 N 
ATOM     14  H6  UNL     1      39.868  40.893  36.035  1.00  0.00     0.189 HD
HETATM   15  N10 UNL     1      39.283  37.936  35.230  1.00  0.00     0.118 N 
ENDROOT
BRANCH  13  16
HETATM   16  N7  UNL     1      38.909  42.591  35.159  1.00  0.00    -0.005 NA
BRANCH  16  17
HETATM   17  N8  UNL     1      38.628  43.133  36.430  1.00  0.00    -0.016 NA
BRANCH  17  18
HETATM   18  N9  UNL     1      37.353  42.792  36.882  1.00  0.00    -0.330 N 
ATOM     19  H92 UNL     1      36.933  41.877  36.719  1.00  0.00     0.173 HD
ATOM     20  H91 UNL     1      36.902  43.556  37.385  1.00  0.00     0.173 HD
ENDBRANCH  17  18
ENDBRANCH  16  17
ENDBRANCH  13  16
BRANCH   1  21
HETATM   21  N1  UNL     1      40.587  38.426  37.020  1.00  0.00    -0.157 N 
HETATM   22  C4  UNL     1      41.786  39.131  37.029  1.00  0.00     0.235 C 
HETATM   23  O1  UNL     1      42.861  38.535  36.752  1.00  0.00    -0.273 OA
ATOM     24  H1  UNL     1      39.954  38.675  37.781  1.00  0.00     0.187 HD
BRANCH  22  25
HETATM   25  C3  UNL     1      41.789  40.601  37.373  1.00  0.00     0.103 C 
BRANCH  25  26
HETATM   26  C2  UNL     1      41.313  40.666  38.826  1.00  0.00     0.005 C 
HETATM   27  C1  UNL     1      42.290  41.329  39.741  1.00  0.00     0.005 C 
ENDBRANCH  25  26
ENDBRANCH  22  25
ENDBRANCH   1  21
BRANCH   4  28
HETATM   28  C7  UNL     1      40.176  33.875  35.916  1.00  0.00     0.110 C 
HETATM   29  C8  UNL     1      41.353  33.426  35.064  1.00  0.00     0.054 C 
HETATM   30  C9  UNL     1      40.553  33.685  37.359  1.00  0.00     0.054 C 
BRANCH  28  31
HETATM   31  O2  UNL     1      39.112  33.026  35.544  1.00  0.00    -0.383 OA
ATOM     32  H2  UNL     1      38.592  33.404  34.845  1.00  0.00     0.211 HD
ENDBRANCH  28  31
ENDBRANCH   4  28
TORSDOF 8
ENDMDL
