MODEL 1
REMARK VINA RESULT: -6.480099072      0.000      0.000
REMARK  5 active torsions:
REMARK  status: ('A' for Active; 'I' for Inactive)
REMARK    1  A    between atoms: C2_2  and  C3_3 
REMARK       I    between atoms: C3_3  and  N1_5 
REMARK    2  A    between atoms: C5_10  and  N4_11 
REMARK    3  A    between atoms: C5_10  and  C7_16 
REMARK       I    between atoms: N4_11  and  C6_13 
REMARK    4  A    between atoms: C12_26  and  N8_27 
REMARK    5  A    between atoms: N8_27  and  N9_29 
ROOT
HETATM    1  C3  UNL     1      41.532  40.605  33.189  1.00  0.00     0.255 C 
HETATM    2  O1  UNL     1      41.794  41.649  33.877  1.00  0.00    -0.268 OA
HETATM    3  N1  UNL     1      41.201  39.431  33.867  1.00  0.00    -0.234 N 
HETATM    4  C4  UNL     1      40.881  38.279  33.099  1.00  0.00     0.202 C 
HETATM    5  N2  UNL     1      41.718  37.970  32.013  1.00  0.00    -0.063 NA
HETATM    6  N3  UNL     1      39.869  37.515  33.351  1.00  0.00    -0.323 N 
ATOM      7  H3  UNL     1      39.806  36.738  32.693  1.00  0.00     0.165 HD
HETATM    8  C5  UNL     1      38.806  37.481  34.328  1.00  0.00     0.246 C 
HETATM    9  C8  UNL     1      39.160  37.975  35.661  1.00  0.00     0.102 A 
HETATM   10  N6  UNL     1      38.466  37.615  36.762  1.00  0.00    -0.350 N 
ATOM     11  H6  UNL     1      37.664  36.985  36.765  1.00  0.00     0.166 HD
HETATM   12  C9  UNL     1      38.983  38.205  37.850  1.00  0.00     0.183 A 
HETATM   13  N7  UNL     1      40.034  38.967  37.473  1.00  0.00    -0.343 N 
HETATM   14  C10 UNL     1      40.883  39.778  38.328  1.00  0.00     0.157 C 
HETATM   15  C11 UNL     1      40.139  38.824  36.142  1.00  0.00     0.109 A 
HETATM   16  C12 UNL     1      41.203  39.469  35.309  1.00  0.00     0.161 C 
ENDROOT
BRANCH   8  17
HETATM   17  N4  UNL     1      37.762  38.348  33.803  1.00  0.00    -0.304 N 
HETATM   18  C6  UNL     1      37.195  38.296  32.519  1.00  0.00     0.331 C 
HETATM   19  N5  UNL     1      36.162  39.262  32.221  1.00  0.00    -0.040 NA
HETATM   20  O2  UNL     1      37.468  37.520  31.592  1.00  0.00    -0.251 OA
ATOM     21  H4  UNL     1      37.405  39.067  34.431  1.00  0.00     0.167 HD
ENDBRANCH   8  17
BRANCH   8  22
HETATM   22  C7  UNL     1      38.356  36.071  34.407  1.00  0.00     0.231 C 
HETATM   23  O3  UNL     1      39.201  35.159  34.364  1.00  0.00    -0.644 OA
HETATM   24  O4  UNL     1      37.023  35.754  34.526  1.00  0.00    -0.644 OA
ENDBRANCH   8  22
BRANCH  16  25
HETATM   25  N8  UNL     1      42.104  39.976  35.943  1.00  0.00    -0.290 N 
ATOM     26  H8  UNL     1      41.679  40.597  36.632  1.00  0.00     0.188 HD
BRANCH  25  27
HETATM   27  N9  UNL     1      43.415  40.048  36.099  1.00  0.00    -0.344 N 
ATOM     28  H92 UNL     1      43.661  41.020  35.910  1.00  0.00     0.176 HD
ATOM     29  H91 UNL     1      44.260  39.527  36.330  1.00  0.00     0.176 HD
ENDBRANCH  25  27
ENDBRANCH  16  25
BRANCH   1  30
HETATM   30  C2  UNL     1      41.622  40.809  31.758  1.00  0.00     0.065 C 
HETATM   31  C1  UNL     1      42.713  41.401  31.252  1.00  0.00     0.017 C 
ENDBRANCH   1  30
TORSDOF 5
ENDMDL
MODEL 2
REMARK VINA RESULT: -6.286055416      2.820      3.703
REMARK  5 active torsions:
REMARK  status: ('A' for Active; 'I' for Inactive)
REMARK    1  A    between atoms: C2_2  and  C3_3 
REMARK       I    between atoms: C3_3  and  N1_5 
REMARK    2  A    between atoms: C5_10  and  N4_11 
REMARK    3  A    between atoms: C5_10  and  C7_16 
REMARK       I    between atoms: N4_11  and  C6_13 
REMARK    4  A    between atoms: C12_26  and  N8_27 
REMARK    5  A    between atoms: N8_27  and  N9_29 
ROOT
HETATM    1  C3  UNL     1      39.359  39.424  31.065  1.00  0.00     0.255 C 
HETATM    2  O1  UNL     1      38.599  40.269  30.481  1.00  0.00    -0.268 OA
HETATM    3  N1  UNL     1      39.701  39.650  32.398  1.00  0.00    -0.234 N 
HETATM    4  C4  UNL     1      40.522  38.694  33.054  1.00  0.00     0.202 C 
HETATM    5  N2  UNL     1      41.647  38.218  32.358  1.00  0.00    -0.063 NA
HETATM    6  N3  UNL     1      40.283  38.248  34.243  1.00  0.00    -0.323 N 
ATOM      7  H3  UNL     1      40.984  37.570  34.544  1.00  0.00     0.165 HD
HETATM    8  C5  UNL     1      39.276  38.465  35.255  1.00  0.00     0.246 C 
HETATM    9  C8  UNL     1      38.729  39.822  35.319  1.00  0.00     0.102 A 
HETATM   10  N6  UNL     1      38.143  40.303  36.436  1.00  0.00    -0.350 N 
ATOM     11  H6  UNL     1      38.037  39.784  37.308  1.00  0.00     0.166 HD
HETATM   12  C9  UNL     1      37.722  41.560  36.235  1.00  0.00     0.183 A 
HETATM   13  N7  UNL     1      38.031  41.925  34.971  1.00  0.00    -0.343 N 
HETATM   14  C10 UNL     1      37.759  43.201  34.333  1.00  0.00     0.157 C 
HETATM   15  C11 UNL     1      38.644  40.867  34.417  1.00  0.00     0.109 A 
HETATM   16  C12 UNL     1      39.192  40.846  33.025  1.00  0.00     0.161 C 
ENDROOT
BRANCH   8  17
HETATM   17  N4  UNL     1      38.180  37.567  34.919  1.00  0.00    -0.304 N 
HETATM   18  C6  UNL     1      38.288  36.229  34.508  1.00  0.00     0.331 C 
HETATM   19  N5  UNL     1      37.054  35.528  34.231  1.00  0.00    -0.040 NA
HETATM   20  O2  UNL     1      39.318  35.556  34.349  1.00  0.00    -0.251 OA
ATOM     21  H4  UNL     1      37.238  37.950  34.987  1.00  0.00     0.167 HD
ENDBRANCH   8  17
BRANCH   8  22
HETATM   22  C7  UNL     1      39.900  38.101  36.550  1.00  0.00     0.231 C 
HETATM   23  O3  UNL     1      41.125  37.894  36.598  1.00  0.00    -0.644 OA
HETATM   24  O4  UNL     1      39.148  37.990  37.696  1.00  0.00    -0.644 OA
ENDBRANCH   8  22
BRANCH  16  25
HETATM   25  N8  UNL     1      39.233  41.930  32.481  1.00  0.00    -0.290 N 
ATOM     26  H8  UNL     1      38.332  42.383  32.637  1.00  0.00     0.188 HD
BRANCH  25  27
HETATM   27  N9  UNL     1      39.975  42.760  31.768  1.00  0.00    -0.344 N 
ATOM     28  H92 UNL     1      40.209  43.529  32.397  1.00  0.00     0.176 HD
ATOM     29  H91 UNL     1      40.399  42.932  30.857  1.00  0.00     0.176 HD
ENDBRANCH  25  27
ENDBRANCH  16  25
BRANCH   1  30
HETATM   30  C2  UNL     1      39.762  38.318  30.220  1.00  0.00     0.065 C 
HETATM   31  C1  UNL     1      38.945  37.921  29.235  1.00  0.00     0.017 C 
ENDBRANCH   1  30
TORSDOF 5
ENDMDL
MODEL 3
REMARK VINA RESULT: -6.189499901      2.692      4.464
REMARK  5 active torsions:
REMARK  status: ('A' for Active; 'I' for Inactive)
REMARK    1  A    between atoms: C2_2  and  C3_3 
REMARK       I    between atoms: C3_3  and  N1_5 
REMARK    2  A    between atoms: C5_10  and  N4_11 
REMARK    3  A    between atoms: C5_10  and  C7_16 
REMARK       I    between atoms: N4_11  and  C6_13 
REMARK    4  A    between atoms: C12_26  and  N8_27 
REMARK    5  A    between atoms: N8_27  and  N9_29 
ROOT
HETATM    1  C3  UNL     1      39.706  35.926  35.340  1.00  0.00     0.255 C 
HETATM    2  O1  UNL     1      40.697  36.071  36.133  1.00  0.00    -0.268 OA
HETATM    3  N1  UNL     1      38.858  37.014  35.132  1.00  0.00    -0.234 N 
HETATM    4  C4  UNL     1      37.774  36.858  34.227  1.00  0.00     0.202 C 
HETATM    5  N2  UNL     1      37.009  35.683  34.325  1.00  0.00    -0.063 NA
HETATM    6  N3  UNL     1      37.465  37.737  33.330  1.00  0.00    -0.323 N 
ATOM      7  H3  UNL     1      36.657  37.450  32.778  1.00  0.00     0.165 HD
HETATM    8  C5  UNL     1      37.973  39.023  32.911  1.00  0.00     0.246 C 
HETATM    9  C8  UNL     1      38.537  39.854  33.977  1.00  0.00     0.102 A 
HETATM   10  N6  UNL     1      38.639  41.195  33.857  1.00  0.00    -0.350 N 
ATOM     11  H6  UNL     1      38.337  41.732  33.044  1.00  0.00     0.166 HD
HETATM   12  C9  UNL     1      39.192  41.719  34.961  1.00  0.00     0.183 A 
HETATM   13  N7  UNL     1      39.463  40.719  35.828  1.00  0.00    -0.343 N 
HETATM   14  C10 UNL     1      40.064  40.837  37.145  1.00  0.00     0.157 C 
HETATM   15  C11 UNL     1      39.063  39.587  35.228  1.00  0.00     0.109 A 
HETATM   16  C12 UNL     1      39.142  38.230  35.854  1.00  0.00     0.161 C 
ENDROOT
BRANCH   8  17
HETATM   17  N4  UNL     1      39.043  38.734  31.968  1.00  0.00    -0.304 N 
HETATM   18  C6  UNL     1      38.937  37.997  30.778  1.00  0.00     0.331 C 
HETATM   19  N5  UNL     1      40.142  37.843  29.994  1.00  0.00    -0.040 NA
HETATM   20  O2  UNL     1      37.930  37.451  30.302  1.00  0.00    -0.251 OA
ATOM     21  H4  UNL     1      39.966  39.104  32.196  1.00  0.00     0.167 HD
ENDBRANCH   8  17
BRANCH   8  22
HETATM   22  C7  UNL     1      36.844  39.725  32.256  1.00  0.00     0.231 C 
HETATM   23  O3  UNL     1      35.702  39.236  32.324  1.00  0.00    -0.644 OA
HETATM   24  O4  UNL     1      37.037  40.905  31.577  1.00  0.00    -0.644 OA
ENDBRANCH   8  22
BRANCH  16  25
HETATM   25  N8  UNL     1      39.408  38.234  37.038  1.00  0.00    -0.290 N 
ATOM     26  H8  UNL     1      39.963  39.069  37.223  1.00  0.00     0.188 HD
BRANCH  25  27
HETATM   27  N9  UNL     1      39.265  37.591  38.185  1.00  0.00    -0.344 N 
ATOM     28  H92 UNL     1      38.466  36.971  38.055  1.00  0.00     0.176 HD
ATOM     29  H91 UNL     1      39.631  37.472  39.129  1.00  0.00     0.176 HD
ENDBRANCH  25  27
ENDBRANCH  16  25
BRANCH   1  30
HETATM   30  C2  UNL     1      39.614  34.603  34.754  1.00  0.00     0.065 C 
HETATM   31  C1  UNL     1      40.511  33.672  35.106  1.00  0.00     0.017 C 
ENDBRANCH   1  30
TORSDOF 5
ENDMDL
MODEL 4
REMARK VINA RESULT: -6.172932779      2.986      6.355
REMARK  5 active torsions:
REMARK  status: ('A' for Active; 'I' for Inactive)
REMARK    1  A    between atoms: C2_2  and  C3_3 
REMARK       I    between atoms: C3_3  and  N1_5 
REMARK    2  A    between atoms: C5_10  and  N4_11 
REMARK    3  A    between atoms: C5_10  and  C7_16 
REMARK       I    between atoms: N4_11  and  C6_13 
REMARK    4  A    between atoms: C12_26  and  N8_27 
REMARK    5  A    between atoms: N8_27  and  N9_29 
ROOT
HETATM    1  C3  UNL     1      39.750  39.320  36.414  1.00  0.00     0.255 C 
HETATM    2  O1  UNL     1      38.946  39.791  37.287  1.00  0.00    -0.268 OA
HETATM    3  N1  UNL     1      40.101  40.127  35.331  1.00  0.00    -0.234 N 
HETATM    4  C4  UNL     1      41.018  39.611  34.377  1.00  0.00     0.202 C 
HETATM    5  N2  UNL     1      40.819  38.294  33.930  1.00  0.00    -0.063 NA
HETATM    6  N3  UNL     1      42.014  40.291  33.909  1.00  0.00    -0.323 N 
ATOM      7  H3  UNL     1      42.558  39.753  33.234  1.00  0.00     0.165 HD
HETATM    8  C5  UNL     1      42.553  41.617  34.099  1.00  0.00     0.246 C 
HETATM    9  C8  UNL     1      41.566  42.664  34.371  1.00  0.00     0.102 A 
HETATM   10  N6  UNL     1      41.827  43.968  34.136  1.00  0.00    -0.350 N 
ATOM     11  H6  UNL     1      42.702  44.328  33.757  1.00  0.00     0.166 HD
HETATM   12  C9  UNL     1      40.769  44.721  34.473  1.00  0.00     0.183 A 
HETATM   13  N7  UNL     1      39.790  43.913  34.937  1.00  0.00    -0.343 N 
HETATM   14  C10 UNL     1      38.475  44.307  35.411  1.00  0.00     0.157 C 
HETATM   15  C11 UNL     1      40.277  42.664  34.873  1.00  0.00     0.109 A 
HETATM   16  C12 UNL     1      39.505  41.439  35.256  1.00  0.00     0.161 C 
ENDROOT
BRANCH   8  17
HETATM   17  N4  UNL     1      43.424  41.524  35.261  1.00  0.00    -0.304 N 
HETATM   18  C6  UNL     1      44.612  40.783  35.362  1.00  0.00     0.331 C 
HETATM   19  N5  UNL     1      45.318  40.847  36.623  1.00  0.00    -0.040 NA
HETATM   20  O2  UNL     1      45.145  40.068  34.500  1.00  0.00    -0.251 OA
ATOM     21  H4  UNL     1      43.143  42.052  36.087  1.00  0.00     0.167 HD
ENDBRANCH   8  17
BRANCH   8  22
HETATM   22  C7  UNL     1      43.316  41.938  32.870  1.00  0.00     0.231 C 
HETATM   23  O3  UNL     1      43.223  41.187  31.882  1.00  0.00    -0.644 OA
HETATM   24  O4  UNL     1      44.123  43.049  32.802  1.00  0.00    -0.644 OA
ENDBRANCH   8  22
BRANCH  16  25
HETATM   25  N8  UNL     1      38.321  41.625  35.442  1.00  0.00    -0.290 N 
ATOM     26  H8  UNL     1      38.232  42.440  36.048  1.00  0.00     0.188 HD
BRANCH  25  27
HETATM   27  N9  UNL     1      37.099  41.196  35.173  1.00  0.00    -0.344 N 
ATOM     28  H92 UNL     1      36.667  41.015  36.079  1.00  0.00     0.176 HD
ATOM     29  H91 UNL     1      36.432  40.979  34.433  1.00  0.00     0.176 HD
ENDBRANCH  25  27
ENDBRANCH  16  25
BRANCH   1  30
HETATM   30  C2  UNL     1      40.192  37.968  36.694  1.00  0.00     0.065 C 
HETATM   31  C1  UNL     1      39.596  37.280  37.677  1.00  0.00     0.017 C 
ENDBRANCH   1  30
TORSDOF 5
ENDMDL
MODEL 5
REMARK VINA RESULT: -6.171291866      1.851      4.527
REMARK  5 active torsions:
REMARK  status: ('A' for Active; 'I' for Inactive)
REMARK    1  A    between atoms: C2_2  and  C3_3 
REMARK       I    between atoms: C3_3  and  N1_5 
REMARK    2  A    between atoms: C5_10  and  N4_11 
REMARK    3  A    between atoms: C5_10  and  C7_16 
REMARK       I    between atoms: N4_11  and  C6_13 
REMARK    4  A    between atoms: C12_26  and  N8_27 
REMARK    5  A    between atoms: N8_27  and  N9_29 
ROOT
HETATM    1  C3  UNL     1      41.279  39.980  36.574  1.00  0.00     0.255 C 
HETATM    2  O1  UNL     1      42.365  40.531  36.188  1.00  0.00    -0.268 OA
HETATM    3  N1  UNL     1      40.267  39.779  35.635  1.00  0.00    -0.234 N 
HETATM    4  C4  UNL     1      39.072  39.139  36.060  1.00  0.00     0.202 C 
HETATM    5  N2  UNL     1      38.504  39.564  37.273  1.00  0.00    -0.063 NA
HETATM    6  N3  UNL     1      38.493  38.197  35.391  1.00  0.00    -0.323 N 
ATOM      7  H3  UNL     1      37.647  37.865  35.854  1.00  0.00     0.165 HD
HETATM    8  C5  UNL     1      38.739  37.494  34.153  1.00  0.00     0.246 C 
HETATM    9  C8  UNL     1      39.364  38.287  33.092  1.00  0.00     0.102 A 
HETATM   10  N6  UNL     1      39.258  37.945  31.791  1.00  0.00    -0.350 N 
ATOM     11  H6  UNL     1      38.748  37.135  31.440  1.00  0.00     0.166 HD
HETATM   12  C9  UNL     1      39.921  38.825  31.024  1.00  0.00     0.183 A 
HETATM   13  N7  UNL     1      40.474  39.766  31.822  1.00  0.00    -0.343 N 
HETATM   14  C10 UNL     1      41.276  40.904  31.411  1.00  0.00     0.157 C 
HETATM   15  C11 UNL     1      40.133  39.436  33.077  1.00  0.00     0.109 A 
HETATM   16  C12 UNL     1      40.506  40.236  34.287  1.00  0.00     0.161 C 
ENDROOT
BRANCH   8  17
HETATM   17  N4  UNL     1      39.655  36.415  34.490  1.00  0.00    -0.304 N 
HETATM   18  C6  UNL     1      39.642  35.637  35.659  1.00  0.00     0.331 C 
HETATM   19  N5  UNL     1      40.655  34.610  35.773  1.00  0.00    -0.040 NA
HETATM   20  O2  UNL     1      38.865  35.714  36.622  1.00  0.00    -0.251 OA
ATOM     21  H4  UNL     1      40.382  36.201  33.807  1.00  0.00     0.167 HD
ENDBRANCH   8  17
BRANCH   8  22
HETATM   22  C7  UNL     1      37.427  36.974  33.700  1.00  0.00     0.231 C 
HETATM   23  O3  UNL     1      36.678  37.709  33.033  1.00  0.00    -0.644 OA
HETATM   24  O4  UNL     1      37.025  35.694  34.004  1.00  0.00    -0.644 OA
ENDBRANCH   8  22
BRANCH  16  25
HETATM   25  N8  UNL     1      40.972  41.329  34.047  1.00  0.00    -0.290 N 
ATOM     26  H8  UNL     1      41.630  41.217  33.276  1.00  0.00     0.188 HD
BRANCH  25  27
HETATM   27  N9  UNL     1      40.970  42.608  34.382  1.00  0.00    -0.344 N 
ATOM     28  H92 UNL     1      40.894  42.625  35.400  1.00  0.00     0.176 HD
ATOM     29  H91 UNL     1      41.014  43.565  34.034  1.00  0.00     0.176 HD
ENDBRANCH  25  27
ENDBRANCH  16  25
BRANCH   1  30
HETATM   30  C2  UNL     1      41.266  39.634  37.981  1.00  0.00     0.065 C 
HETATM   31  C1  UNL     1      41.523  40.587  38.887  1.00  0.00     0.017 C 
ENDBRANCH   1  30
TORSDOF 5
ENDMDL
