MODEL 1
REMARK VINA RESULT: -6.817279921      0.000      0.000
REMARK  7 active torsions:
REMARK  status: ('A' for Active; 'I' for Inactive)
REMARK    1  A    between atoms: N1_1  and  N2_4 
REMARK    2  A    between atoms: C1_6  and  N3_7 
REMARK    3  A    between atoms: N3_7  and  O1_8 
REMARK    4  A    between atoms: N3_7  and  S1_10 
REMARK    5  A    between atoms: S1_10  and  N4_13 
REMARK    6  A    between atoms: C10_29  and  C11_30 
REMARK    7  A    between atoms: C11_30  and  O4_31 
ROOT
HETATM    1  N4  UNL     1      40.539  39.374  37.561  1.00  0.00    -0.271 N 
ATOM      2  H4  UNL     1      40.421  38.810  38.401  1.00  0.00     0.180 HD
HETATM    3  C2  UNL     1      39.759  39.042  36.632  1.00  0.00     0.024 C 
HETATM    4  C3  UNL     1      39.773  39.732  35.348  1.00  0.00     0.060 C 
HETATM    5  C4  UNL     1      38.494  40.427  34.952  1.00  0.00     0.050 C 
HETATM    6  C5  UNL     1      38.686  40.871  33.548  1.00  0.00     0.061 C 
HETATM    7  N5  UNL     1      38.389  40.282  32.552  1.00  0.00    -0.378 N 
ATOM      8  H5  UNL     1      38.668  40.889  31.781  1.00  0.00     0.164 HD
HETATM    9  C6  UNL     1      37.846  39.162  31.966  1.00  0.00     0.103 C 
HETATM   10  C7  UNL     1      36.700  38.606  32.714  1.00  0.00     0.100 C 
HETATM   11  N6  UNL     1      36.850  37.452  33.484  1.00  0.00    -0.396 N 
ATOM     12  H6  UNL     1      36.052  37.119  34.025  1.00  0.00     0.158 HD
HETATM   13  C8  UNL     1      38.048  36.732  33.546  1.00  0.00     0.138 C 
HETATM   14  C9  UNL     1      38.469  36.410  35.000  1.00  0.00     0.134 C 
HETATM   15  N7  UNL     1      38.096  37.529  35.775  1.00  0.00    -0.409 N 
ATOM     16  H7  UNL     1      37.291  38.088  35.497  1.00  0.00     0.154 HD
HETATM   17  C10 UNL     1      38.818  37.879  36.917  1.00  0.00     0.147 C 
ENDROOT
BRANCH   1  18
HETATM   18  S1  UNL     1      41.716  40.528  37.718  1.00  0.00     0.348 S 
HETATM   19  O2  UNL     1      41.438  41.713  36.784  1.00  0.00    -0.180 OA
HETATM   20  O3  UNL     1      41.896  41.113  39.090  1.00  0.00    -0.180 OA
BRANCH  18  21
HETATM   21  N3  UNL     1      43.250  39.923  37.210  1.00  0.00    -0.125 N 
BRANCH  21  22
HETATM   22  C1  UNL     1      44.373  40.769  37.267  1.00  0.00     0.243 C 
HETATM   23  N2  UNL     1      45.128  41.026  36.261  1.00  0.00    -0.300 N 
ATOM     24  H2  UNL     1      45.925  41.651  36.382  1.00  0.00     0.187 HD
BRANCH  23  25
HETATM   25  N1  UNL     1      44.886  40.477  35.024  1.00  0.00    -0.344 N 
ATOM     26  H12 UNL     1      45.288  39.564  34.814  1.00  0.00     0.176 HD
ATOM     27  H11 UNL     1      44.319  40.963  34.328  1.00  0.00     0.176 HD
ENDBRANCH  23  25
ENDBRANCH  21  22
BRANCH  21  28
HETATM   28  O1  UNL     1      43.386  38.661  36.766  1.00  0.00    -0.271 OA
ATOM     29  H1  UNL     1      43.054  37.938  37.287  1.00  0.00     0.246 HD
ENDBRANCH  21  28
ENDBRANCH  18  21
ENDBRANCH   1  18
BRANCH  17  30
HETATM   30  C11 UNL     1      39.635  36.776  37.545  1.00  0.00     0.194 C 
BRANCH  30  31
HETATM   31  O4  UNL     1      40.899  36.673  36.969  1.00  0.00    -0.398 OA
ATOM     32  H4  UNL     1      41.346  35.877  37.233  1.00  0.00     0.209 HD
ENDBRANCH  30  31
ENDBRANCH  17  30
TORSDOF 7
ENDMDL
MODEL 2
REMARK VINA RESULT: -6.723956785      2.991      5.271
REMARK  7 active torsions:
REMARK  status: ('A' for Active; 'I' for Inactive)
REMARK    1  A    between atoms: N1_1  and  N2_4 
REMARK    2  A    between atoms: C1_6  and  N3_7 
REMARK    3  A    between atoms: N3_7  and  O1_8 
REMARK    4  A    between atoms: N3_7  and  S1_10 
REMARK    5  A    between atoms: S1_10  and  N4_13 
REMARK    6  A    between atoms: C10_29  and  C11_30 
REMARK    7  A    between atoms: C11_30  and  O4_31 
ROOT
HETATM    1  N4  UNL     1      40.350  36.832  36.075  1.00  0.00    -0.271 N 
ATOM      2  H4  UNL     1      41.310  36.896  36.410  1.00  0.00     0.180 HD
HETATM    3  C2  UNL     1      39.987  37.847  35.428  1.00  0.00     0.024 C 
HETATM    4  C3  UNL     1      38.646  37.945  34.865  1.00  0.00     0.060 C 
HETATM    5  C4  UNL     1      38.563  38.076  33.363  1.00  0.00     0.050 C 
HETATM    6  C5  UNL     1      37.139  38.362  33.054  1.00  0.00     0.061 C 
HETATM    7  N5  UNL     1      36.621  39.431  32.933  1.00  0.00    -0.378 N 
ATOM      8  H5  UNL     1      35.642  39.240  32.724  1.00  0.00     0.164 HD
HETATM    9  C6  UNL     1      36.737  40.802  32.947  1.00  0.00     0.103 C 
HETATM   10  C7  UNL     1      38.020  41.288  32.397  1.00  0.00     0.100 C 
HETATM   11  N6  UNL     1      39.026  41.748  33.247  1.00  0.00    -0.396 N 
ATOM     12  H6  UNL     1      39.916  42.034  32.840  1.00  0.00     0.158 HD
HETATM   13  C8  UNL     1      38.867  41.835  34.634  1.00  0.00     0.138 C 
HETATM   14  C9  UNL     1      40.049  41.201  35.405  1.00  0.00     0.134 C 
HETATM   15  N7  UNL     1      40.452  40.077  34.654  1.00  0.00    -0.409 N 
ATOM     16  H7  UNL     1      40.333  40.078  33.642  1.00  0.00     0.154 HD
HETATM   17  C10 UNL     1      41.012  38.963  35.280  1.00  0.00     0.147 C 
ENDROOT
BRANCH   1  18
HETATM   18  S1  UNL     1      39.610  35.413  36.503  1.00  0.00     0.348 S 
HETATM   19  O2  UNL     1      38.954  35.544  37.885  1.00  0.00    -0.180 OA
HETATM   20  O3  UNL     1      38.536  34.917  35.578  1.00  0.00    -0.180 OA
BRANCH  18  21
HETATM   21  N3  UNL     1      40.762  34.143  36.685  1.00  0.00    -0.125 N 
BRANCH  21  22
HETATM   22  C1  UNL     1      41.265  33.505  35.536  1.00  0.00     0.243 C 
HETATM   23  N2  UNL     1      40.710  32.491  34.977  1.00  0.00    -0.300 N 
ATOM     24  H2  UNL     1      41.136  32.085  34.144  1.00  0.00     0.187 HD
BRANCH  23  25
HETATM   25  N1  UNL     1      39.553  31.942  35.477  1.00  0.00    -0.344 N 
ATOM     26  H12 UNL     1      38.862  32.568  35.892  1.00  0.00     0.176 HD
ATOM     27  H11 UNL     1      39.382  30.937  35.439  1.00  0.00     0.176 HD
ENDBRANCH  23  25
ENDBRANCH  21  22
BRANCH  21  28
HETATM   28  O1  UNL     1      41.186  33.758  37.902  1.00  0.00    -0.271 OA
ATOM     29  H1  UNL     1      41.234  32.832  38.114  1.00  0.00     0.246 HD
ENDBRANCH  21  28
ENDBRANCH  18  21
ENDBRANCH   1  18
BRANCH  17  30
HETATM   30  C11 UNL     1      41.619  39.207  36.641  1.00  0.00     0.194 C 
BRANCH  30  31
HETATM   31  O4  UNL     1      42.889  38.645  36.752  1.00  0.00    -0.398 OA
ATOM     32  H4  UNL     1      43.110  38.443  37.654  1.00  0.00     0.209 HD
ENDBRANCH  30  31
ENDBRANCH  17  30
TORSDOF 7
ENDMDL
MODEL 3
REMARK VINA RESULT: -6.699220522      3.437      6.259
REMARK  7 active torsions:
REMARK  status: ('A' for Active; 'I' for Inactive)
REMARK    1  A    between atoms: N1_1  and  N2_4 
REMARK    2  A    between atoms: C1_6  and  N3_7 
REMARK    3  A    between atoms: N3_7  and  O1_8 
REMARK    4  A    between atoms: N3_7  and  S1_10 
REMARK    5  A    between atoms: S1_10  and  N4_13 
REMARK    6  A    between atoms: C10_29  and  C11_30 
REMARK    7  A    between atoms: C11_30  and  O4_31 
ROOT
HETATM    1  N4  UNL     1      39.120  37.261  34.047  1.00  0.00    -0.271 N 
ATOM      2  H4  UNL     1      38.939  37.271  33.044  1.00  0.00     0.180 HD
HETATM    3  C2  UNL     1      39.926  38.156  34.409  1.00  0.00     0.024 C 
HETATM    4  C3  UNL     1      40.311  38.306  35.807  1.00  0.00     0.060 C 
HETATM    5  C4  UNL     1      39.965  39.625  36.455  1.00  0.00     0.050 C 
HETATM    6  C5  UNL     1      40.627  39.616  37.784  1.00  0.00     0.061 C 
HETATM    7  N5  UNL     1      41.708  40.039  38.061  1.00  0.00    -0.378 N 
ATOM      8  H5  UNL     1      41.826  39.862  39.058  1.00  0.00     0.164 HD
HETATM    9  C6  UNL     1      42.869  40.657  37.655  1.00  0.00     0.103 C 
HETATM   10  C7  UNL     1      42.652  41.698  36.629  1.00  0.00     0.100 C 
HETATM   11  N6  UNL     1      42.969  41.451  35.292  1.00  0.00    -0.396 N 
ATOM     12  H6  UNL     1      42.766  42.173  34.601  1.00  0.00     0.158 HD
HETATM   13  C8  UNL     1      43.555  40.257  34.859  1.00  0.00     0.138 C 
HETATM   14  C9  UNL     1      42.827  39.652  33.635  1.00  0.00     0.134 C 
HETATM   15  N7  UNL     1      41.455  39.918  33.821  1.00  0.00    -0.409 N 
ATOM     16  H7  UNL     1      41.168  40.752  34.333  1.00  0.00     0.154 HD
HETATM   17  C10 UNL     1      40.484  39.054  33.314  1.00  0.00     0.147 C 
ENDROOT
BRANCH   1  18
HETATM   18  S1  UNL     1      38.287  36.071  34.842  1.00  0.00     0.348 S 
HETATM   19  O2  UNL     1      37.918  36.527  36.260  1.00  0.00    -0.180 OA
HETATM   20  O3  UNL     1      37.006  35.616  34.204  1.00  0.00    -0.180 OA
BRANCH  18  21
HETATM   21  N3  UNL     1      39.272  34.674  35.076  1.00  0.00    -0.125 N 
BRANCH  21  22
HETATM   22  C1  UNL     1      40.089  34.596  36.219  1.00  0.00     0.243 C 
HETATM   23  N2  UNL     1      41.136  33.858  36.303  1.00  0.00    -0.300 N 
ATOM     24  H2  UNL     1      41.677  33.856  37.168  1.00  0.00     0.187 HD
BRANCH  23  25
HETATM   25  N1  UNL     1      41.545  33.071  35.253  1.00  0.00    -0.344 N 
ATOM     26  H12 UNL     1      40.978  33.066  34.405  1.00  0.00     0.176 HD
ATOM     27  H11 UNL     1      42.391  32.504  35.311  1.00  0.00     0.176 HD
ENDBRANCH  23  25
ENDBRANCH  21  22
BRANCH  21  28
HETATM   28  O1  UNL     1      39.270  33.666  34.186  1.00  0.00    -0.271 OA
ATOM     29  H1  UNL     1      38.461  33.203  33.999  1.00  0.00     0.246 HD
ENDBRANCH  21  28
ENDBRANCH  18  21
ENDBRANCH   1  18
BRANCH  17  30
HETATM   30  C11 UNL     1      40.923  38.165  32.175  1.00  0.00     0.194 C 
BRANCH  30  31
HETATM   31  O4  UNL     1      39.945  38.062  31.189  1.00  0.00    -0.398 OA
ATOM     32  H4  UNL     1      40.112  38.650  30.461  1.00  0.00     0.209 HD
ENDBRANCH  30  31
ENDBRANCH  17  30
TORSDOF 7
ENDMDL
MODEL 4
REMARK VINA RESULT: -6.657299782      3.122      5.664
REMARK  7 active torsions:
REMARK  status: ('A' for Active; 'I' for Inactive)
REMARK    1  A    between atoms: N1_1  and  N2_4 
REMARK    2  A    between atoms: C1_6  and  N3_7 
REMARK    3  A    between atoms: N3_7  and  O1_8 
REMARK    4  A    between atoms: N3_7  and  S1_10 
REMARK    5  A    between atoms: S1_10  and  N4_13 
REMARK    6  A    between atoms: C10_29  and  C11_30 
REMARK    7  A    between atoms: C11_30  and  O4_31 
ROOT
HETATM    1  N4  UNL     1      38.786  37.341  35.274  1.00  0.00    -0.271 N 
ATOM      2  H4  UNL     1      37.894  37.088  34.849  1.00  0.00     0.180 HD
HETATM    3  C2  UNL     1      39.128  38.526  35.030  1.00  0.00     0.024 C 
HETATM    4  C3  UNL     1      40.373  39.077  35.549  1.00  0.00     0.060 C 
HETATM    5  C4  UNL     1      40.242  40.263  36.474  1.00  0.00     0.050 C 
HETATM    6  C5  UNL     1      41.622  40.761  36.702  1.00  0.00     0.061 C 
HETATM    7  N5  UNL     1      42.199  41.608  36.090  1.00  0.00    -0.378 N 
ATOM      8  H5  UNL     1      43.118  41.684  36.526  1.00  0.00     0.164 HD
HETATM    9  C6  UNL     1      42.196  42.530  35.068  1.00  0.00     0.103 C 
HETATM   10  C7  UNL     1      40.888  43.193  34.880  1.00  0.00     0.100 C 
HETATM   11  N6  UNL     1      40.060  42.834  33.816  1.00  0.00    -0.396 N 
ATOM     12  H6  UNL     1      39.145  43.277  33.740  1.00  0.00     0.158 HD
HETATM   13  C8  UNL     1      40.430  41.893  32.849  1.00  0.00     0.138 C 
HETATM   14  C9  UNL     1      39.329  40.834  32.603  1.00  0.00     0.134 C 
HETATM   15  N7  UNL     1      38.731  40.589  33.857  1.00  0.00    -0.409 N 
ATOM     16  H7  UNL     1      38.698  41.333  34.554  1.00  0.00     0.154 HD
HETATM   17  C10 UNL     1      38.184  39.341  34.156  1.00  0.00     0.147 C 
ENDROOT
BRANCH   1  18
HETATM   18  S1  UNL     1      39.466  36.100  36.133  1.00  0.00     0.348 S 
HETATM   19  O2  UNL     1      40.924  36.425  36.486  1.00  0.00    -0.180 OA
HETATM   20  O3  UNL     1      38.795  35.740  37.427  1.00  0.00    -0.180 OA
BRANCH  18  21
HETATM   21  N3  UNL     1      39.557  34.664  35.181  1.00  0.00    -0.125 N 
BRANCH  21  22
HETATM   22  C1  UNL     1      40.764  33.940  35.148  1.00  0.00     0.243 C 
HETATM   23  N2  UNL     1      41.272  33.345  36.166  1.00  0.00    -0.300 N 
ATOM     24  H2  UNL     1      42.151  32.839  36.061  1.00  0.00     0.187 HD
BRANCH  23  25
HETATM   25  N1  UNL     1      40.656  33.375  37.394  1.00  0.00    -0.344 N 
ATOM     26  H12 UNL     1      40.164  32.538  37.708  1.00  0.00     0.176 HD
ATOM     27  H11 UNL     1      40.684  34.207  37.983  1.00  0.00     0.176 HD
ENDBRANCH  23  25
ENDBRANCH  21  22
BRANCH  21  28
HETATM   28  O1  UNL     1      38.497  34.228  34.477  1.00  0.00    -0.271 OA
ATOM     29  H1  UNL     1      38.453  33.319  34.204  1.00  0.00     0.246 HD
ENDBRANCH  21  28
ENDBRANCH  18  21
ENDBRANCH   1  18
BRANCH  17  30
HETATM   30  C11 UNL     1      37.808  38.485  32.970  1.00  0.00     0.194 C 
BRANCH  30  31
HETATM   31  O4  UNL     1      36.639  37.764  33.199  1.00  0.00    -0.398 OA
ATOM     32  H4  UNL     1      36.310  37.359  32.405  1.00  0.00     0.209 HD
ENDBRANCH  30  31
ENDBRANCH  17  30
TORSDOF 7
ENDMDL
MODEL 5
REMARK VINA RESULT: -6.593602696      3.065      5.714
REMARK  7 active torsions:
REMARK  status: ('A' for Active; 'I' for Inactive)
REMARK    1  A    between atoms: N1_1  and  N2_4 
REMARK    2  A    between atoms: C1_6  and  N3_7 
REMARK    3  A    between atoms: N3_7  and  O1_8 
REMARK    4  A    between atoms: N3_7  and  S1_10 
REMARK    5  A    between atoms: S1_10  and  N4_13 
REMARK    6  A    between atoms: C10_29  and  C11_30 
REMARK    7  A    between atoms: C11_30  and  O4_31 
ROOT
HETATM    1  N4  UNL     1      39.277  36.670  35.749  1.00  0.00    -0.271 N 
ATOM      2  H4  UNL     1      38.486  36.242  35.270  1.00  0.00     0.180 HD
HETATM    3  C2  UNL     1      39.463  37.868  35.416  1.00  0.00     0.024 C 
HETATM    4  C3  UNL     1      40.546  38.654  35.993  1.00  0.00     0.060 C 
HETATM    5  C4  UNL     1      40.138  39.881  36.771  1.00  0.00     0.050 C 
HETATM    6  C5  UNL     1      41.394  40.612  37.077  1.00  0.00     0.061 C 
HETATM    7  N5  UNL     1      41.902  41.483  36.438  1.00  0.00    -0.378 N 
ATOM      8  H5  UNL     1      42.746  41.742  36.949  1.00  0.00     0.164 HD
HETATM    9  C6  UNL     1      41.875  42.299  35.330  1.00  0.00     0.103 C 
HETATM   10  C7  UNL     1      40.512  42.724  34.949  1.00  0.00     0.100 C 
HETATM   11  N6  UNL     1      39.870  42.145  33.854  1.00  0.00    -0.396 N 
ATOM     12  H6  UNL     1      38.912  42.428  33.644  1.00  0.00     0.158 HD
HETATM   13  C8  UNL     1      40.481  41.194  33.031  1.00  0.00     0.138 C 
HETATM   14  C9  UNL     1      39.585  39.955  32.792  1.00  0.00     0.134 C 
HETATM   15  N7  UNL     1      38.895  39.730  34.002  1.00  0.00    -0.409 N 
ATOM     16  H7  UNL     1      38.674  40.517  34.610  1.00  0.00     0.154 HD
HETATM   17  C10 UNL     1      38.510  38.442  34.375  1.00  0.00     0.147 C 
ENDROOT
BRANCH   1  18
HETATM   18  S1  UNL     1      40.036  35.634  36.795  1.00  0.00     0.348 S 
HETATM   19  O2  UNL     1      41.371  36.227  37.265  1.00  0.00    -0.180 OA
HETATM   20  O3  UNL     1      39.279  35.274  38.041  1.00  0.00    -0.180 OA
BRANCH  18  21
HETATM   21  N3  UNL     1      40.465  34.161  36.006  1.00  0.00    -0.125 N 
BRANCH  21  22
HETATM   22  C1  UNL     1      39.742  33.759  34.868  1.00  0.00     0.243 C 
HETATM   23  N2  UNL     1      39.229  32.591  34.719  1.00  0.00    -0.300 N 
ATOM     24  H2  UNL     1      38.718  32.376  33.863  1.00  0.00     0.187 HD
BRANCH  23  25
HETATM   25  N1  UNL     1      39.354  31.625  35.689  1.00  0.00    -0.344 N 
ATOM     26  H12 UNL     1      39.053  31.851  36.638  1.00  0.00     0.176 HD
ATOM     27  H11 UNL     1      39.737  30.704  35.476  1.00  0.00     0.176 HD
ENDBRANCH  23  25
ENDBRANCH  21  22
BRANCH  21  28
HETATM   28  O1  UNL     1      41.475  33.398  36.461  1.00  0.00    -0.271 OA
ATOM     29  H1  UNL     1      41.455  33.072  37.354  1.00  0.00     0.246 HD
ENDBRANCH  21  28
ENDBRANCH  18  21
ENDBRANCH   1  18
BRANCH  17  30
HETATM   30  C11 UNL     1      38.401  37.435  33.256  1.00  0.00     0.194 C 
BRANCH  30  31
HETATM   31  O4  UNL     1      37.355  36.539  33.463  1.00  0.00    -0.398 OA
ATOM     32  H4  UNL     1      36.846  36.760  34.234  1.00  0.00     0.209 HD
ENDBRANCH  30  31
ENDBRANCH  17  30
TORSDOF 7
ENDMDL
