MODEL 1
REMARK VINA RESULT: -6.842404530      0.000      0.000
REMARK  6 active torsions:
REMARK  status: ('A' for Active; 'I' for Inactive)
REMARK    1  A    between atoms: C3_5  and  O1_6 
REMARK    2  A    between atoms: O1_6  and  C4_7 
REMARK    3  A    between atoms: C4_7  and  C5_8 
REMARK    4  A    between atoms: C5_8  and  C6_9 
REMARK    5  A    between atoms: C13_16  and  C14_17 
REMARK    6  A    between atoms: C14_17  and  C15_18 
ROOT
HETATM    1  C1  UNL     1     -23.039 151.440  56.152  1.00  0.00     0.097 A 
HETATM    2  N1  UNL     1     -22.871 150.928  54.935  1.00  0.00    -0.372 N 
ATOM      3  H1  UNL     1     -21.985 150.908  54.431  1.00  0.00     0.164 HD
HETATM    4  C2  UNL     1     -24.024 150.445  54.468  1.00  0.00     0.124 A 
HETATM    5  C3  UNL     1     -24.976 150.657  55.426  1.00  0.00     0.091 A 
HETATM    6  C13 UNL     1     -24.379 151.283  56.500  1.00  0.00    -0.008 A 
ENDROOT
BRANCH   5   7
HETATM    7  O1  UNL     1     -26.291 150.301  55.317  1.00  0.00    -0.349 OA
BRANCH   7   8
HETATM    8  C4  UNL     1     -26.976 149.189  55.727  1.00  0.00     0.176 C 
BRANCH   8   9
HETATM    9  C5  UNL     1     -28.337 149.448  56.341  1.00  0.00     0.032 C 
BRANCH   9  10
HETATM   10  C6  UNL     1     -28.517 150.937  56.346  1.00  0.00    -0.008 C 
HETATM   11  C7  UNL     1     -28.751 151.510  57.727  1.00  0.00     0.010 C 
HETATM   12  C8  UNL     1     -29.817 152.565  57.557  1.00  0.00    -0.014 C 
HETATM   13  C9  UNL     1     -31.137 151.866  57.479  1.00  0.00     0.005 C 
HETATM   14  C12 UNL     1     -29.628 152.925  56.070  1.00  0.00     0.009 C 
HETATM   15  C10 UNL     1     -30.960 151.025  56.207  1.00  0.00     0.005 C 
HETATM   16  C11 UNL     1     -29.679 151.459  55.580  1.00  0.00    -0.010 C 
ENDBRANCH   9  10
ENDBRANCH   8   9
ENDBRANCH   7   8
ENDBRANCH   5   7
BRANCH   6  17
HETATM   17  C14 UNL     1     -24.892 151.717  57.807  1.00  0.00     0.047 C 
BRANCH  17  18
HETATM   18  C15 UNL     1     -25.690 152.960  57.741  1.00  0.00    -0.010 A 
HETATM   19  C16 UNL     1     -25.045 154.281  57.676  1.00  0.00     0.005 A 
HETATM   20  C17 UNL     1     -25.921 153.870  58.885  1.00  0.00     0.005 A 
ENDBRANCH  17  18
ENDBRANCH   6  17
TORSDOF 6
ENDMDL
MODEL 2
REMARK VINA RESULT: -6.656348495      1.604      2.492
REMARK  6 active torsions:
REMARK  status: ('A' for Active; 'I' for Inactive)
REMARK    1  A    between atoms: C3_5  and  O1_6 
REMARK    2  A    between atoms: O1_6  and  C4_7 
REMARK    3  A    between atoms: C4_7  and  C5_8 
REMARK    4  A    between atoms: C5_8  and  C6_9 
REMARK    5  A    between atoms: C13_16  and  C14_17 
REMARK    6  A    between atoms: C14_17  and  C15_18 
ROOT
HETATM    1  C1  UNL     1     -24.174 151.353  56.725  1.00  0.00     0.097 A 
HETATM    2  N1  UNL     1     -24.508 150.572  55.700  1.00  0.00    -0.372 N 
ATOM      3  H1  UNL     1     -23.860 150.245  54.983  1.00  0.00     0.164 HD
HETATM    4  C2  UNL     1     -25.809 150.277  55.740  1.00  0.00     0.124 A 
HETATM    5  C3  UNL     1     -26.335 150.895  56.839  1.00  0.00     0.091 A 
HETATM    6  C13 UNL     1     -25.323 151.580  57.478  1.00  0.00    -0.008 A 
ENDROOT
BRANCH   5   7
HETATM    7  O1  UNL     1     -27.647 150.834  57.221  1.00  0.00    -0.349 OA
BRANCH   7   8
HETATM    8  C4  UNL     1     -28.812 150.870  56.504  1.00  0.00     0.176 C 
BRANCH   8   9
HETATM    9  C5  UNL     1     -29.422 152.244  56.316  1.00  0.00     0.032 C 
BRANCH   9  10
HETATM   10  C6  UNL     1     -30.130 152.566  57.597  1.00  0.00    -0.008 C 
HETATM   11  C7  UNL     1     -31.637 152.468  57.492  1.00  0.00     0.010 C 
HETATM   12  C8  UNL     1     -32.178 153.641  58.272  1.00  0.00    -0.014 C 
HETATM   13  C9  UNL     1     -32.065 154.853  57.404  1.00  0.00     0.005 C 
HETATM   14  C12 UNL     1     -31.008 153.906  59.239  1.00  0.00     0.009 C 
HETATM   15  C10 UNL     1     -30.544 154.948  57.214  1.00  0.00     0.005 C 
HETATM   16  C11 UNL     1     -29.934 153.941  58.127  1.00  0.00    -0.010 C 
ENDBRANCH   9  10
ENDBRANCH   8   9
ENDBRANCH   7   8
ENDBRANCH   5   7
BRANCH   6  17
HETATM   17  C14 UNL     1     -25.292 152.384  58.708  1.00  0.00     0.047 C 
BRANCH  17  18
HETATM   18  C15 UNL     1     -26.268 153.495  58.710  1.00  0.00    -0.010 A 
HETATM   19  C16 UNL     1     -26.147 154.621  57.770  1.00  0.00     0.005 A 
HETATM   20  C17 UNL     1     -26.019 154.829  59.298  1.00  0.00     0.005 A 
ENDBRANCH  17  18
ENDBRANCH   6  17
TORSDOF 6
ENDMDL
MODEL 3
REMARK VINA RESULT: -6.482524368      3.274      5.592
REMARK  6 active torsions:
REMARK  status: ('A' for Active; 'I' for Inactive)
REMARK    1  A    between atoms: C3_5  and  O1_6 
REMARK    2  A    between atoms: O1_6  and  C4_7 
REMARK    3  A    between atoms: C4_7  and  C5_8 
REMARK    4  A    between atoms: C5_8  and  C6_9 
REMARK    5  A    between atoms: C13_16  and  C14_17 
REMARK    6  A    between atoms: C14_17  and  C15_18 
ROOT
HETATM    1  C1  UNL     1     -25.880 151.751  57.797  1.00  0.00     0.097 A 
HETATM    2  N1  UNL     1     -24.588 152.027  57.963  1.00  0.00    -0.372 N 
ATOM      3  H1  UNL     1     -24.198 152.526  58.762  1.00  0.00     0.164 HD
HETATM    4  C2  UNL     1     -23.875 151.559  56.936  1.00  0.00     0.124 A 
HETATM    5  C3  UNL     1     -24.747 150.957  56.072  1.00  0.00     0.091 A 
HETATM    6  C13 UNL     1     -26.018 151.064  56.594  1.00  0.00    -0.008 A 
ENDROOT
BRANCH   5   7
HETATM    7  O1  UNL     1     -24.395 150.357  54.895  1.00  0.00    -0.349 OA
BRANCH   7   8
HETATM    8  C4  UNL     1     -24.120 150.866  53.655  1.00  0.00     0.176 C 
BRANCH   8   9
HETATM    9  C5  UNL     1     -25.195 150.656  52.608  1.00  0.00     0.032 C 
BRANCH   9  10
HETATM   10  C6  UNL     1     -24.693 151.311  51.356  1.00  0.00    -0.008 C 
HETATM   11  C7  UNL     1     -25.043 152.781  51.264  1.00  0.00     0.010 C 
HETATM   12  C8  UNL     1     -25.432 153.019  49.825  1.00  0.00    -0.014 C 
HETATM   13  C9  UNL     1     -26.837 152.537  49.650  1.00  0.00     0.005 C 
HETATM   14  C12 UNL     1     -24.677 151.868  49.130  1.00  0.00     0.009 C 
HETATM   15  C10 UNL     1     -26.685 151.041  49.959  1.00  0.00     0.005 C 
HETATM   16  C11 UNL     1     -25.223 150.773  50.076  1.00  0.00    -0.010 C 
ENDBRANCH   9  10
ENDBRANCH   8   9
ENDBRANCH   7   8
ENDBRANCH   5   7
BRANCH   6  17
HETATM   17  C14 UNL     1     -27.326 150.581  56.128  1.00  0.00     0.047 C 
BRANCH  17  18
HETATM   18  C15 UNL     1     -28.467 151.193  56.844  1.00  0.00    -0.010 A 
HETATM   19  C16 UNL     1     -29.855 150.954  56.417  1.00  0.00     0.005 A 
HETATM   20  C17 UNL     1     -29.226 152.368  56.363  1.00  0.00     0.005 A 
ENDBRANCH  17  18
ENDBRANCH   6  17
TORSDOF 6
ENDMDL
MODEL 4
REMARK VINA RESULT: -6.416951669      1.953      4.916
REMARK  6 active torsions:
REMARK  status: ('A' for Active; 'I' for Inactive)
REMARK    1  A    between atoms: C3_5  and  O1_6 
REMARK    2  A    between atoms: O1_6  and  C4_7 
REMARK    3  A    between atoms: C4_7  and  C5_8 
REMARK    4  A    between atoms: C5_8  and  C6_9 
REMARK    5  A    between atoms: C13_16  and  C14_17 
REMARK    6  A    between atoms: C14_17  and  C15_18 
ROOT
HETATM    1  C1  UNL     1     -29.671 149.460  56.254  1.00  0.00     0.097 A 
HETATM    2  N1  UNL     1     -28.838 148.439  56.068  1.00  0.00    -0.372 N 
ATOM      3  H1  UNL     1     -29.121 147.462  55.999  1.00  0.00     0.164 HD
HETATM    4  C2  UNL     1     -27.578 148.874  55.984  1.00  0.00     0.124 A 
HETATM    5  C3  UNL     1     -27.604 150.233  56.124  1.00  0.00     0.091 A 
HETATM    6  C13 UNL     1     -28.913 150.628  56.295  1.00  0.00    -0.008 A 
ENDROOT
BRANCH   5   7
HETATM    7  O1  UNL     1     -26.504 151.045  56.097  1.00  0.00    -0.349 OA
BRANCH   7   8
HETATM    8  C4  UNL     1     -25.348 151.045  56.829  1.00  0.00     0.176 C 
BRANCH   8   9
HETATM    9  C5  UNL     1     -24.494 152.290  56.704  1.00  0.00     0.032 C 
BRANCH   9  10
HETATM   10  C6  UNL     1     -24.709 153.074  57.964  1.00  0.00    -0.008 C 
HETATM   11  C7  UNL     1     -25.672 152.412  58.926  1.00  0.00     0.010 C 
HETATM   12  C8  UNL     1     -26.521 153.526  59.486  1.00  0.00    -0.014 C 
HETATM   13  C9  UNL     1     -27.563 153.857  58.465  1.00  0.00     0.005 C 
HETATM   14  C12 UNL     1     -25.579 154.730  59.291  1.00  0.00     0.009 C 
HETATM   15  C10 UNL     1     -26.696 154.336  57.292  1.00  0.00     0.005 C 
HETATM   16  C11 UNL     1     -25.298 154.428  57.800  1.00  0.00    -0.010 C 
ENDBRANCH   9  10
ENDBRANCH   8   9
ENDBRANCH   7   8
ENDBRANCH   5   7
BRANCH   6  17
HETATM   17  C14 UNL     1     -29.539 151.947  56.456  1.00  0.00     0.047 C 
BRANCH  17  18
HETATM   18  C15 UNL     1     -30.548 151.991  57.537  1.00  0.00    -0.010 A 
HETATM   19  C16 UNL     1     -31.986 152.088  57.238  1.00  0.00     0.005 A 
HETATM   20  C17 UNL     1     -31.240 153.218  57.989  1.00  0.00     0.005 A 
ENDBRANCH  17  18
ENDBRANCH   6  17
TORSDOF 6
ENDMDL
MODEL 5
REMARK VINA RESULT: -6.387613892      3.292      5.669
REMARK  6 active torsions:
REMARK  status: ('A' for Active; 'I' for Inactive)
REMARK    1  A    between atoms: C3_5  and  O1_6 
REMARK    2  A    between atoms: O1_6  and  C4_7 
REMARK    3  A    between atoms: C4_7  and  C5_8 
REMARK    4  A    between atoms: C5_8  and  C6_9 
REMARK    5  A    between atoms: C13_16  and  C14_17 
REMARK    6  A    between atoms: C14_17  and  C15_18 
ROOT
HETATM    1  C1  UNL     1     -25.726 151.776  57.646  1.00  0.00     0.097 A 
HETATM    2  N1  UNL     1     -24.438 152.097  57.742  1.00  0.00    -0.372 N 
ATOM      3  H1  UNL     1     -24.033 152.660  58.490  1.00  0.00     0.164 HD
HETATM    4  C2  UNL     1     -23.750 151.580  56.722  1.00  0.00     0.124 A 
HETATM    5  C3  UNL     1     -24.634 150.897  55.935  1.00  0.00     0.091 A 
HETATM    6  C13 UNL     1     -25.889 151.005  56.498  1.00  0.00    -0.008 A 
ENDROOT
BRANCH   5   7
HETATM    7  O1  UNL     1     -24.309 150.228  54.788  1.00  0.00    -0.349 OA
BRANCH   7   8
HETATM    8  C4  UNL     1     -24.913 150.167  53.561  1.00  0.00     0.176 C 
BRANCH   8   9
HETATM    9  C5  UNL     1     -24.533 151.265  52.589  1.00  0.00     0.032 C 
BRANCH   9  10
HETATM   10  C6  UNL     1     -25.692 151.412  51.649  1.00  0.00    -0.008 C 
HETATM   11  C7  UNL     1     -25.729 150.350  50.571  1.00  0.00     0.010 C 
HETATM   12  C8  UNL     1     -26.132 151.067  49.306  1.00  0.00    -0.014 C 
HETATM   13  C9  UNL     1     -24.918 151.756  48.770  1.00  0.00     0.005 C 
HETATM   14  C12 UNL     1     -26.880 152.281  49.891  1.00  0.00     0.009 C 
HETATM   15  C10 UNL     1     -24.602 152.740  49.906  1.00  0.00     0.005 C 
HETATM   16  C11 UNL     1     -25.742 152.672  50.863  1.00  0.00    -0.010 C 
ENDBRANCH   9  10
ENDBRANCH   8   9
ENDBRANCH   7   8
ENDBRANCH   5   7
BRANCH   6  17
HETATM   17  C14 UNL     1     -27.198 150.456  56.117  1.00  0.00     0.047 C 
BRANCH  17  18
HETATM   18  C15 UNL     1     -28.328 151.072  56.847  1.00  0.00    -0.010 A 
HETATM   19  C16 UNL     1     -29.721 150.843  56.433  1.00  0.00     0.005 A 
HETATM   20  C17 UNL     1     -29.085 152.253  56.377  1.00  0.00     0.005 A 
ENDBRANCH  17  18
ENDBRANCH   6  17
TORSDOF 6
ENDMDL
