MODEL 1
REMARK VINA RESULT: -7.620107507      0.000      0.000
REMARK  6 active torsions:
REMARK  status: ('A' for Active; 'I' for Inactive)
REMARK    1  A    between atoms: C2_2  and  C4_4 
REMARK    2  A    between atoms: C4_4  and  C5_5 
REMARK    3  A    between atoms: C5_5  and  N1_6 
REMARK    4  A    between atoms: C5_5  and  C14_17 
REMARK       I    between atoms: N1_6  and  C6_8 
REMARK    5  A    between atoms: C6_8  and  C7_10 
REMARK    6  A    between atoms: C7_10  and  C8_11 
ROOT
HETATM    1  N1  UNL     1     -26.814 151.389  56.475  1.00  0.00    -0.356 N 
ATOM      2  H1  UNL     1     -26.689 152.005  55.673  1.00  0.00     0.162 HD
HETATM    3  C6  UNL     1     -28.110 150.887  56.721  1.00  0.00     0.218 C 
HETATM    4  O1  UNL     1     -28.302 150.128  57.697  1.00  0.00    -0.274 OA
ENDROOT
BRANCH   1   5
HETATM    5  C5  UNL     1     -25.658 151.090  57.279  1.00  0.00     0.088 C 
BRANCH   5   6
HETATM    6  C4  UNL     1     -25.202 152.258  58.078  1.00  0.00     0.029 C 
BRANCH   6   7
HETATM    7  C2  UNL     1     -25.822 153.578  57.784  1.00  0.00    -0.021 C 
HETATM    8  C1  UNL     1     -24.938 154.630  57.198  1.00  0.00     0.009 C 
HETATM    9  C3  UNL     1     -26.358 154.134  59.120  1.00  0.00     0.009 C 
ENDBRANCH   6   7
ENDBRANCH   5   6
BRANCH   5  10
HETATM   10  C14 UNL     1     -24.548 150.584  56.361  1.00  0.00     0.000 C 
HETATM   11  C15 UNL     1     -23.361 151.495  56.420  1.00  0.00     0.011 C 
HETATM   12  C16 UNL     1     -25.032 150.401  54.960  1.00  0.00     0.011 C 
ENDBRANCH   5  10
ENDBRANCH   1   5
BRANCH   3  13
HETATM   13  C7  UNL     1     -29.215 151.252  55.845  1.00  0.00     0.107 C 
BRANCH  13  14
HETATM   14  C8  UNL     1     -30.113 152.321  56.425  1.00  0.00    -0.006 C 
HETATM   15  C9  UNL     1     -29.369 153.375  57.151  1.00  0.00     0.005 C 
HETATM   16  C10 UNL     1     -29.993 153.833  58.432  1.00  0.00     0.000 C 
HETATM   17  C11 UNL     1     -31.489 153.825  58.429  1.00  0.00     0.000 C 
HETATM   18  C12 UNL     1     -32.106 152.567  57.932  1.00  0.00     0.000 C 
HETATM   19  C13 UNL     1     -31.181 151.640  57.227  1.00  0.00     0.005 C 
ENDBRANCH  13  14
ENDBRANCH   3  13
TORSDOF 6
ENDMDL
MODEL 2
REMARK VINA RESULT: -7.510085337      0.781      1.462
REMARK  6 active torsions:
REMARK  status: ('A' for Active; 'I' for Inactive)
REMARK    1  A    between atoms: C2_2  and  C4_4 
REMARK    2  A    between atoms: C4_4  and  C5_5 
REMARK    3  A    between atoms: C5_5  and  N1_6 
REMARK    4  A    between atoms: C5_5  and  C14_17 
REMARK       I    between atoms: N1_6  and  C6_8 
REMARK    5  A    between atoms: C6_8  and  C7_10 
REMARK    6  A    between atoms: C7_10  and  C8_11 
ROOT
HETATM    1  N1  UNL     1     -26.690 151.009  56.050  1.00  0.00    -0.356 N 
ATOM      2  H1  UNL     1     -26.734 151.647  55.256  1.00  0.00     0.162 HD
HETATM    3  C6  UNL     1     -27.904 150.655  56.677  1.00  0.00     0.218 C 
HETATM    4  O1  UNL     1     -27.888 149.875  57.653  1.00  0.00    -0.274 OA
ENDROOT
BRANCH   1   5
HETATM    5  C5  UNL     1     -25.394 150.532  56.455  1.00  0.00     0.088 C 
BRANCH   5   6
HETATM    6  C4  UNL     1     -24.682 151.493  57.337  1.00  0.00     0.029 C 
BRANCH   6   7
HETATM    7  C2  UNL     1     -25.363 152.779  57.647  1.00  0.00    -0.021 C 
HETATM    8  C1  UNL     1     -24.587 154.034  57.414  1.00  0.00     0.009 C 
HETATM    9  C3  UNL     1     -25.730 152.747  59.145  1.00  0.00     0.009 C 
ENDBRANCH   6   7
ENDBRANCH   5   6
BRANCH   5  10
HETATM   10  C14 UNL     1     -24.577 150.225  55.201  1.00  0.00     0.000 C 
HETATM   11  C15 UNL     1     -23.363 151.100  55.139  1.00  0.00     0.011 C 
HETATM   12  C16 UNL     1     -25.404 150.342  53.963  1.00  0.00     0.011 C 
ENDBRANCH   5  10
ENDBRANCH   1   5
BRANCH   3  13
HETATM   13  C7  UNL     1     -29.165 151.196  56.188  1.00  0.00     0.107 C 
BRANCH  13  14
HETATM   14  C8  UNL     1     -29.998 151.846  57.269  1.00  0.00    -0.006 C 
HETATM   15  C9  UNL     1     -31.434 151.495  57.189  1.00  0.00     0.005 C 
HETATM   16  C10 UNL     1     -32.385 152.623  57.437  1.00  0.00     0.000 C 
HETATM   17  C11 UNL     1     -31.904 153.630  58.435  1.00  0.00     0.000 C 
HETATM   18  C12 UNL     1     -30.516 154.114  58.215  1.00  0.00     0.000 C 
HETATM   19  C13 UNL     1     -29.709 153.316  57.252  1.00  0.00     0.005 C 
ENDBRANCH  13  14
ENDBRANCH   3  13
TORSDOF 6
ENDMDL
MODEL 3
REMARK VINA RESULT: -7.037509636      1.400      5.995
REMARK  6 active torsions:
REMARK  status: ('A' for Active; 'I' for Inactive)
REMARK    1  A    between atoms: C2_2  and  C4_4 
REMARK    2  A    between atoms: C4_4  and  C5_5 
REMARK    3  A    between atoms: C5_5  and  N1_6 
REMARK    4  A    between atoms: C5_5  and  C14_17 
REMARK       I    between atoms: N1_6  and  C6_8 
REMARK    5  A    between atoms: C6_8  and  C7_10 
REMARK    6  A    between atoms: C7_10  and  C8_11 
ROOT
HETATM    1  N1  UNL     1     -27.951 151.240  56.424  1.00  0.00    -0.356 N 
ATOM      2  H1  UNL     1     -27.273 151.932  56.107  1.00  0.00     0.162 HD
HETATM    3  C6  UNL     1     -27.668 149.880  56.173  1.00  0.00     0.218 C 
HETATM    4  O1  UNL     1     -28.477 149.004  56.547  1.00  0.00    -0.274 OA
ENDROOT
BRANCH   1   5
HETATM    5  C5  UNL     1     -29.130 151.717  57.098  1.00  0.00     0.088 C 
BRANCH   5   6
HETATM    6  C4  UNL     1     -30.241 152.018  56.158  1.00  0.00     0.029 C 
BRANCH   6   7
HETATM    7  C2  UNL     1     -31.569 151.410  56.444  1.00  0.00    -0.021 C 
HETATM    8  C1  UNL     1     -32.098 151.552  57.834  1.00  0.00     0.009 C 
HETATM    9  C3  UNL     1     -31.445 149.899  56.161  1.00  0.00     0.009 C 
ENDBRANCH   6   7
ENDBRANCH   5   6
BRANCH   5  10
HETATM   10  C14 UNL     1     -28.754 152.948  57.920  1.00  0.00     0.000 C 
HETATM   11  C15 UNL     1     -29.617 154.113  57.544  1.00  0.00     0.011 C 
HETATM   12  C16 UNL     1     -27.302 153.274  57.791  1.00  0.00     0.011 C 
ENDBRANCH   5  10
ENDBRANCH   1   5
BRANCH   3  13
HETATM   13  C7  UNL     1     -26.443 149.503  55.481  1.00  0.00     0.107 C 
BRANCH  13  14
HETATM   14  C8  UNL     1     -25.390 150.588  55.492  1.00  0.00    -0.006 C 
HETATM   15  C9  UNL     1     -24.433 150.483  54.368  1.00  0.00     0.005 C 
HETATM   16  C10 UNL     1     -23.002 150.743  54.717  1.00  0.00     0.000 C 
HETATM   17  C11 UNL     1     -22.803 151.767  55.789  1.00  0.00     0.000 C 
HETATM   18  C12 UNL     1     -23.643 151.575  57.001  1.00  0.00     0.000 C 
HETATM   19  C13 UNL     1     -24.761 150.605  56.852  1.00  0.00     0.005 C 
ENDBRANCH  13  14
ENDBRANCH   3  13
TORSDOF 6
ENDMDL
MODEL 4
REMARK VINA RESULT: -6.980922311      1.063      5.422
REMARK  6 active torsions:
REMARK  status: ('A' for Active; 'I' for Inactive)
REMARK    1  A    between atoms: C2_2  and  C4_4 
REMARK    2  A    between atoms: C4_4  and  C5_5 
REMARK    3  A    between atoms: C5_5  and  N1_6 
REMARK    4  A    between atoms: C5_5  and  C14_17 
REMARK       I    between atoms: N1_6  and  C6_8 
REMARK    5  A    between atoms: C6_8  and  C7_10 
REMARK    6  A    between atoms: C7_10  and  C8_11 
ROOT
HETATM    1  N1  UNL     1     -27.480 152.109  56.901  1.00  0.00    -0.356 N 
ATOM      2  H1  UNL     1     -26.905 152.632  56.241  1.00  0.00     0.162 HD
HETATM    3  C6  UNL     1     -27.624 150.722  56.691  1.00  0.00     0.218 C 
HETATM    4  O1  UNL     1     -28.321 150.048  57.481  1.00  0.00    -0.274 OA
ENDROOT
BRANCH   1   5
HETATM    5  C5  UNL     1     -28.088 152.838  57.984  1.00  0.00     0.088 C 
BRANCH   5   6
HETATM    6  C4  UNL     1     -29.237 153.669  57.537  1.00  0.00     0.029 C 
BRANCH   6   7
HETATM    7  C2  UNL     1     -30.555 153.426  58.183  1.00  0.00    -0.021 C 
HETATM    8  C1  UNL     1     -31.405 152.341  57.608  1.00  0.00     0.009 C 
HETATM    9  C3  UNL     1     -31.361 154.736  58.074  1.00  0.00     0.009 C 
ENDBRANCH   6   7
ENDBRANCH   5   6
BRANCH   5  10
HETATM   10  C14 UNL     1     -27.016 153.694  58.654  1.00  0.00     0.000 C 
HETATM   11  C15 UNL     1     -26.403 154.637  57.666  1.00  0.00     0.011 C 
HETATM   12  C16 UNL     1     -25.982 152.853  59.328  1.00  0.00     0.011 C 
ENDBRANCH   5  10
ENDBRANCH   1   5
BRANCH   3  13
HETATM   13  C7  UNL     1     -26.964 150.080  55.561  1.00  0.00     0.107 C 
BRANCH  13  14
HETATM   14  C8  UNL     1     -25.455 150.132  55.640  1.00  0.00    -0.006 C 
HETATM   15  C9  UNL     1     -24.958 150.905  56.800  1.00  0.00     0.005 C 
HETATM   16  C10 UNL     1     -23.786 151.793  56.524  1.00  0.00     0.000 C 
HETATM   17  C11 UNL     1     -22.832 151.259  55.503  1.00  0.00     0.000 C 
HETATM   18  C12 UNL     1     -23.465 150.773  54.249  1.00  0.00     0.000 C 
HETATM   19  C13 UNL     1     -24.941 150.594  54.310  1.00  0.00     0.005 C 
ENDBRANCH  13  14
ENDBRANCH   3  13
TORSDOF 6
ENDMDL
MODEL 5
REMARK VINA RESULT: -6.926542182      1.010      2.751
REMARK  6 active torsions:
REMARK  status: ('A' for Active; 'I' for Inactive)
REMARK    1  A    between atoms: C2_2  and  C4_4 
REMARK    2  A    between atoms: C4_4  and  C5_5 
REMARK    3  A    between atoms: C5_5  and  N1_6 
REMARK    4  A    between atoms: C5_5  and  C14_17 
REMARK       I    between atoms: N1_6  and  C6_8 
REMARK    5  A    between atoms: C6_8  and  C7_10 
REMARK    6  A    between atoms: C7_10  and  C8_11 
ROOT
HETATM    1  N1  UNL     1     -27.135 151.965  57.850  1.00  0.00    -0.356 N 
ATOM      2  H1  UNL     1     -27.459 152.053  58.813  1.00  0.00     0.162 HD
HETATM    3  C6  UNL     1     -28.042 151.453  56.897  1.00  0.00     0.218 C 
HETATM    4  O1  UNL     1     -27.680 151.331  55.707  1.00  0.00    -0.274 OA
ENDROOT
BRANCH   1   5
HETATM    5  C5  UNL     1     -25.786 152.370  57.557  1.00  0.00     0.088 C 
BRANCH   5   6
HETATM    6  C4  UNL     1     -24.796 151.292  57.820  1.00  0.00     0.029 C 
BRANCH   6   7
HETATM    7  C2  UNL     1     -23.904 150.888  56.700  1.00  0.00    -0.021 C 
HETATM    8  C1  UNL     1     -23.179 151.978  55.980  1.00  0.00     0.009 C 
HETATM    9  C3  UNL     1     -24.783 150.166  55.658  1.00  0.00     0.009 C 
ENDBRANCH   6   7
ENDBRANCH   5   6
BRANCH   5  10
HETATM   10  C14 UNL     1     -25.467 153.621  58.372  1.00  0.00     0.000 C 
HETATM   11  C15 UNL     1     -26.669 154.063  59.148  1.00  0.00     0.011 C 
HETATM   12  C16 UNL     1     -24.935 154.719  57.510  1.00  0.00     0.011 C 
ENDBRANCH   5  10
ENDBRANCH   1   5
BRANCH   3  13
HETATM   13  C7  UNL     1     -29.389 151.071  57.299  1.00  0.00     0.107 C 
BRANCH  13  14
HETATM   14  C8  UNL     1     -30.398 152.188  57.152  1.00  0.00    -0.006 C 
HETATM   15  C9  UNL     1     -29.933 153.472  57.724  1.00  0.00     0.005 C 
HETATM   16  C10 UNL     1     -30.964 154.246  58.482  1.00  0.00     0.000 C 
HETATM   17  C11 UNL     1     -32.356 154.113  57.948  1.00  0.00     0.000 C 
HETATM   18  C12 UNL     1     -32.793 152.716  57.688  1.00  0.00     0.000 C 
HETATM   19  C13 UNL     1     -31.708 151.698  57.690  1.00  0.00     0.005 C 
ENDBRANCH  13  14
ENDBRANCH   3  13
TORSDOF 6
ENDMDL
