MODEL 1
REMARK VINA RESULT: -7.981318286      0.000      0.000
REMARK  10 active torsions:
REMARK  status: ('A' for Active; 'I' for Inactive)
REMARK    1  A    between atoms: C2_2  and  C3_3 
REMARK    2  A    between atoms: C3_3  and  C4_4 
REMARK    3  A    between atoms: C4_4  and  C5_5 
REMARK    4  A    between atoms: N1_8  and  C8_9 
REMARK    5  A    between atoms: C8_9  and  C9_10 
REMARK       I    between atoms: C9_10  and  N2_12 
REMARK    6  A    between atoms: N2_12  and  C10_14 
REMARK    7  A    between atoms: C10_14  and  C11_15 
REMARK    8  A    between atoms: C10_14  and  C25_32 
REMARK       I    between atoms: C11_15  and  N3_17 
REMARK    9  A    between atoms: C15_21  and  C16_22 
REMARK   10  A    between atoms: C16_22  and  N4_25 
REMARK       I    between atoms: N5_34  and  C27_36 
ROOT
HETATM    1  C10 UNL     1       6.262   8.456  19.579  1.00  0.00     0.222 C 
ENDROOT
BRANCH   1   2
HETATM    2  N2  UNL     1       5.820   7.487  18.551  1.00  0.00    -0.341 N 
HETATM    3  C9  UNL     1       6.556   6.326  18.218  1.00  0.00     0.247 C 
HETATM    4  O1  UNL     1       7.626   6.115  18.826  1.00  0.00    -0.272 OA
ATOM      5  H2  UNL     1       4.943   7.665  18.059  1.00  0.00     0.163 HD
BRANCH   3   6
HETATM    6  C8  UNL     1       6.098   5.391  17.200  1.00  0.00     0.374 C 
BRANCH   6   7
HETATM    7  N1  UNL     1       6.887   4.219  16.988  1.00  0.00     0.097 N 
HETATM    8  C7  UNL     1       6.939   3.795  15.618  1.00  0.00     0.273 C 
HETATM    9  C6  UNL     1       7.248   2.372  15.355  1.00  0.00     0.035 C 
HETATM   10  C5  UNL     1       6.412   1.382  16.181  1.00  0.00    -0.007 C 
HETATM   11  C29 UNL     1       5.557   2.174  17.104  1.00  0.00     0.014 C 
HETATM   12  C28 UNL     1       6.364   3.198  17.878  1.00  0.00     0.277 C 
HETATM   13  C30 UNL     1       4.538   1.475  17.910  1.00  0.00     0.012 C 
BRANCH  10  14
HETATM   14  C4  UNL     1       7.301   0.335  16.774  1.00  0.00     0.005 C 
BRANCH  14  15
HETATM   15  C3  UNL     1       8.766   0.548  16.682  1.00  0.00     0.000 C 
BRANCH  15  16
HETATM   16  C2  UNL     1       9.363   0.972  18.027  1.00  0.00    -0.005 C 
HETATM   17  C1  UNL     1       9.932   2.365  17.919  1.00  0.00     0.005 C 
ENDBRANCH  15  16
ENDBRANCH  14  15
ENDBRANCH  10  14
ENDBRANCH   6   7
ENDBRANCH   3   6
ENDBRANCH   1   2
BRANCH   1  18
HETATM   18  C11 UNL     1       5.394   8.347  20.775  1.00  0.00     0.248 C 
HETATM   19  O2  UNL     1       4.163   8.643  20.580  1.00  0.00    -0.271 OA
HETATM   20  N3  UNL     1       5.750   7.970  22.064  1.00  0.00    -0.343 N 
HETATM   21  C12 UNL     1       7.163   7.542  22.309  1.00  0.00     0.126 C 
HETATM   22  C15 UNL     1       5.252   7.860  23.370  1.00  0.00     0.123 C 
HETATM   23  C13 UNL     1       7.583   8.475  23.386  1.00  0.00     0.022 C 
HETATM   24  C14 UNL     1       6.257   8.772  24.113  1.00  0.00     0.029 C 
BRANCH  22  25
HETATM   25  C16 UNL     1       3.862   8.079  23.789  1.00  0.00     0.142 C 
HETATM   26  C17 UNL     1       3.365   9.488  23.570  1.00  0.00     0.048 C 
HETATM   27  C18 UNL     1       4.029   8.165  25.372  1.00  0.00     0.048 C 
BRANCH  25  28
HETATM   28  N4  UNL     1       2.899   7.047  23.588  1.00  0.00    -0.061 N 
HETATM   29  C19 UNL     1       1.882   7.379  22.565  1.00  0.00     0.273 C 
HETATM   30  C20 UNL     1       2.130   6.717  24.764  1.00  0.00     0.238 C 
HETATM   31  C21 UNL     1       1.203   5.570  24.651  1.00  0.00     0.028 C 
HETATM   32  C22 UNL     1       1.710   4.391  23.906  1.00  0.00     0.003 C 
HETATM   33  C23 UNL     1       2.443   4.784  22.681  1.00  0.00     0.028 C 
HETATM   34  C24 UNL     1       3.487   5.822  23.081  1.00  0.00     0.238 C 
ENDBRANCH  25  28
ENDBRANCH  22  25
ENDBRANCH   1  18
BRANCH   1  35
HETATM   35  C25 UNL     1       6.148   9.757  18.903  1.00  0.00     0.017 C 
HETATM   36  C26 UNL     1       5.016   9.883  17.902  1.00  0.00     0.066 C 
HETATM   37  N5  UNL     1       6.892  10.717  19.040  1.00  0.00    -0.336 N 
HETATM   38  C27 UNL     1       8.019  11.077  19.741  1.00  0.00     0.185 C 
ATOM     39  H5  UNL     1       6.581  11.490  18.452  1.00  0.00     0.168 HD
HETATM   40  N6  UNL     1       8.377  12.338  19.679  1.00  0.00    -0.374 N 
HETATM   41  N7  UNL     1       8.834  10.227  20.523  1.00  0.00    -0.064 NA
ATOM     42  H62 UNL     1       7.789  12.951  19.115  1.00  0.00     0.158 HD
ATOM     43  H61 UNL     1       9.213  12.605  20.200  1.00  0.00     0.158 HD
ENDBRANCH   1  35
TORSDOF 10
ENDMDL
MODEL 2
REMARK VINA RESULT: -7.845238506      1.491      2.225
REMARK  10 active torsions:
REMARK  status: ('A' for Active; 'I' for Inactive)
REMARK    1  A    between atoms: C2_2  and  C3_3 
REMARK    2  A    between atoms: C3_3  and  C4_4 
REMARK    3  A    between atoms: C4_4  and  C5_5 
REMARK    4  A    between atoms: N1_8  and  C8_9 
REMARK    5  A    between atoms: C8_9  and  C9_10 
REMARK       I    between atoms: C9_10  and  N2_12 
REMARK    6  A    between atoms: N2_12  and  C10_14 
REMARK    7  A    between atoms: C10_14  and  C11_15 
REMARK    8  A    between atoms: C10_14  and  C25_32 
REMARK       I    between atoms: C11_15  and  N3_17 
REMARK    9  A    between atoms: C15_21  and  C16_22 
REMARK   10  A    between atoms: C16_22  and  N4_25 
REMARK       I    between atoms: N5_34  and  C27_36 
ROOT
HETATM    1  C10 UNL     1       6.672   7.526  20.326  1.00  0.00     0.222 C 
ENDROOT
BRANCH   1   2
HETATM    2  N2  UNL     1       6.391   6.261  19.610  1.00  0.00    -0.341 N 
HETATM    3  C9  UNL     1       6.938   5.016  20.000  1.00  0.00     0.247 C 
HETATM    4  O1  UNL     1       7.690   4.992  20.997  1.00  0.00    -0.272 OA
ATOM      5  H2  UNL     1       5.775   6.288  18.797  1.00  0.00     0.163 HD
BRANCH   3   6
HETATM    6  C8  UNL     1       6.646   3.787  19.276  1.00  0.00     0.374 C 
BRANCH   6   7
HETATM    7  N1  UNL     1       7.716   2.853  19.119  1.00  0.00     0.097 N 
HETATM    8  C7  UNL     1       8.808   3.349  18.332  1.00  0.00     0.273 C 
HETATM    9  C6  UNL     1       9.682   2.355  17.670  1.00  0.00     0.035 C 
HETATM   10  C5  UNL     1       8.923   1.269  16.891  1.00  0.00    -0.007 C 
HETATM   11  C29 UNL     1       7.469   1.494  17.104  1.00  0.00     0.014 C 
HETATM   12  C28 UNL     1       7.132   1.640  18.575  1.00  0.00     0.277 C 
HETATM   13  C30 UNL     1       6.501   0.682  16.342  1.00  0.00     0.012 C 
BRANCH  10  14
HETATM   14  C4  UNL     1       9.480  -0.079  17.223  1.00  0.00     0.005 C 
BRANCH  14  15
HETATM   15  C3  UNL     1       9.151  -1.201  16.311  1.00  0.00     0.000 C 
BRANCH  15  16
HETATM   16  C2  UNL     1      10.131  -2.367  16.470  1.00  0.00    -0.005 C 
HETATM   17  C1  UNL     1       9.460  -3.659  16.073  1.00  0.00     0.005 C 
ENDBRANCH  15  16
ENDBRANCH  14  15
ENDBRANCH  10  14
ENDBRANCH   6   7
ENDBRANCH   3   6
ENDBRANCH   1   2
BRANCH   1  18
HETATM   18  C11 UNL     1       5.616   7.775  21.334  1.00  0.00     0.248 C 
HETATM   19  O2  UNL     1       4.472   8.097  20.852  1.00  0.00    -0.271 OA
HETATM   20  N3  UNL     1       5.714   7.706  22.718  1.00  0.00    -0.343 N 
HETATM   21  C12 UNL     1       7.012   7.258  23.311  1.00  0.00     0.126 C 
HETATM   22  C15 UNL     1       5.001   7.958  23.898  1.00  0.00     0.123 C 
HETATM   23  C13 UNL     1       7.352   8.398  24.200  1.00  0.00     0.022 C 
HETATM   24  C14 UNL     1       5.967   8.955  24.582  1.00  0.00     0.029 C 
BRANCH  22  25
HETATM   25  C16 UNL     1       3.594   8.367  23.993  1.00  0.00     0.142 C 
HETATM   26  C17 UNL     1       3.290   9.689  23.328  1.00  0.00     0.048 C 
HETATM   27  C18 UNL     1       3.523   8.877  25.501  1.00  0.00     0.048 C 
BRANCH  25  28
HETATM   28  N4  UNL     1       2.570   7.380  23.901  1.00  0.00    -0.061 N 
HETATM   29  C19 UNL     1       3.088   6.001  23.767  1.00  0.00     0.273 C 
HETATM   30  C20 UNL     1       1.689   7.544  22.770  1.00  0.00     0.238 C 
HETATM   31  C21 UNL     1       0.532   6.626  22.691  1.00  0.00     0.028 C 
HETATM   32  C22 UNL     1      -0.167   6.344  23.969  1.00  0.00     0.003 C 
HETATM   33  C23 UNL     1       0.784   6.130  25.084  1.00  0.00     0.028 C 
HETATM   34  C24 UNL     1       1.752   7.309  25.098  1.00  0.00     0.238 C 
ENDBRANCH  25  28
ENDBRANCH  22  25
ENDBRANCH   1  18
BRANCH   1  35
HETATM   35  C25 UNL     1       6.695   8.534  19.255  1.00  0.00     0.017 C 
HETATM   36  C26 UNL     1       6.016   8.134  17.960  1.00  0.00     0.066 C 
HETATM   37  N5  UNL     1       7.236   9.629  19.296  1.00  0.00    -0.336 N 
HETATM   38  C27 UNL     1       7.976  10.399  20.163  1.00  0.00     0.185 C 
ATOM     39  H5  UNL     1       7.095  10.125  18.416  1.00  0.00     0.168 HD
HETATM   40  N6  UNL     1       8.207  11.639  19.802  1.00  0.00    -0.374 N 
HETATM   41  N7  UNL     1       8.517   9.992  21.404  1.00  0.00    -0.064 NA
ATOM     42  H62 UNL     1       7.817  11.933  18.906  1.00  0.00     0.158 HD
ATOM     43  H61 UNL     1       8.756  12.211  20.444  1.00  0.00     0.158 HD
ENDBRANCH   1  35
TORSDOF 10
ENDMDL
MODEL 3
REMARK VINA RESULT: -7.660524386      1.577      2.790
REMARK  10 active torsions:
REMARK  status: ('A' for Active; 'I' for Inactive)
REMARK    1  A    between atoms: C2_2  and  C3_3 
REMARK    2  A    between atoms: C3_3  and  C4_4 
REMARK    3  A    between atoms: C4_4  and  C5_5 
REMARK    4  A    between atoms: N1_8  and  C8_9 
REMARK    5  A    between atoms: C8_9  and  C9_10 
REMARK       I    between atoms: C9_10  and  N2_12 
REMARK    6  A    between atoms: N2_12  and  C10_14 
REMARK    7  A    between atoms: C10_14  and  C11_15 
REMARK    8  A    between atoms: C10_14  and  C25_32 
REMARK       I    between atoms: C11_15  and  N3_17 
REMARK    9  A    between atoms: C15_21  and  C16_22 
REMARK   10  A    between atoms: C16_22  and  N4_25 
REMARK       I    between atoms: N5_34  and  C27_36 
ROOT
HETATM    1  C10 UNL     1       6.010   8.208  21.088  1.00  0.00     0.222 C 
ENDROOT
BRANCH   1   2
HETATM    2  N2  UNL     1       6.684   7.324  20.111  1.00  0.00    -0.341 N 
HETATM    3  C9  UNL     1       7.569   6.289  20.491  1.00  0.00     0.247 C 
HETATM    4  O1  UNL     1       7.785   6.119  21.710  1.00  0.00    -0.272 OA
ATOM      5  H2  UNL     1       6.502   7.469  19.118  1.00  0.00     0.163 HD
BRANCH   3   6
HETATM    6  C8  UNL     1       8.221   5.435  19.508  1.00  0.00     0.374 C 
BRANCH   6   7
HETATM    7  N1  UNL     1       7.443   4.377  18.945  1.00  0.00     0.097 N 
HETATM    8  C7  UNL     1       6.965   3.431  19.913  1.00  0.00     0.273 C 
HETATM    9  C6  UNL     1       6.632   2.071  19.433  1.00  0.00     0.035 C 
HETATM   10  C5  UNL     1       7.721   1.427  18.561  1.00  0.00    -0.007 C 
HETATM   11  C29 UNL     1       8.803   2.429  18.376  1.00  0.00     0.014 C 
HETATM   12  C28 UNL     1       8.258   3.766  17.911  1.00  0.00     0.277 C 
HETATM   13  C30 UNL     1      10.049   2.020  17.702  1.00  0.00     0.012 C 
BRANCH  10  14
HETATM   14  C4  UNL     1       7.104   0.827  17.337  1.00  0.00     0.005 C 
BRANCH  14  15
HETATM   15  C3  UNL     1       5.695   1.177  17.038  1.00  0.00     0.000 C 
BRANCH  15  16
HETATM   16  C2  UNL     1       5.591   2.170  15.877  1.00  0.00    -0.005 C 
HETATM   17  C1  UNL     1       6.797   2.036  14.979  1.00  0.00     0.005 C 
ENDBRANCH  15  16
ENDBRANCH  14  15
ENDBRANCH  10  14
ENDBRANCH   6   7
ENDBRANCH   3   6
ENDBRANCH   1   2
BRANCH   1  18
HETATM   18  C11 UNL     1       4.864   7.495  21.700  1.00  0.00     0.248 C 
HETATM   19  O2  UNL     1       4.106   6.877  20.873  1.00  0.00    -0.271 OA
HETATM   20  N3  UNL     1       4.516   7.420  23.044  1.00  0.00    -0.343 N 
HETATM   21  C12 UNL     1       5.423   8.065  24.043  1.00  0.00     0.126 C 
HETATM   22  C15 UNL     1       3.518   6.955  23.910  1.00  0.00     0.123 C 
HETATM   23  C13 UNL     1       4.497   8.996  24.739  1.00  0.00     0.022 C 
HETATM   24  C14 UNL     1       3.138   8.282  24.610  1.00  0.00     0.029 C 
BRANCH  22  25
HETATM   25  C16 UNL     1       2.349   6.150  23.536  1.00  0.00     0.142 C 
HETATM   26  C17 UNL     1       1.317   6.900  22.725  1.00  0.00     0.048 C 
HETATM   27  C18 UNL     1       1.543   6.119  24.911  1.00  0.00     0.048 C 
BRANCH  25  28
HETATM   28  N4  UNL     1       2.523   4.778  23.194  1.00  0.00    -0.061 N 
HETATM   29  C19 UNL     1       2.175   4.470  21.789  1.00  0.00     0.273 C 
HETATM   30  C20 UNL     1       1.718   3.867  23.971  1.00  0.00     0.238 C 
HETATM   31  C21 UNL     1       1.947   2.422  23.749  1.00  0.00     0.028 C 
HETATM   32  C22 UNL     1       3.361   2.001  23.593  1.00  0.00     0.003 C 
HETATM   33  C23 UNL     1       4.128   2.941  22.743  1.00  0.00     0.028 C 
HETATM   34  C24 UNL     1       3.905   4.347  23.292  1.00  0.00     0.238 C 
ENDBRANCH  25  28
ENDBRANCH  22  25
ENDBRANCH   1  18
BRANCH   1  35
HETATM   35  C25 UNL     1       5.600   9.369  20.282  1.00  0.00     0.017 C 
HETATM   36  C26 UNL     1       4.131   9.431  19.916  1.00  0.00     0.066 C 
HETATM   37  N5  UNL     1       6.329  10.251  19.854  1.00  0.00    -0.336 N 
HETATM   38  C27 UNL     1       7.657  10.609  19.862  1.00  0.00     0.185 C 
ATOM     39  H5  UNL     1       5.784  10.933  19.327  1.00  0.00     0.168 HD
HETATM   40  N6  UNL     1       7.955  11.791  19.376  1.00  0.00    -0.374 N 
HETATM   41  N7  UNL     1       8.738   9.833  20.339  1.00  0.00    -0.064 NA
ATOM     42  H62 UNL     1       7.175  12.351  19.031  1.00  0.00     0.158 HD
ATOM     43  H61 UNL     1       8.940  12.057  19.382  1.00  0.00     0.158 HD
ENDBRANCH   1  35
TORSDOF 10
ENDMDL
MODEL 4
REMARK VINA RESULT: -7.607732220      2.263      5.930
REMARK  10 active torsions:
REMARK  status: ('A' for Active; 'I' for Inactive)
REMARK    1  A    between atoms: C2_2  and  C3_3 
REMARK    2  A    between atoms: C3_3  and  C4_4 
REMARK    3  A    between atoms: C4_4  and  C5_5 
REMARK    4  A    between atoms: N1_8  and  C8_9 
REMARK    5  A    between atoms: C8_9  and  C9_10 
REMARK       I    between atoms: C9_10  and  N2_12 
REMARK    6  A    between atoms: N2_12  and  C10_14 
REMARK    7  A    between atoms: C10_14  and  C11_15 
REMARK    8  A    between atoms: C10_14  and  C25_32 
REMARK       I    between atoms: C11_15  and  N3_17 
REMARK    9  A    between atoms: C15_21  and  C16_22 
REMARK   10  A    between atoms: C16_22  and  N4_25 
REMARK       I    between atoms: N5_34  and  C27_36 
ROOT
HETATM    1  C10 UNL     1       2.961   4.246  21.704  1.00  0.00     0.222 C 
ENDROOT
BRANCH   1   2
HETATM    2  N2  UNL     1       3.533   3.174  20.858  1.00  0.00    -0.341 N 
HETATM    3  C9  UNL     1       3.411   3.157  19.449  1.00  0.00     0.247 C 
HETATM    4  O1  UNL     1       2.792   4.093  18.902  1.00  0.00    -0.272 OA
ATOM      5  H2  UNL     1       4.038   2.413  21.313  1.00  0.00     0.163 HD
BRANCH   3   6
HETATM    6  C8  UNL     1       3.983   2.088  18.642  1.00  0.00     0.374 C 
BRANCH   6   7
HETATM    7  N1  UNL     1       5.409   2.023  18.561  1.00  0.00     0.097 N 
HETATM    8  C7  UNL     1       6.065   2.090  19.836  1.00  0.00     0.273 C 
HETATM    9  C6  UNL     1       7.468   2.559  19.859  1.00  0.00     0.035 C 
HETATM   10  C5  UNL     1       7.711   3.858  19.074  1.00  0.00    -0.007 C 
HETATM   11  C29 UNL     1       6.429   4.238  18.424  1.00  0.00     0.014 C 
HETATM   12  C28 UNL     1       5.823   3.080  17.656  1.00  0.00     0.277 C 
HETATM   13  C30 UNL     1       6.339   5.535  17.727  1.00  0.00     0.012 C 
BRANCH  10  14
HETATM   14  C4  UNL     1       8.920   3.709  18.206  1.00  0.00     0.005 C 
BRANCH  14  15
HETATM   15  C3  UNL     1       9.502   2.353  18.067  1.00  0.00     0.000 C 
BRANCH  15  16
HETATM   16  C2  UNL     1       9.183   1.736  16.702  1.00  0.00    -0.005 C 
HETATM   17  C1  UNL     1       8.446   0.432  16.888  1.00  0.00     0.005 C 
ENDBRANCH  15  16
ENDBRANCH  14  15
ENDBRANCH  10  14
ENDBRANCH   6   7
ENDBRANCH   3   6
ENDBRANCH   1   2
BRANCH   1  18
HETATM   18  C11 UNL     1       4.015   5.228  22.049  1.00  0.00     0.248 C 
HETATM   19  O2  UNL     1       5.204   4.886  21.715  1.00  0.00    -0.271 OA
HETATM   20  N3  UNL     1       3.872   6.456  22.684  1.00  0.00    -0.343 N 
HETATM   21  C12 UNL     1       2.490   6.920  23.018  1.00  0.00     0.126 C 
HETATM   22  C15 UNL     1       4.605   7.522  23.224  1.00  0.00     0.123 C 
HETATM   23  C13 UNL     1       2.586   7.139  24.484  1.00  0.00     0.022 C 
HETATM   24  C14 UNL     1       4.071   7.500  24.676  1.00  0.00     0.029 C 
BRANCH  22  25
HETATM   25  C16 UNL     1       6.061   7.699  23.151  1.00  0.00     0.142 C 
HETATM   26  C17 UNL     1       6.848   6.668  23.924  1.00  0.00     0.048 C 
HETATM   27  C18 UNL     1       6.273   8.915  24.159  1.00  0.00     0.048 C 
BRANCH  25  28
HETATM   28  N4  UNL     1       6.653   8.140  21.932  1.00  0.00    -0.061 N 
HETATM   29  C19 UNL     1       5.665   8.521  20.898  1.00  0.00     0.273 C 
HETATM   30  C20 UNL     1       7.484   7.152  21.286  1.00  0.00     0.238 C 
HETATM   31  C21 UNL     1       8.226   7.592  20.084  1.00  0.00     0.028 C 
HETATM   32  C22 UNL     1       8.828   8.946  20.147  1.00  0.00     0.003 C 
HETATM   33  C23 UNL     1       7.914   9.931  20.767  1.00  0.00     0.028 C 
HETATM   34  C24 UNL     1       7.440   9.348  22.095  1.00  0.00     0.238 C 
ENDBRANCH  25  28
ENDBRANCH  22  25
ENDBRANCH   1  18
BRANCH   1  35
HETATM   35  C25 UNL     1       2.442   3.524  22.876  1.00  0.00     0.017 C 
HETATM   36  C26 UNL     1       3.433   2.625  23.588  1.00  0.00     0.066 C 
HETATM   37  N5  UNL     1       1.295   3.549  23.298  1.00  0.00    -0.336 N 
HETATM   38  C27 UNL     1       0.083   4.128  23.003  1.00  0.00     0.185 C 
ATOM     39  H5  UNL     1       1.211   2.957  24.124  1.00  0.00     0.168 HD
HETATM   40  N6  UNL     1      -0.876   3.976  23.886  1.00  0.00    -0.374 N 
HETATM   41  N7  UNL     1      -0.239   4.870  21.844  1.00  0.00    -0.064 NA
ATOM     42  H62 UNL     1      -0.644   3.440  24.722  1.00  0.00     0.158 HD
ATOM     43  H61 UNL     1      -1.775   4.406  23.668  1.00  0.00     0.158 HD
ENDBRANCH   1  35
TORSDOF 10
ENDMDL
MODEL 5
REMARK VINA RESULT: -7.590184874      2.952      9.061
REMARK  10 active torsions:
REMARK  status: ('A' for Active; 'I' for Inactive)
REMARK    1  A    between atoms: C2_2  and  C3_3 
REMARK    2  A    between atoms: C3_3  and  C4_4 
REMARK    3  A    between atoms: C4_4  and  C5_5 
REMARK    4  A    between atoms: N1_8  and  C8_9 
REMARK    5  A    between atoms: C8_9  and  C9_10 
REMARK       I    between atoms: C9_10  and  N2_12 
REMARK    6  A    between atoms: N2_12  and  C10_14 
REMARK    7  A    between atoms: C10_14  and  C11_15 
REMARK    8  A    between atoms: C10_14  and  C25_32 
REMARK       I    between atoms: C11_15  and  N3_17 
REMARK    9  A    between atoms: C15_21  and  C16_22 
REMARK   10  A    between atoms: C16_22  and  N4_25 
REMARK       I    between atoms: N5_34  and  C27_36 
ROOT
HETATM    1  C10 UNL     1       3.385   4.073  21.272  1.00  0.00     0.222 C 
ENDROOT
BRANCH   1   2
HETATM    2  N2  UNL     1       4.001   5.400  21.501  1.00  0.00    -0.341 N 
HETATM    3  C9  UNL     1       4.629   5.757  22.717  1.00  0.00     0.247 C 
HETATM    4  O1  UNL     1       4.662   4.909  23.633  1.00  0.00    -0.272 OA
ATOM      5  H2  UNL     1       3.971   6.087  20.748  1.00  0.00     0.163 HD
BRANCH   3   6
HETATM    6  C8  UNL     1       5.226   7.071  22.916  1.00  0.00     0.374 C 
BRANCH   6   7
HETATM    7  N1  UNL     1       6.387   7.140  23.746  1.00  0.00     0.097 N 
HETATM    8  C7  UNL     1       6.377   8.242  24.666  1.00  0.00     0.273 C 
HETATM    9  C6  UNL     1       7.682   8.724  25.170  1.00  0.00     0.035 C 
HETATM   10  C5  UNL     1       8.731   8.964  24.073  1.00  0.00    -0.007 C 
HETATM   11  C29 UNL     1       8.133   8.547  22.777  1.00  0.00     0.014 C 
HETATM   12  C28 UNL     1       7.534   7.156  22.856  1.00  0.00     0.277 C 
HETATM   13  C30 UNL     1       8.873   8.814  21.530  1.00  0.00     0.012 C 
BRANCH  10  14
HETATM   14  C4  UNL     1      10.035   8.349  24.473  1.00  0.00     0.005 C 
BRANCH  14  15
HETATM   15  C3  UNL     1      10.713   8.898  25.672  1.00  0.00     0.000 C 
BRANCH  15  16
HETATM   16  C2  UNL     1      11.356   7.792  26.515  1.00  0.00    -0.005 C 
HETATM   17  C1  UNL     1      10.289   6.868  27.048  1.00  0.00     0.005 C 
ENDBRANCH  15  16
ENDBRANCH  14  15
ENDBRANCH  10  14
ENDBRANCH   6   7
ENDBRANCH   3   6
ENDBRANCH   1   2
BRANCH   1  18
HETATM   18  C11 UNL     1       3.931   3.476  20.031  1.00  0.00     0.248 C 
HETATM   19  O2  UNL     1       4.661   4.260  19.328  1.00  0.00    -0.271 OA
HETATM   20  N3  UNL     1       3.748   2.187  19.544  1.00  0.00    -0.343 N 
HETATM   21  C12 UNL     1       2.966   1.223  20.379  1.00  0.00     0.126 C 
HETATM   22  C15 UNL     1       4.010   1.367  18.438  1.00  0.00     0.123 C 
HETATM   23  C13 UNL     1       1.891   0.809  19.442  1.00  0.00     0.022 C 
HETATM   24  C14 UNL     1       2.565   0.959  18.065  1.00  0.00     0.029 C 
BRANCH  22  25
HETATM   25  C16 UNL     1       4.825   1.721  17.269  1.00  0.00     0.142 C 
HETATM   26  C17 UNL     1       4.238   2.822  16.417  1.00  0.00     0.048 C 
HETATM   27  C18 UNL     1       4.499   0.508  16.288  1.00  0.00     0.048 C 
BRANCH  25  28
HETATM   28  N4  UNL     1       6.246   1.718  17.379  1.00  0.00    -0.061 N 
HETATM   29  C19 UNL     1       6.907   0.751  16.475  1.00  0.00     0.273 C 
HETATM   30  C20 UNL     1       6.738   1.377  18.692  1.00  0.00     0.238 C 
HETATM   31  C21 UNL     1       8.199   1.479  18.901  1.00  0.00     0.028 C 
HETATM   32  C22 UNL     1       8.866   2.655  18.289  1.00  0.00     0.003 C 
HETATM   33  C23 UNL     1       8.364   2.928  16.924  1.00  0.00     0.028 C 
HETATM   34  C24 UNL     1       6.841   2.986  16.995  1.00  0.00     0.238 C 
ENDBRANCH  25  28
ENDBRANCH  22  25
ENDBRANCH   1  18
BRANCH   1  35
HETATM   35  C25 UNL     1       1.946   4.369  21.182  1.00  0.00     0.017 C 
HETATM   36  C26 UNL     1       1.510   5.157  19.962  1.00  0.00     0.066 C 
HETATM   37  N5  UNL     1       1.091   4.080  22.005  1.00  0.00    -0.336 N 
HETATM   38  C27 UNL     1       0.979   3.452  23.224  1.00  0.00     0.185 C 
ATOM     39  H5  UNL     1       0.176   4.404  21.691  1.00  0.00     0.168 HD
HETATM   40  N6  UNL     1      -0.236   3.228  23.665  1.00  0.00    -0.374 N 
HETATM   41  N7  UNL     1       2.041   3.024  24.053  1.00  0.00    -0.064 NA
ATOM     42  H62 UNL     1      -1.002   3.537  23.067  1.00  0.00     0.158 HD
ATOM     43  H61 UNL     1      -0.319   2.763  24.570  1.00  0.00     0.158 HD
ENDBRANCH   1  35
TORSDOF 10
ENDMDL
