MODEL 1
REMARK VINA RESULT: -9.041810097      0.000      0.000
REMARK  9 active torsions:
REMARK  status: ('A' for Active; 'I' for Inactive)
REMARK    1  A    between atoms: C2_2  and  C3_3 
REMARK    2  A    between atoms: C6_6  and  C7_7 
REMARK    3  A    between atoms: C7_7  and  C8_8 
REMARK    4  A    between atoms: C8_8  and  C9_9 
REMARK    5  A    between atoms: C9_9  and  S1_10 
REMARK    6  A    between atoms: S1_10  and  N1_11 
REMARK    7  A    between atoms: S1_10  and  N6_28 
REMARK       I    between atoms: N1_11  and  C10_13 
REMARK       I    between atoms: C10_13  and  N2_15 
REMARK    8  A    between atoms: N3_19  and  N4_21 
REMARK    9  A    between atoms: N6_28  and  C16_29 
ROOT
HETATM    1  S1  UNL     1       6.854   7.639  21.842  1.00  0.00    -0.033 SA
ENDROOT
BRANCH   1   2
HETATM    2  C9  UNL     1       7.627   7.518  20.220  1.00  0.00     0.103 C 
BRANCH   2   3
HETATM    3  C8  UNL     1       7.968   6.060  20.001  1.00  0.00     0.014 C 
BRANCH   3   4
HETATM    4  C7  UNL     1       7.211   5.583  18.789  1.00  0.00     0.026 C 
BRANCH   4   5
HETATM    5  C6  UNL     1       7.986   4.445  18.140  1.00  0.00     0.085 C 
HETATM    6  C5  UNL     1       8.751   3.648  19.132  1.00  0.00     0.048 C 
HETATM    7  C3  UNL     1       8.281   2.232  19.021  1.00  0.00     0.056 C 
HETATM    8  C4  UNL     1       9.456   1.263  18.964  1.00  0.00     0.030 C 
HETATM    9  C20 UNL     1       7.577   2.230  17.715  1.00  0.00     0.230 C 
HETATM   10  N7  UNL     1       7.136   3.547  17.434  1.00  0.00    -0.355 N 
HETATM   11  O2  UNL     1       7.396   1.209  16.965  1.00  0.00    -0.272 OA
ATOM     12  H7  UNL     1       6.352   3.804  16.835  1.00  0.00     0.162 HD
BRANCH   7  13
HETATM   13  C2  UNL     1       7.375   1.872  20.117  1.00  0.00    -0.018 C 
HETATM   14  C1  UNL     1       7.284   2.612  21.195  1.00  0.00     0.008 C 
ENDBRANCH   7  13
ENDBRANCH   4   5
ENDBRANCH   3   4
ENDBRANCH   2   3
ENDBRANCH   1   2
BRANCH   1  15
HETATM   15  N1  UNL     1       8.179   8.125  22.902  1.00  0.00    -0.278 N 
HETATM   16  C10 UNL     1       7.965   7.958  24.293  1.00  0.00     0.328 C 
HETATM   17  O1  UNL     1       6.862   7.481  24.708  1.00  0.00    -0.246 OA
HETATM   18  N2  UNL     1       8.984   8.329  25.199  1.00  0.00    -0.333 N 
HETATM   19  C11 UNL     1       8.775   8.167  26.623  1.00  0.00     0.133 C 
HETATM   20  C15 UNL     1      10.222   8.864  24.734  1.00  0.00     0.133 C 
HETATM   21  C12 UNL     1       9.859   7.241  27.132  1.00  0.00     0.074 C 
HETATM   22  C13 UNL     1      11.164   7.832  26.781  1.00  0.00     0.008 C 
HETATM   23  N3  UNL     1      12.212   7.296  27.343  1.00  0.00    -0.295 N 
HETATM   24  C14 UNL     1      11.257   8.962  25.842  1.00  0.00     0.074 C 
ATOM     25  H3  UNL     1      12.121   6.509  27.987  1.00  0.00     0.187 HD
ATOM     26  H1  UNL     1       9.051   8.505  22.533  1.00  0.00     0.179 HD
BRANCH  23  27
HETATM   27  N4  UNL     1      13.460   7.833  27.034  1.00  0.00    -0.249 N 
HETATM   28  N5  UNL     1      14.192   7.183  26.227  1.00  0.00    -0.331 N 
ATOM     29  H52 UNL     1      13.865   6.303  25.829  1.00  0.00     0.178 HD
ATOM     30  H51 UNL     1      15.105   7.577  26.000  1.00  0.00     0.178 HD
ATOM     31  H4  UNL     1      13.772   8.715  27.440  1.00  0.00     0.207 HD
ENDBRANCH  23  27
ENDBRANCH   1  15
BRANCH   1  32
HETATM   32  N6  UNL     1       6.405   6.018  22.271  1.00  0.00    -0.161 NA
BRANCH  32  33
HETATM   33  C16 UNL     1       5.003   5.777  22.268  1.00  0.00     0.030 C 
HETATM   34  C17 UNL     1       4.325   7.157  22.259  1.00  0.00     0.034 C 
HETATM   35  C18 UNL     1       4.467   5.000  21.115  1.00  0.00     0.034 C 
HETATM   36  C19 UNL     1       4.534   5.096  23.555  1.00  0.00     0.034 C 
ENDBRANCH  32  33
ENDBRANCH   1  32
TORSDOF 9
ENDMDL
MODEL 2
REMARK VINA RESULT: -8.547072825      1.061      1.564
REMARK  9 active torsions:
REMARK  status: ('A' for Active; 'I' for Inactive)
REMARK    1  A    between atoms: C2_2  and  C3_3 
REMARK    2  A    between atoms: C6_6  and  C7_7 
REMARK    3  A    between atoms: C7_7  and  C8_8 
REMARK    4  A    between atoms: C8_8  and  C9_9 
REMARK    5  A    between atoms: C9_9  and  S1_10 
REMARK    6  A    between atoms: S1_10  and  N1_11 
REMARK    7  A    between atoms: S1_10  and  N6_28 
REMARK       I    between atoms: N1_11  and  C10_13 
REMARK       I    between atoms: C10_13  and  N2_15 
REMARK    8  A    between atoms: N3_19  and  N4_21 
REMARK    9  A    between atoms: N6_28  and  C16_29 
ROOT
HETATM    1  S1  UNL     1       7.145   8.133  21.670  1.00  0.00    -0.033 SA
ENDROOT
BRANCH   1   2
HETATM    2  C9  UNL     1       7.290   6.354  21.427  1.00  0.00     0.103 C 
BRANCH   2   3
HETATM    3  C8  UNL     1       8.070   6.145  20.148  1.00  0.00     0.014 C 
BRANCH   3   4
HETATM    4  C7  UNL     1       7.145   5.520  19.137  1.00  0.00     0.026 C 
BRANCH   4   5
HETATM    5  C6  UNL     1       7.911   4.463  18.355  1.00  0.00     0.085 C 
HETATM    6  C5  UNL     1       8.788   3.642  19.229  1.00  0.00     0.048 C 
HETATM    7  C3  UNL     1       8.372   2.215  19.060  1.00  0.00     0.056 C 
HETATM    8  C4  UNL     1       9.578   1.308  18.847  1.00  0.00     0.030 C 
HETATM    9  C20 UNL     1       7.564   2.261  17.817  1.00  0.00     0.230 C 
HETATM   10  N7  UNL     1       7.046   3.571  17.660  1.00  0.00    -0.355 N 
HETATM   11  O2  UNL     1       7.365   1.282  17.018  1.00  0.00    -0.272 OA
ATOM     12  H7  UNL     1       6.205   3.828  17.143  1.00  0.00     0.162 HD
BRANCH   7  13
HETATM   13  C2  UNL     1       7.574   1.744  20.199  1.00  0.00    -0.018 C 
HETATM   14  C1  UNL     1       7.196   2.563  21.150  1.00  0.00     0.008 C 
ENDBRANCH   7  13
ENDBRANCH   4   5
ENDBRANCH   3   4
ENDBRANCH   2   3
ENDBRANCH   1   2
BRANCH   1  15
HETATM   15  N1  UNL     1       8.411   8.499  22.844  1.00  0.00    -0.278 N 
HETATM   16  C10 UNL     1       8.138   8.156  24.192  1.00  0.00     0.328 C 
HETATM   17  O1  UNL     1       7.027   7.614  24.491  1.00  0.00    -0.246 OA
HETATM   18  N2  UNL     1       9.107   8.423  25.184  1.00  0.00    -0.333 N 
HETATM   19  C11 UNL     1       8.836   8.080  26.565  1.00  0.00     0.133 C 
HETATM   20  C15 UNL     1      10.354   9.030  24.849  1.00  0.00     0.133 C 
HETATM   21  C12 UNL     1       9.915   7.112  27.006  1.00  0.00     0.074 C 
HETATM   22  C13 UNL     1      11.222   7.761  26.794  1.00  0.00     0.008 C 
HETATM   23  N3  UNL     1      12.254   7.172  27.333  1.00  0.00    -0.295 N 
HETATM   24  C14 UNL     1      11.336   9.001  26.009  1.00  0.00     0.074 C 
ATOM     25  H3  UNL     1      12.149   6.309  27.868  1.00  0.00     0.187 HD
ATOM     26  H1  UNL     1       9.291   8.935  22.568  1.00  0.00     0.179 HD
BRANCH  23  27
HETATM   27  N4  UNL     1      13.504   7.761  27.153  1.00  0.00    -0.249 N 
HETATM   28  N5  UNL     1      14.273   7.246  26.285  1.00  0.00    -0.331 N 
ATOM     29  H52 UNL     1      13.973   6.433  25.749  1.00  0.00     0.178 HD
ATOM     30  H51 UNL     1      15.188   7.678  26.154  1.00  0.00     0.178 HD
ATOM     31  H4  UNL     1      13.789   8.576  27.697  1.00  0.00     0.207 HD
ENDBRANCH  23  27
ENDBRANCH   1  15
BRANCH   1  32
HETATM   32  N6  UNL     1       5.615   8.378  22.453  1.00  0.00    -0.161 NA
BRANCH  32  33
HETATM   33  C16 UNL     1       4.554   8.724  21.571  1.00  0.00     0.030 C 
HETATM   34  C17 UNL     1       3.701   7.456  21.399  1.00  0.00     0.034 C 
HETATM   35  C18 UNL     1       3.651   9.821  22.020  1.00  0.00     0.034 C 
HETATM   36  C19 UNL     1       5.061   9.073  20.171  1.00  0.00     0.034 C 
ENDBRANCH  32  33
ENDBRANCH   1  32
TORSDOF 9
ENDMDL
MODEL 3
REMARK VINA RESULT: -8.357626439      0.683      1.076
REMARK  9 active torsions:
REMARK  status: ('A' for Active; 'I' for Inactive)
REMARK    1  A    between atoms: C2_2  and  C3_3 
REMARK    2  A    between atoms: C6_6  and  C7_7 
REMARK    3  A    between atoms: C7_7  and  C8_8 
REMARK    4  A    between atoms: C8_8  and  C9_9 
REMARK    5  A    between atoms: C9_9  and  S1_10 
REMARK    6  A    between atoms: S1_10  and  N1_11 
REMARK    7  A    between atoms: S1_10  and  N6_28 
REMARK       I    between atoms: N1_11  and  C10_13 
REMARK       I    between atoms: C10_13  and  N2_15 
REMARK    8  A    between atoms: N3_19  and  N4_21 
REMARK    9  A    between atoms: N6_28  and  C16_29 
ROOT
HETATM    1  S1  UNL     1       6.273   7.436  21.538  1.00  0.00    -0.033 SA
ENDROOT
BRANCH   1   2
HETATM    2  C9  UNL     1       6.831   7.536  19.828  1.00  0.00     0.103 C 
BRANCH   2   3
HETATM    3  C8  UNL     1       6.714   6.146  19.243  1.00  0.00     0.014 C 
BRANCH   3   4
HETATM    4  C7  UNL     1       8.022   5.435  19.470  1.00  0.00     0.026 C 
BRANCH   4   5
HETATM    5  C6  UNL     1       8.219   4.400  18.372  1.00  0.00     0.085 C 
HETATM    6  C5  UNL     1       9.209   3.359  18.750  1.00  0.00     0.048 C 
HETATM    7  C3  UNL     1       8.514   2.037  18.669  1.00  0.00     0.056 C 
HETATM    8  C4  UNL     1       9.358   1.014  17.918  1.00  0.00     0.030 C 
HETATM    9  C20 UNL     1       7.304   2.358  17.873  1.00  0.00     0.230 C 
HETATM   10  N7  UNL     1       7.007   3.734  18.033  1.00  0.00    -0.355 N 
HETATM   11  O2  UNL     1       6.638   1.531  17.160  1.00  0.00    -0.272 OA
ATOM     12  H7  UNL     1       6.091   4.169  17.925  1.00  0.00     0.162 HD
BRANCH   7  13
HETATM   13  C2  UNL     1       8.159   1.528  19.999  1.00  0.00    -0.018 C 
HETATM   14  C1  UNL     1       7.081   1.941  20.620  1.00  0.00     0.008 C 
ENDBRANCH   7  13
ENDBRANCH   4   5
ENDBRANCH   3   4
ENDBRANCH   2   3
ENDBRANCH   1   2
BRANCH   1  15
HETATM   15  N1  UNL     1       7.670   7.985  22.466  1.00  0.00    -0.278 N 
HETATM   16  C10 UNL     1       7.527   7.986  23.877  1.00  0.00     0.328 C 
HETATM   17  O1  UNL     1       6.433   7.603  24.399  1.00  0.00    -0.246 OA
HETATM   18  N2  UNL     1       8.607   8.415  24.681  1.00  0.00    -0.333 N 
HETATM   19  C11 UNL     1       8.470   8.425  26.123  1.00  0.00     0.133 C 
HETATM   20  C15 UNL     1       9.835   8.843  24.095  1.00  0.00     0.133 C 
HETATM   21  C12 UNL     1       9.548   7.518  26.681  1.00  0.00     0.074 C 
HETATM   22  C13 UNL     1      10.851   8.013  26.198  1.00  0.00     0.008 C 
HETATM   23  N3  UNL     1      11.910   7.502  26.765  1.00  0.00    -0.295 N 
HETATM   24  C14 UNL     1      10.932   9.024  25.132  1.00  0.00     0.074 C 
ATOM     25  H3  UNL     1      11.827   6.798  27.498  1.00  0.00     0.187 HD
ATOM     26  H1  UNL     1       8.534   8.285  22.013  1.00  0.00     0.179 HD
BRANCH  23  27
HETATM   27  N4  UNL     1      13.156   7.950  26.333  1.00  0.00    -0.249 N 
HETATM   28  N5  UNL     1      14.151   7.187  26.528  1.00  0.00    -0.331 N 
ATOM     29  H52 UNL     1      14.026   6.284  26.985  1.00  0.00     0.178 HD
ATOM     30  H51 UNL     1      15.063   7.516  26.212  1.00  0.00     0.178 HD
ATOM     31  H4  UNL     1      13.265   8.856  25.877  1.00  0.00     0.207 HD
ENDBRANCH  23  27
ENDBRANCH   1  15
BRANCH   1  32
HETATM   32  N6  UNL     1       6.058   5.744  21.863  1.00  0.00    -0.161 NA
BRANCH  32  33
HETATM   33  C16 UNL     1       4.736   5.384  22.246  1.00  0.00     0.030 C 
HETATM   34  C17 UNL     1       4.236   4.382  21.193  1.00  0.00     0.034 C 
HETATM   35  C18 UNL     1       4.584   4.750  23.586  1.00  0.00     0.034 C 
HETATM   36  C19 UNL     1       3.774   6.571  22.174  1.00  0.00     0.034 C 
ENDBRANCH  32  33
ENDBRANCH   1  32
TORSDOF 9
ENDMDL
MODEL 4
REMARK VINA RESULT: -8.173940236      1.216      1.638
REMARK  9 active torsions:
REMARK  status: ('A' for Active; 'I' for Inactive)
REMARK    1  A    between atoms: C2_2  and  C3_3 
REMARK    2  A    between atoms: C6_6  and  C7_7 
REMARK    3  A    between atoms: C7_7  and  C8_8 
REMARK    4  A    between atoms: C8_8  and  C9_9 
REMARK    5  A    between atoms: C9_9  and  S1_10 
REMARK    6  A    between atoms: S1_10  and  N1_11 
REMARK    7  A    between atoms: S1_10  and  N6_28 
REMARK       I    between atoms: N1_11  and  C10_13 
REMARK       I    between atoms: C10_13  and  N2_15 
REMARK    8  A    between atoms: N3_19  and  N4_21 
REMARK    9  A    between atoms: N6_28  and  C16_29 
ROOT
HETATM    1  S1  UNL     1       5.417   6.431  21.681  1.00  0.00    -0.033 SA
ENDROOT
BRANCH   1   2
HETATM    2  C9  UNL     1       5.622   6.564  19.896  1.00  0.00     0.103 C 
BRANCH   2   3
HETATM    3  C8  UNL     1       6.181   5.243  19.417  1.00  0.00     0.014 C 
BRANCH   3   4
HETATM    4  C7  UNL     1       7.672   5.398  19.266  1.00  0.00     0.026 C 
BRANCH   4   5
HETATM    5  C6  UNL     1       8.182   4.343  18.294  1.00  0.00     0.085 C 
HETATM    6  C5  UNL     1       9.181   3.439  18.919  1.00  0.00     0.048 C 
HETATM    7  C3  UNL     1       8.654   2.044  18.798  1.00  0.00     0.056 C 
HETATM    8  C4  UNL     1       9.727   1.090  18.287  1.00  0.00     0.030 C 
HETATM    9  C20 UNL     1       7.595   2.190  17.770  1.00  0.00     0.230 C 
HETATM   10  N7  UNL     1       7.133   3.530  17.780  1.00  0.00    -0.355 N 
HETATM   11  O2  UNL     1       7.166   1.261  17.001  1.00  0.00    -0.272 OA
ATOM     12  H7  UNL     1       6.215   3.853  17.474  1.00  0.00     0.162 HD
BRANCH   7  13
HETATM   13  C2  UNL     1       8.103   1.559  20.068  1.00  0.00    -0.018 C 
HETATM   14  C1  UNL     1       6.909   1.917  20.473  1.00  0.00     0.008 C 
ENDBRANCH   7  13
ENDBRANCH   4   5
ENDBRANCH   3   4
ENDBRANCH   2   3
ENDBRANCH   1   2
BRANCH   1  15
HETATM   15  N1  UNL     1       6.879   7.179  22.327  1.00  0.00    -0.278 N 
HETATM   16  C10 UNL     1       6.818   7.622  23.672  1.00  0.00     0.328 C 
HETATM   17  O1  UNL     1       5.746   7.467  24.338  1.00  0.00    -0.246 OA
HETATM   18  N2  UNL     1       7.954   8.231  24.251  1.00  0.00    -0.333 N 
HETATM   19  C11 UNL     1       7.901   8.692  25.624  1.00  0.00     0.133 C 
HETATM   20  C15 UNL     1       9.157   8.404  23.505  1.00  0.00     0.133 C 
HETATM   21  C12 UNL     1       8.985   7.956  26.384  1.00  0.00     0.074 C 
HETATM   22  C13 UNL     1      10.270   8.220  25.712  1.00  0.00     0.008 C 
HETATM   23  N3  UNL     1      11.346   7.863  26.359  1.00  0.00    -0.295 N 
HETATM   24  C14 UNL     1      10.316   8.848  24.382  1.00  0.00     0.074 C 
ATOM     25  H3  UNL     1      11.287   7.425  27.278  1.00  0.00     0.187 HD
ATOM     26  H1  UNL     1       7.723   7.286  21.762  1.00  0.00     0.179 HD
BRANCH  23  27
HETATM   27  N4  UNL     1      12.577   8.101  25.752  1.00  0.00    -0.249 N 
HETATM   28  N5  UNL     1      13.562   7.400  26.135  1.00  0.00    -0.331 N 
ATOM     29  H52 UNL     1      13.441   6.694  26.860  1.00  0.00     0.178 HD
ATOM     30  H51 UNL     1      14.464   7.575  25.690  1.00  0.00     0.178 HD
ATOM     31  H4  UNL     1      12.682   8.812  25.027  1.00  0.00     0.207 HD
ENDBRANCH  23  27
ENDBRANCH   1  15
BRANCH   1  32
HETATM   32  N6  UNL     1       5.493   4.734  22.037  1.00  0.00    -0.161 NA
BRANCH  32  33
HETATM   33  C16 UNL     1       4.259   4.168  22.464  1.00  0.00     0.030 C 
HETATM   34  C17 UNL     1       4.615   2.923  23.292  1.00  0.00     0.034 C 
HETATM   35  C18 UNL     1       3.388   5.038  23.304  1.00  0.00     0.034 C 
HETATM   36  C19 UNL     1       3.424   3.658  21.289  1.00  0.00     0.034 C 
ENDBRANCH  32  33
ENDBRANCH   1  32
TORSDOF 9
ENDMDL
MODEL 5
REMARK VINA RESULT: -8.132252798      1.056      1.500
REMARK  9 active torsions:
REMARK  status: ('A' for Active; 'I' for Inactive)
REMARK    1  A    between atoms: C2_2  and  C3_3 
REMARK    2  A    between atoms: C6_6  and  C7_7 
REMARK    3  A    between atoms: C7_7  and  C8_8 
REMARK    4  A    between atoms: C8_8  and  C9_9 
REMARK    5  A    between atoms: C9_9  and  S1_10 
REMARK    6  A    between atoms: S1_10  and  N1_11 
REMARK    7  A    between atoms: S1_10  and  N6_28 
REMARK       I    between atoms: N1_11  and  C10_13 
REMARK       I    between atoms: C10_13  and  N2_15 
REMARK    8  A    between atoms: N3_19  and  N4_21 
REMARK    9  A    between atoms: N6_28  and  C16_29 
ROOT
HETATM    1  S1  UNL     1       6.758   8.007  22.255  1.00  0.00    -0.033 SA
ENDROOT
BRANCH   1   2
HETATM    2  C9  UNL     1       7.481   7.977  20.605  1.00  0.00     0.103 C 
BRANCH   2   3
HETATM    3  C8  UNL     1       7.760   6.527  20.273  1.00  0.00     0.014 C 
BRANCH   3   4
HETATM    4  C7  UNL     1       7.161   6.238  18.921  1.00  0.00     0.026 C 
BRANCH   4   5
HETATM    5  C6  UNL     1       6.652   4.804  18.904  1.00  0.00     0.085 C 
HETATM    6  C5  UNL     1       7.265   4.002  17.814  1.00  0.00     0.048 C 
HETATM    7  C3  UNL     1       7.945   2.832  18.453  1.00  0.00     0.056 C 
HETATM    8  C4  UNL     1       7.602   1.533  17.734  1.00  0.00     0.030 C 
HETATM    9  C20 UNL     1       7.347   2.816  19.811  1.00  0.00     0.230 C 
HETATM   10  N7  UNL     1       6.906   4.125  20.129  1.00  0.00    -0.355 N 
HETATM   11  O2  UNL     1       7.245   1.792  20.570  1.00  0.00    -0.272 OA
ATOM     12  H7  UNL     1       6.793   4.510  21.066  1.00  0.00     0.162 HD
BRANCH   7  13
HETATM   13  C2  UNL     1       9.400   3.015  18.513  1.00  0.00    -0.018 C 
HETATM   14  C1  UNL     1      10.217   1.992  18.450  1.00  0.00     0.008 C 
ENDBRANCH   7  13
ENDBRANCH   4   5
ENDBRANCH   3   4
ENDBRANCH   2   3
ENDBRANCH   1   2
BRANCH   1  15
HETATM   15  N1  UNL     1       8.122   8.404  23.302  1.00  0.00    -0.278 N 
HETATM   16  C10 UNL     1       7.976   8.081  24.675  1.00  0.00     0.328 C 
HETATM   17  O1  UNL     1       6.903   7.535  25.083  1.00  0.00    -0.246 OA
HETATM   18  N2  UNL     1       9.030   8.374  25.570  1.00  0.00    -0.333 N 
HETATM   19  C11 UNL     1       8.890   8.052  26.975  1.00  0.00     0.133 C 
HETATM   20  C15 UNL     1      10.235   8.984  25.112  1.00  0.00     0.133 C 
HETATM   21  C12 UNL     1      10.014   7.100  27.330  1.00  0.00     0.074 C 
HETATM   22  C13 UNL     1      11.289   7.756  26.990  1.00  0.00     0.008 C 
HETATM   23  N3  UNL     1      12.372   7.185  27.441  1.00  0.00    -0.295 N 
HETATM   24  C14 UNL     1      11.318   8.983  26.178  1.00  0.00     0.074 C 
ATOM     25  H3  UNL     1      12.325   6.331  27.997  1.00  0.00     0.187 HD
ATOM     26  H1  UNL     1       8.969   8.842  22.939  1.00  0.00     0.179 HD
BRANCH  23  27
HETATM   27  N4  UNL     1      13.594   7.782  27.138  1.00  0.00    -0.249 N 
HETATM   28  N5  UNL     1      14.326   7.208  26.276  1.00  0.00    -0.331 N 
ATOM     29  H52 UNL     1      14.018   6.344  25.830  1.00  0.00     0.178 HD
ATOM     30  H51 UNL     1      15.221   7.645  26.054  1.00  0.00     0.178 HD
ATOM     31  H4  UNL     1      13.889   8.647  27.592  1.00  0.00     0.207 HD
ENDBRANCH  23  27
ENDBRANCH   1  15
BRANCH   1  32
HETATM   32  N6  UNL     1       6.294   6.369  22.595  1.00  0.00    -0.161 NA
BRANCH  32  33
HETATM   33  C16 UNL     1       4.889   6.167  22.697  1.00  0.00     0.030 C 
HETATM   34  C17 UNL     1       4.269   7.549  22.960  1.00  0.00     0.034 C 
HETATM   35  C18 UNL     1       4.215   5.587  21.501  1.00  0.00     0.034 C 
HETATM   36  C19 UNL     1       4.519   5.311  23.909  1.00  0.00     0.034 C 
ENDBRANCH  32  33
ENDBRANCH   1  32
TORSDOF 9
ENDMDL
