MODEL 1
REMARK VINA RESULT: -7.018297711      0.000      0.000
REMARK  10 active torsions:
REMARK  status: ('A' for Active; 'I' for Inactive)
REMARK    1  A    between atoms: C2_2  and  N1_3 
REMARK    2  A    between atoms: N1_3  and  C3_4 
REMARK    3  A    between atoms: C3_4  and  C4_5 
REMARK    4  A    between atoms: C4_5  and  C5_6 
REMARK    5  A    between atoms: C5_6  and  N2_7 
REMARK    6  A    between atoms: N2_7  and  C6_9 
REMARK    7  A    between atoms: C6_9  and  N3_11 
REMARK    8  A    between atoms: N4_14  and  C10_16 
REMARK    9  A    between atoms: C10_16  and  C11_17 
REMARK   10  A    between atoms: C18_27  and  N6_28 
ROOT
HETATM    1  N1  UNL     1       6.813   2.842  20.046  1.00  0.00     0.057 N 
HETATM    2  N5  UNL     1       8.035   2.080  20.066  1.00  0.00    -0.179 N 
ATOM      3  H5  UNL     1       8.291   1.632  20.946  1.00  0.00     0.197 HD
HETATM    4  C16 UNL     1       8.909   1.902  18.969  1.00  0.00     0.244 C 
HETATM    5  O1  UNL     1       9.610   0.838  19.084  1.00  0.00    -0.272 OA
HETATM    6  C17 UNL     1       9.144   2.712  17.747  1.00  0.00     0.137 C 
HETATM    7  C18 UNL     1       7.863   3.140  17.138  1.00  0.00     0.199 C 
HETATM    8  C19 UNL     1       6.659   2.339  17.474  1.00  0.00     0.119 C 
HETATM    9  C20 UNL     1       6.130   2.508  18.842  1.00  0.00     0.205 C 
HETATM   10  N7  UNL     1       4.888   2.318  18.966  1.00  0.00    -0.381 N 
ATOM     11  H71 UNL     1       4.398   2.078  18.104  1.00  0.00     0.157 HD
ATOM     12  H72 UNL     1       4.523   2.435  19.912  1.00  0.00     0.157 HD
ENDROOT
BRANCH   1  13
HETATM   13  C2  UNL     1       6.058   2.270  21.138  1.00  0.00     0.269 C 
HETATM   14  C1  UNL     1       6.870   1.527  22.139  1.00  0.00     0.037 C 
ENDBRANCH   1  13
BRANCH   1  15
HETATM   15  C3  UNL     1       7.222   4.178  20.172  1.00  0.00     0.275 C 
BRANCH  15  16
HETATM   16  C4  UNL     1       6.373   5.314  19.837  1.00  0.00     0.050 C 
BRANCH  16  17
HETATM   17  C5  UNL     1       6.771   6.179  18.655  1.00  0.00     0.123 C 
BRANCH  17  18
HETATM   18  N2  UNL     1       6.897   7.565  19.045  1.00  0.00    -0.367 N 
ATOM     19  H2  UNL     1       7.558   8.116  18.497  1.00  0.00     0.161 HD
BRANCH  18  20
HETATM   20  C6  UNL     1       6.244   8.254  20.061  1.00  0.00     0.169 C 
HETATM   21  S1  UNL     1       5.113   9.391  19.535  1.00  0.00    -0.041 SA
BRANCH  20  22
HETATM   22  N3  UNL     1       6.364   8.160  21.446  1.00  0.00    -0.355 N 
HETATM   23  C7  UNL     1       5.296   8.171  22.380  1.00  0.00     0.153 C 
HETATM   24  C8  UNL     1       5.824   8.657  23.730  1.00  0.00     0.257 C 
HETATM   25  N4  UNL     1       6.853   7.811  24.295  1.00  0.00    -0.068 N 
HETATM   26  C9  UNL     1       6.183   6.815  25.103  1.00  0.00     0.272 C 
HETATM   27  C14 UNL     1       7.544   7.083  23.226  1.00  0.00     0.257 C 
HETATM   28  C15 UNL     1       7.718   8.016  22.023  1.00  0.00     0.153 C 
BRANCH  25  29
HETATM   29  C10 UNL     1       7.766   8.650  25.016  1.00  0.00     0.241 C 
BRANCH  29  30
HETATM   30  C11 UNL     1       9.161   8.129  25.164  1.00  0.00     0.003 C 
HETATM   31  C12 UNL     1      10.121   9.280  24.785  1.00  0.00     0.011 C 
HETATM   32  C13 UNL     1       9.523   7.747  26.576  1.00  0.00     0.011 C 
ENDBRANCH  29  30
ENDBRANCH  25  29
ENDBRANCH  20  22
ENDBRANCH  18  20
ENDBRANCH  17  18
ENDBRANCH  16  17
ENDBRANCH  15  16
ENDBRANCH   1  15
BRANCH   7  33
HETATM   33  N6  UNL     1       8.013   3.026  15.672  1.00  0.00    -0.074 N 
ATOM     34  H63 UNL     1       8.854   3.485  15.319  1.00  0.00     0.274 HD
ATOM     35  H62 UNL     1       8.240   2.080  15.366  1.00  0.00     0.274 HD
ATOM     36  H61 UNL     1       7.157   3.386  15.251  1.00  0.00     0.274 HD
ENDBRANCH   7  33
TORSDOF 10
ENDMDL
MODEL 2
REMARK VINA RESULT: -6.612930253      3.099      7.639
REMARK  10 active torsions:
REMARK  status: ('A' for Active; 'I' for Inactive)
REMARK    1  A    between atoms: C2_2  and  N1_3 
REMARK    2  A    between atoms: N1_3  and  C3_4 
REMARK    3  A    between atoms: C3_4  and  C4_5 
REMARK    4  A    between atoms: C4_5  and  C5_6 
REMARK    5  A    between atoms: C5_6  and  N2_7 
REMARK    6  A    between atoms: N2_7  and  C6_9 
REMARK    7  A    between atoms: C6_9  and  N3_11 
REMARK    8  A    between atoms: N4_14  and  C10_16 
REMARK    9  A    between atoms: C10_16  and  C11_17 
REMARK   10  A    between atoms: C18_27  and  N6_28 
ROOT
HETATM    1  N1  UNL     1       5.019   7.289  23.362  1.00  0.00     0.057 N 
HETATM    2  N5  UNL     1       3.589   7.324  23.197  1.00  0.00    -0.179 N 
ATOM      3  H5  UNL     1       3.187   6.724  22.477  1.00  0.00     0.197 HD
HETATM    4  C16 UNL     1       2.695   8.121  23.951  1.00  0.00     0.244 C 
HETATM    5  O1  UNL     1       1.515   7.629  23.968  1.00  0.00    -0.272 OA
HETATM    6  C17 UNL     1       2.887   9.387  24.702  1.00  0.00     0.137 C 
HETATM    7  C18 UNL     1       4.125   9.340  25.516  1.00  0.00     0.199 C 
HETATM    8  C19 UNL     1       4.650   7.995  25.863  1.00  0.00     0.119 C 
HETATM    9  C20 UNL     1       5.280   7.242  24.760  1.00  0.00     0.205 C 
HETATM   10  N7  UNL     1       6.178   6.427  25.110  1.00  0.00    -0.381 N 
ATOM     11  H71 UNL     1       6.365   6.393  26.113  1.00  0.00     0.157 HD
ATOM     12  H72 UNL     1       6.614   5.907  24.348  1.00  0.00     0.157 HD
ENDROOT
BRANCH   1  13
HETATM   13  C2  UNL     1       5.375   5.998  22.817  1.00  0.00     0.269 C 
HETATM   14  C1  UNL     1       4.243   5.233  22.230  1.00  0.00     0.037 C 
ENDBRANCH   1  13
BRANCH   1  15
HETATM   15  C3  UNL     1       5.485   8.427  22.685  1.00  0.00     0.275 C 
BRANCH  15  16
HETATM   16  C4  UNL     1       5.528   8.539  21.233  1.00  0.00     0.050 C 
BRANCH  16  17
HETATM   17  C5  UNL     1       6.875   8.778  20.574  1.00  0.00     0.123 C 
BRANCH  17  18
HETATM   18  N2  UNL     1       6.916   8.195  19.252  1.00  0.00    -0.367 N 
ATOM     19  H2  UNL     1       7.369   8.765  18.537  1.00  0.00     0.161 HD
BRANCH  18  20
HETATM   20  C6  UNL     1       6.426   6.969  18.817  1.00  0.00     0.169 C 
HETATM   21  S1  UNL     1       5.237   7.063  17.623  1.00  0.00    -0.041 SA
BRANCH  20  22
HETATM   22  N3  UNL     1       6.754   5.671  19.201  1.00  0.00    -0.355 N 
HETATM   23  C7  UNL     1       7.541   5.305  20.324  1.00  0.00     0.153 C 
HETATM   24  C8  UNL     1       8.164   3.932  20.066  1.00  0.00     0.257 C 
HETATM   25  N4  UNL     1       7.193   2.874  19.885  1.00  0.00    -0.068 N 
HETATM   26  C9  UNL     1       6.923   2.321  21.195  1.00  0.00     0.272 C 
HETATM   27  C14 UNL     1       5.928   3.434  19.401  1.00  0.00     0.257 C 
HETATM   28  C15 UNL     1       6.232   4.548  18.392  1.00  0.00     0.153 C 
BRANCH  25  29
HETATM   29  C10 UNL     1       7.733   1.939  18.941  1.00  0.00     0.241 C 
BRANCH  29  30
HETATM   30  C11 UNL     1       9.121   2.219  18.456  1.00  0.00     0.003 C 
HETATM   31  C12 UNL     1       9.951   0.934  18.679  1.00  0.00     0.011 C 
HETATM   32  C13 UNL     1       9.204   2.505  16.979  1.00  0.00     0.011 C 
ENDBRANCH  29  30
ENDBRANCH  25  29
ENDBRANCH  20  22
ENDBRANCH  18  20
ENDBRANCH  17  18
ENDBRANCH  16  17
ENDBRANCH  15  16
ENDBRANCH   1  15
BRANCH   7  33
HETATM   33  N6  UNL     1       3.824   9.989  26.810  1.00  0.00    -0.074 N 
ATOM     34  H63 UNL     1       4.265  10.904  26.910  1.00  0.00     0.274 HD
ATOM     35  H62 UNL     1       2.856  10.300  26.885  1.00  0.00     0.274 HD
ATOM     36  H61 UNL     1       4.091   9.336  27.546  1.00  0.00     0.274 HD
ENDBRANCH   7  33
TORSDOF 10
ENDMDL
MODEL 3
REMARK VINA RESULT: -6.587435568      1.712      2.903
REMARK  10 active torsions:
REMARK  status: ('A' for Active; 'I' for Inactive)
REMARK    1  A    between atoms: C2_2  and  N1_3 
REMARK    2  A    between atoms: N1_3  and  C3_4 
REMARK    3  A    between atoms: C3_4  and  C4_5 
REMARK    4  A    between atoms: C4_5  and  C5_6 
REMARK    5  A    between atoms: C5_6  and  N2_7 
REMARK    6  A    between atoms: N2_7  and  C6_9 
REMARK    7  A    between atoms: C6_9  and  N3_11 
REMARK    8  A    between atoms: N4_14  and  C10_16 
REMARK    9  A    between atoms: C10_16  and  C11_17 
REMARK   10  A    between atoms: C18_27  and  N6_28 
ROOT
HETATM    1  N1  UNL     1       6.816   2.827  19.996  1.00  0.00     0.057 N 
HETATM    2  N5  UNL     1       8.038   2.067  20.042  1.00  0.00    -0.179 N 
ATOM      3  H5  UNL     1       8.268   1.606  20.922  1.00  0.00     0.197 HD
HETATM    4  C16 UNL     1       8.945   1.906  18.969  1.00  0.00     0.244 C 
HETATM    5  O1  UNL     1       9.643   0.841  19.089  1.00  0.00    -0.272 OA
HETATM    6  C17 UNL     1       9.215   2.733  17.766  1.00  0.00     0.137 C 
HETATM    7  C18 UNL     1       7.952   3.170  17.126  1.00  0.00     0.199 C 
HETATM    8  C19 UNL     1       6.739   2.362  17.414  1.00  0.00     0.119 C 
HETATM    9  C20 UNL     1       6.170   2.510  18.768  1.00  0.00     0.205 C 
HETATM   10  N7  UNL     1       4.925   2.317  18.852  1.00  0.00    -0.381 N 
ATOM     11  H71 UNL     1       4.462   2.090  17.972  1.00  0.00     0.157 HD
ATOM     12  H72 UNL     1       4.532   2.420  19.788  1.00  0.00     0.157 HD
ENDROOT
BRANCH   1  13
HETATM   13  C2  UNL     1       6.029   2.239  21.057  1.00  0.00     0.269 C 
HETATM   14  C1  UNL     1       6.821   1.625  22.156  1.00  0.00     0.037 C 
ENDBRANCH   1  13
BRANCH   1  15
HETATM   15  C3  UNL     1       7.218   4.163  20.154  1.00  0.00     0.275 C 
BRANCH  15  16
HETATM   16  C4  UNL     1       6.356   5.302  19.869  1.00  0.00     0.050 C 
BRANCH  16  17
HETATM   17  C5  UNL     1       6.811   6.295  18.813  1.00  0.00     0.123 C 
BRANCH  17  18
HETATM   18  N2  UNL     1       6.995   7.610  19.383  1.00  0.00    -0.367 N 
ATOM     19  H2  UNL     1       6.900   8.387  18.729  1.00  0.00     0.161 HD
BRANCH  18  20
HETATM   20  C6  UNL     1       7.283   7.966  20.696  1.00  0.00     0.169 C 
HETATM   21  S1  UNL     1       8.800   8.668  20.925  1.00  0.00    -0.041 SA
BRANCH  20  22
HETATM   22  N3  UNL     1       6.525   7.842  21.859  1.00  0.00    -0.355 N 
HETATM   23  C7  UNL     1       6.919   7.172  23.046  1.00  0.00     0.153 C 
HETATM   24  C8  UNL     1       5.667   6.734  23.807  1.00  0.00     0.257 C 
HETATM   25  N4  UNL     1       4.820   7.832  24.219  1.00  0.00    -0.068 N 
HETATM   26  C9  UNL     1       5.272   8.243  25.532  1.00  0.00     0.272 C 
HETATM   27  C14 UNL     1       5.023   8.981  23.331  1.00  0.00     0.257 C 
HETATM   28  C15 UNL     1       5.189   8.474  21.894  1.00  0.00     0.153 C 
BRANCH  25  29
HETATM   29  C10 UNL     1       3.460   7.382  24.170  1.00  0.00     0.241 C 
BRANCH  29  30
HETATM   30  C11 UNL     1       2.899   6.842  25.449  1.00  0.00     0.003 C 
HETATM   31  C12 UNL     1       1.614   7.644  25.759  1.00  0.00     0.011 C 
HETATM   32  C13 UNL     1       2.468   5.401  25.364  1.00  0.00     0.011 C 
ENDBRANCH  29  30
ENDBRANCH  25  29
ENDBRANCH  20  22
ENDBRANCH  18  20
ENDBRANCH  17  18
ENDBRANCH  16  17
ENDBRANCH  15  16
ENDBRANCH   1  15
BRANCH   7  33
HETATM   33  N6  UNL     1       8.146   3.077  15.663  1.00  0.00    -0.074 N 
ATOM     34  H63 UNL     1       7.968   3.959  15.180  1.00  0.00     0.274 HD
ATOM     35  H62 UNL     1       9.125   2.975  15.396  1.00  0.00     0.274 HD
ATOM     36  H61 UNL     1       7.559   2.314  15.327  1.00  0.00     0.274 HD
ENDBRANCH   7  33
TORSDOF 10
ENDMDL
MODEL 4
REMARK VINA RESULT: -6.486551632      2.858      7.451
REMARK  10 active torsions:
REMARK  status: ('A' for Active; 'I' for Inactive)
REMARK    1  A    between atoms: C2_2  and  N1_3 
REMARK    2  A    between atoms: N1_3  and  C3_4 
REMARK    3  A    between atoms: C3_4  and  C4_5 
REMARK    4  A    between atoms: C4_5  and  C5_6 
REMARK    5  A    between atoms: C5_6  and  N2_7 
REMARK    6  A    between atoms: N2_7  and  C6_9 
REMARK    7  A    between atoms: C6_9  and  N3_11 
REMARK    8  A    between atoms: N4_14  and  C10_16 
REMARK    9  A    between atoms: C10_16  and  C11_17 
REMARK   10  A    between atoms: C18_27  and  N6_28 
ROOT
HETATM    1  N1  UNL     1       5.105   8.348  22.525  1.00  0.00     0.057 N 
HETATM    2  N5  UNL     1       6.363   8.475  21.836  1.00  0.00    -0.179 N 
ATOM      3  H5  UNL     1       6.341   8.862  20.893  1.00  0.00     0.197 HD
HETATM    4  C16 UNL     1       7.626   8.107  22.357  1.00  0.00     0.244 C 
HETATM    5  O1  UNL     1       8.579   8.748  21.795  1.00  0.00    -0.272 OA
HETATM    6  C17 UNL     1       8.020   7.138  23.410  1.00  0.00     0.137 C 
HETATM    7  C18 UNL     1       7.145   7.261  24.600  1.00  0.00     0.199 C 
HETATM    8  C19 UNL     1       6.433   8.553  24.780  1.00  0.00     0.119 C 
HETATM    9  C20 UNL     1       5.309   8.806  23.858  1.00  0.00     0.205 C 
HETATM   10  N7  UNL     1       4.394   9.547  24.315  1.00  0.00    -0.381 N 
ATOM     11  H71 UNL     1       4.541   9.875  25.270  1.00  0.00     0.157 HD
ATOM     12  H72 UNL     1       3.617   9.722  23.677  1.00  0.00     0.157 HD
ENDROOT
BRANCH   1  13
HETATM   13  C2  UNL     1       4.273   9.325  21.860  1.00  0.00     0.269 C 
HETATM   14  C1  UNL     1       4.377   9.331  20.377  1.00  0.00     0.037 C 
ENDBRANCH   1  13
BRANCH   1  15
HETATM   15  C3  UNL     1       4.754   6.996  22.384  1.00  0.00     0.275 C 
BRANCH  15  16
HETATM   16  C4  UNL     1       3.584   6.399  23.014  1.00  0.00     0.050 C 
BRANCH  16  17
HETATM   17  C5  UNL     1       3.793   5.188  23.905  1.00  0.00     0.123 C 
BRANCH  17  18
HETATM   18  N2  UNL     1       4.987   4.467  23.530  1.00  0.00    -0.367 N 
ATOM     19  H2  UNL     1       5.800   4.627  24.124  1.00  0.00     0.161 HD
BRANCH  18  20
HETATM   20  C6  UNL     1       5.185   3.585  22.472  1.00  0.00     0.169 C 
HETATM   21  S1  UNL     1       4.480   2.065  22.675  1.00  0.00    -0.041 SA
BRANCH  20  22
HETATM   22  N3  UNL     1       5.866   3.747  21.268  1.00  0.00    -0.355 N 
HETATM   23  C7  UNL     1       5.340   3.513  19.972  1.00  0.00     0.153 C 
HETATM   24  C8  UNL     1       6.494   3.208  19.016  1.00  0.00     0.257 C 
HETATM   25  N4  UNL     1       7.444   4.290  18.882  1.00  0.00    -0.068 N 
HETATM   26  C9  UNL     1       6.982   5.124  17.792  1.00  0.00     0.272 C 
HETATM   27  C14 UNL     1       7.420   5.128  20.085  1.00  0.00     0.257 C 
HETATM   28  C15 UNL     1       7.265   4.226  21.314  1.00  0.00     0.153 C 
BRANCH  25  29
HETATM   29  C10 UNL     1       8.743   3.715  18.684  1.00  0.00     0.241 C 
BRANCH  29  30
HETATM   30  C11 UNL     1       8.769   2.329  18.117  1.00  0.00     0.003 C 
HETATM   31  C12 UNL     1       9.136   2.456  16.621  1.00  0.00     0.011 C 
HETATM   32  C13 UNL     1       9.828   1.445  18.722  1.00  0.00     0.011 C 
ENDBRANCH  29  30
ENDBRANCH  25  29
ENDBRANCH  20  22
ENDBRANCH  18  20
ENDBRANCH  17  18
ENDBRANCH  16  17
ENDBRANCH  15  16
ENDBRANCH   1  15
BRANCH   7  33
HETATM   33  N6  UNL     1       8.005   7.119  25.795  1.00  0.00    -0.074 N 
ATOM     34  H63 UNL     1       8.648   7.901  25.920  1.00  0.00     0.274 HD
ATOM     35  H62 UNL     1       7.492   7.227  26.670  1.00  0.00     0.274 HD
ATOM     36  H61 UNL     1       8.480   6.220  25.720  1.00  0.00     0.274 HD
ENDBRANCH   7  33
TORSDOF 10
ENDMDL
MODEL 5
REMARK VINA RESULT: -6.442936288      2.629      3.913
REMARK  10 active torsions:
REMARK  status: ('A' for Active; 'I' for Inactive)
REMARK    1  A    between atoms: C2_2  and  N1_3 
REMARK    2  A    between atoms: N1_3  and  C3_4 
REMARK    3  A    between atoms: C3_4  and  C4_5 
REMARK    4  A    between atoms: C4_5  and  C5_6 
REMARK    5  A    between atoms: C5_6  and  N2_7 
REMARK    6  A    between atoms: N2_7  and  C6_9 
REMARK    7  A    between atoms: C6_9  and  N3_11 
REMARK    8  A    between atoms: N4_14  and  C10_16 
REMARK    9  A    between atoms: C10_16  and  C11_17 
REMARK   10  A    between atoms: C18_27  and  N6_28 
ROOT
HETATM    1  N1  UNL     1       6.830   2.910  20.004  1.00  0.00     0.057 N 
HETATM    2  N5  UNL     1       8.035   2.124  20.051  1.00  0.00    -0.179 N 
ATOM      3  H5  UNL     1       8.259   1.665  20.934  1.00  0.00     0.197 HD
HETATM    4  C16 UNL     1       8.934   1.935  18.975  1.00  0.00     0.244 C 
HETATM    5  O1  UNL     1       9.610   0.857  19.102  1.00  0.00    -0.272 OA
HETATM    6  C17 UNL     1       9.218   2.747  17.765  1.00  0.00     0.137 C 
HETATM    7  C18 UNL     1       7.961   3.206  17.127  1.00  0.00     0.199 C 
HETATM    8  C19 UNL     1       6.733   2.426  17.426  1.00  0.00     0.119 C 
HETATM    9  C20 UNL     1       6.172   2.597  18.781  1.00  0.00     0.205 C 
HETATM   10  N7  UNL     1       4.924   2.431  18.871  1.00  0.00    -0.381 N 
ATOM     11  H71 UNL     1       4.452   2.207  17.994  1.00  0.00     0.157 HD
ATOM     12  H72 UNL     1       4.536   2.549  19.807  1.00  0.00     0.157 HD
ENDROOT
BRANCH   1  13
HETATM   13  C2  UNL     1       6.035   2.346  21.072  1.00  0.00     0.269 C 
HETATM   14  C1  UNL     1       6.814   1.656  22.135  1.00  0.00     0.037 C 
ENDBRANCH   1  13
BRANCH   1  15
HETATM   15  C3  UNL     1       7.261   4.237  20.150  1.00  0.00     0.275 C 
BRANCH  15  16
HETATM   16  C4  UNL     1       6.561   5.226  20.960  1.00  0.00     0.050 C 
BRANCH  16  17
HETATM   17  C5  UNL     1       7.330   6.456  21.408  1.00  0.00     0.123 C 
BRANCH  17  18
HETATM   18  N2  UNL     1       7.561   6.432  22.834  1.00  0.00    -0.367 N 
ATOM     19  H2  UNL     1       7.975   5.573  23.196  1.00  0.00     0.161 HD
BRANCH  18  20
HETATM   20  C6  UNL     1       7.301   7.415  23.783  1.00  0.00     0.169 C 
HETATM   21  S1  UNL     1       8.670   8.167  24.421  1.00  0.00    -0.041 SA
BRANCH  20  22
HETATM   22  N3  UNL     1       6.094   7.888  24.294  1.00  0.00    -0.355 N 
HETATM   23  C7  UNL     1       5.925   9.033  25.115  1.00  0.00     0.153 C 
HETATM   24  C8  UNL     1       4.645   8.870  25.935  1.00  0.00     0.257 C 
HETATM   25  N4  UNL     1       3.446   8.762  25.132  1.00  0.00    -0.068 N 
HETATM   26  C9  UNL     1       2.950  10.108  24.933  1.00  0.00     0.272 C 
HETATM   27  C14 UNL     1       3.780   8.242  23.803  1.00  0.00     0.257 C 
HETATM   28  C15 UNL     1       4.854   7.159  23.950  1.00  0.00     0.153 C 
BRANCH  25  29
HETATM   29  C10 UNL     1       2.538   7.886  25.812  1.00  0.00     0.241 C 
BRANCH  29  30
HETATM   30  C11 UNL     1       1.094   8.013  25.435  1.00  0.00     0.003 C 
HETATM   31  C12 UNL     1       0.608   6.608  25.011  1.00  0.00     0.011 C 
HETATM   32  C13 UNL     1       0.201   8.424  26.577  1.00  0.00     0.011 C 
ENDBRANCH  29  30
ENDBRANCH  25  29
ENDBRANCH  20  22
ENDBRANCH  18  20
ENDBRANCH  17  18
ENDBRANCH  16  17
ENDBRANCH  15  16
ENDBRANCH   1  15
BRANCH   7  33
HETATM   33  N6  UNL     1       8.147   3.098  15.664  1.00  0.00    -0.074 N 
ATOM     34  H63 UNL     1       8.172   4.005  15.197  1.00  0.00     0.274 HD
ATOM     35  H62 UNL     1       9.083   2.788  15.403  1.00  0.00     0.274 HD
ATOM     36  H61 UNL     1       7.412   2.487  15.309  1.00  0.00     0.274 HD
ENDBRANCH   7  33
TORSDOF 10
ENDMDL
