MODEL 1
REMARK VINA RESULT: -7.441978532      0.000      0.000
REMARK  9 active torsions:
REMARK  status: ('A' for Active; 'I' for Inactive)
REMARK    1  A    between atoms: C2_2  and  C4_4 
REMARK    2  A    between atoms: C4_4  and  C5_5 
REMARK    3  A    between atoms: N3_20  and  C14_21 
REMARK    4  A    between atoms: C14_21  and  O3_22 
REMARK    5  A    between atoms: C14_21  and  C15_24 
REMARK    6  A    between atoms: C15_24  and  C16_25 
REMARK    7  A    between atoms: C16_25  and  C17_26 
REMARK    8  A    between atoms: C17_26  and  C18_27 
REMARK    9  A    between atoms: C18_27  and  N4_28 
ROOT
HETATM    1  C5  UNL     1       7.913   7.477  24.479  1.00  0.00     0.177 C 
HETATM    2  N1  UNL     1       6.941   6.813  25.272  1.00  0.00    -0.346 N 
ATOM      3  H1  UNL     1       7.204   6.419  26.176  1.00  0.00     0.163 HD
HETATM    4  C6  UNL     1       5.580   6.696  24.798  1.00  0.00     0.250 C 
HETATM    5  O1  UNL     1       4.738   6.683  25.747  1.00  0.00    -0.271 OA
HETATM    6  C7  UNL     1       5.258   6.604  23.352  1.00  0.00     0.155 C 
HETATM    7  C8  UNL     1       4.148   5.614  23.041  1.00  0.00     0.118 C 
HETATM    8  C9  UNL     1       3.530   5.997  21.722  1.00  0.00     0.020 C 
HETATM    9  C10 UNL     1       3.941   7.415  21.518  1.00  0.00     0.035 C 
HETATM   10  C11 UNL     1       4.464   7.771  22.899  1.00  0.00     0.064 C 
HETATM   11  C12 UNL     1       4.969   9.117  22.930  1.00  0.00     0.041 C 
HETATM   12  N2  UNL     1       3.287   7.612  23.784  1.00  0.00    -0.349 N 
ATOM     13  H2  UNL     1       2.719   8.362  24.178  1.00  0.00     0.163 HD
HETATM   14  C13 UNL     1       3.097   6.198  23.982  1.00  0.00     0.225 C 
HETATM   15  O2  UNL     1       2.300   5.593  24.716  1.00  0.00    -0.273 OA
HETATM   16  N3  UNL     1       6.508   6.333  22.670  1.00  0.00    -0.302 N 
HETATM   17  C22 UNL     1       7.571   7.226  23.054  1.00  0.00     0.245 C 
HETATM   18  O4  UNL     1       8.239   7.816  22.180  1.00  0.00    -0.271 OA
ENDROOT
BRANCH  16  19
HETATM   19  C14 UNL     1       6.745   5.295  21.705  1.00  0.00     0.224 C 
BRANCH  19  20
HETATM   20  O3  UNL     1       7.972   4.608  21.873  1.00  0.00    -0.377 OA
ATOM     21  H3  UNL     1       7.937   3.682  21.662  1.00  0.00     0.212 HD
ENDBRANCH  19  20
BRANCH  19  22
HETATM   22  C15 UNL     1       6.706   5.693  20.268  1.00  0.00     0.054 C 
BRANCH  22  23
HETATM   23  C16 UNL     1       8.067   5.518  19.571  1.00  0.00     0.006 C 
BRANCH  23  24
HETATM   24  C17 UNL     1       8.071   4.424  18.560  1.00  0.00     0.028 C 
BRANCH  24  25
HETATM   25  C18 UNL     1       9.120   3.386  18.713  1.00  0.00     0.236 C 
BRANCH  25  26
HETATM   26  N4  UNL     1       8.722   2.021  18.699  1.00  0.00    -0.079 N 
HETATM   27  C19 UNL     1       9.755   1.045  18.777  1.00  0.00     0.271 C 
HETATM   28  C20 UNL     1       7.901   1.718  17.523  1.00  0.00     0.271 C 
HETATM   29  C21 UNL     1       7.807   1.786  19.833  1.00  0.00     0.271 C 
ENDBRANCH  25  26
ENDBRANCH  24  25
ENDBRANCH  23  24
ENDBRANCH  22  23
ENDBRANCH  19  22
ENDBRANCH  16  19
BRANCH   1  30
HETATM   30  C4  UNL     1       8.305   8.845  24.834  1.00  0.00     0.038 C 
BRANCH  30  31
HETATM   31  C2  UNL     1       9.659   9.001  25.430  1.00  0.00    -0.020 C 
HETATM   32  C1  UNL     1      10.094   7.944  26.377  1.00  0.00     0.009 C 
HETATM   33  C3  UNL     1      10.748   9.095  24.352  1.00  0.00     0.009 C 
ENDBRANCH  30  31
ENDBRANCH   1  30
TORSDOF 9
ENDMDL
MODEL 2
REMARK VINA RESULT: -6.836638838      0.787      1.240
REMARK  9 active torsions:
REMARK  status: ('A' for Active; 'I' for Inactive)
REMARK    1  A    between atoms: C2_2  and  C4_4 
REMARK    2  A    between atoms: C4_4  and  C5_5 
REMARK    3  A    between atoms: N3_20  and  C14_21 
REMARK    4  A    between atoms: C14_21  and  O3_22 
REMARK    5  A    between atoms: C14_21  and  C15_24 
REMARK    6  A    between atoms: C15_24  and  C16_25 
REMARK    7  A    between atoms: C16_25  and  C17_26 
REMARK    8  A    between atoms: C17_26  and  C18_27 
REMARK    9  A    between atoms: C18_27  and  N4_28 
ROOT
HETATM    1  C5  UNL     1       7.771   7.413  24.511  1.00  0.00     0.177 C 
HETATM    2  N1  UNL     1       6.779   6.737  25.268  1.00  0.00    -0.346 N 
ATOM      3  H1  UNL     1       7.021   6.315  26.165  1.00  0.00     0.163 HD
HETATM    4  C6  UNL     1       5.425   6.647  24.767  1.00  0.00     0.250 C 
HETATM    5  O1  UNL     1       4.566   6.616  25.700  1.00  0.00    -0.271 OA
HETATM    6  C7  UNL     1       5.128   6.600  23.313  1.00  0.00     0.155 C 
HETATM    7  C8  UNL     1       4.015   5.630  22.954  1.00  0.00     0.118 C 
HETATM    8  C9  UNL     1       3.425   6.056  21.636  1.00  0.00     0.020 C 
HETATM    9  C10 UNL     1       3.853   7.476  21.480  1.00  0.00     0.035 C 
HETATM   10  C11 UNL     1       4.354   7.787  22.880  1.00  0.00     0.064 C 
HETATM   11  C12 UNL     1       4.871   9.126  22.958  1.00  0.00     0.041 C 
HETATM   12  N2  UNL     1       3.160   7.615  23.738  1.00  0.00    -0.349 N 
ATOM     13  H2  UNL     1       2.592   8.360  24.143  1.00  0.00     0.163 HD
HETATM   14  C13 UNL     1       2.952   6.197  23.893  1.00  0.00     0.225 C 
HETATM   15  O2  UNL     1       2.137   5.581  24.595  1.00  0.00    -0.273 OA
HETATM   16  N3  UNL     1       6.388   6.335  22.647  1.00  0.00    -0.302 N 
HETATM   17  C22 UNL     1       7.452   7.206  23.074  1.00  0.00     0.245 C 
HETATM   18  O4  UNL     1       8.142   7.814  22.229  1.00  0.00    -0.271 OA
ENDROOT
BRANCH  16  19
HETATM   19  C14 UNL     1       6.633   5.322  21.656  1.00  0.00     0.224 C 
BRANCH  19  20
HETATM   20  O3  UNL     1       7.817   4.574  21.863  1.00  0.00    -0.377 OA
ATOM     21  H3  UNL     1       7.844   3.743  21.403  1.00  0.00     0.212 HD
ENDBRANCH  19  20
BRANCH  19  22
HETATM   22  C15 UNL     1       6.689   5.773  20.235  1.00  0.00     0.054 C 
BRANCH  22  23
HETATM   23  C16 UNL     1       8.067   5.527  19.595  1.00  0.00     0.006 C 
BRANCH  23  24
HETATM   24  C17 UNL     1       8.030   4.528  18.490  1.00  0.00     0.028 C 
BRANCH  24  25
HETATM   25  C18 UNL     1       6.701   3.953  18.164  1.00  0.00     0.236 C 
BRANCH  25  26
HETATM   26  N4  UNL     1       6.433   2.614  18.560  1.00  0.00    -0.079 N 
HETATM   27  C19 UNL     1       5.329   2.408  19.436  1.00  0.00     0.271 C 
HETATM   28  C20 UNL     1       7.613   1.991  19.165  1.00  0.00     0.271 C 
HETATM   29  C21 UNL     1       6.193   1.804  17.350  1.00  0.00     0.271 C 
ENDBRANCH  25  26
ENDBRANCH  24  25
ENDBRANCH  23  24
ENDBRANCH  22  23
ENDBRANCH  19  22
ENDBRANCH  16  19
BRANCH   1  30
HETATM   30  C4  UNL     1       8.169   8.767  24.912  1.00  0.00     0.038 C 
BRANCH  30  31
HETATM   31  C2  UNL     1       9.528   8.898  25.503  1.00  0.00    -0.020 C 
HETATM   32  C1  UNL     1       9.991   7.777  26.362  1.00  0.00     0.009 C 
HETATM   33  C3  UNL     1      10.602   9.091  24.424  1.00  0.00     0.009 C 
ENDBRANCH  30  31
ENDBRANCH   1  30
TORSDOF 9
ENDMDL
MODEL 3
REMARK VINA RESULT: -6.664571157      1.500      1.995
REMARK  9 active torsions:
REMARK  status: ('A' for Active; 'I' for Inactive)
REMARK    1  A    between atoms: C2_2  and  C4_4 
REMARK    2  A    between atoms: C4_4  and  C5_5 
REMARK    3  A    between atoms: N3_20  and  C14_21 
REMARK    4  A    between atoms: C14_21  and  O3_22 
REMARK    5  A    between atoms: C14_21  and  C15_24 
REMARK    6  A    between atoms: C15_24  and  C16_25 
REMARK    7  A    between atoms: C16_25  and  C17_26 
REMARK    8  A    between atoms: C17_26  and  C18_27 
REMARK    9  A    between atoms: C18_27  and  N4_28 
ROOT
HETATM    1  C5  UNL     1       7.797   7.367  24.476  1.00  0.00     0.177 C 
HETATM    2  N1  UNL     1       6.759   6.678  25.155  1.00  0.00    -0.346 N 
ATOM      3  H1  UNL     1       6.940   6.248  26.062  1.00  0.00     0.163 HD
HETATM    4  C6  UNL     1       5.443   6.586  24.560  1.00  0.00     0.250 C 
HETATM    5  O1  UNL     1       4.522   6.541  25.431  1.00  0.00    -0.271 OA
HETATM    6  C7  UNL     1       5.248   6.552  23.089  1.00  0.00     0.155 C 
HETATM    7  C8  UNL     1       4.168   5.581  22.644  1.00  0.00     0.118 C 
HETATM    8  C9  UNL     1       3.668   6.018  21.292  1.00  0.00     0.020 C 
HETATM    9  C10 UNL     1       4.098   7.441  21.181  1.00  0.00     0.035 C 
HETATM   10  C11 UNL     1       4.499   7.740  22.615  1.00  0.00     0.064 C 
HETATM   11  C12 UNL     1       5.002   9.081  22.742  1.00  0.00     0.041 C 
HETATM   12  N2  UNL     1       3.250   7.553  23.387  1.00  0.00    -0.349 N 
ATOM     13  H2  UNL     1       2.651   8.291  23.759  1.00  0.00     0.163 HD
HETATM   14  C13 UNL     1       3.040   6.133  23.513  1.00  0.00     0.225 C 
HETATM   15  O2  UNL     1       2.181   5.505  24.150  1.00  0.00    -0.273 OA
HETATM   16  N3  UNL     1       6.553   6.301  22.509  1.00  0.00    -0.302 N 
HETATM   17  C22 UNL     1       7.580   7.173  23.018  1.00  0.00     0.245 C 
HETATM   18  O4  UNL     1       8.323   7.793  22.229  1.00  0.00    -0.271 OA
ENDROOT
BRANCH  16  19
HETATM   19  C14 UNL     1       6.871   5.300  21.527  1.00  0.00     0.224 C 
BRANCH  19  20
HETATM   20  O3  UNL     1       7.983   4.487  21.859  1.00  0.00    -0.377 OA
ATOM     21  H3  UNL     1       8.827   4.908  21.739  1.00  0.00     0.212 HD
ENDBRANCH  19  20
BRANCH  19  22
HETATM   22  C15 UNL     1       7.129   5.780  20.139  1.00  0.00     0.054 C 
BRANCH  22  23
HETATM   23  C16 UNL     1       8.198   4.941  19.416  1.00  0.00     0.006 C 
BRANCH  23  24
HETATM   24  C17 UNL     1       7.780   4.504  18.055  1.00  0.00     0.028 C 
BRANCH  24  25
HETATM   25  C18 UNL     1       6.592   5.182  17.479  1.00  0.00     0.236 C 
BRANCH  25  26
HETATM   26  N4  UNL     1       6.122   4.750  16.209  1.00  0.00    -0.079 N 
HETATM   27  C19 UNL     1       6.364   5.613  15.102  1.00  0.00     0.271 C 
HETATM   28  C20 UNL     1       4.688   4.451  16.245  1.00  0.00     0.271 C 
HETATM   29  C21 UNL     1       6.742   3.448  15.896  1.00  0.00     0.271 C 
ENDBRANCH  25  26
ENDBRANCH  24  25
ENDBRANCH  23  24
ENDBRANCH  22  23
ENDBRANCH  19  22
ENDBRANCH  16  19
BRANCH   1  30
HETATM   30  C4  UNL     1       8.159   8.718  24.917  1.00  0.00     0.038 C 
BRANCH  30  31
HETATM   31  C2  UNL     1       9.474   8.850  25.600  1.00  0.00    -0.020 C 
HETATM   32  C1  UNL     1       9.899   7.708  26.449  1.00  0.00     0.009 C 
HETATM   33  C3  UNL     1      10.612   9.098  24.601  1.00  0.00     0.009 C 
ENDBRANCH  30  31
ENDBRANCH   1  30
TORSDOF 9
ENDMDL
MODEL 4
REMARK VINA RESULT: -6.593881614      2.323      7.048
REMARK  9 active torsions:
REMARK  status: ('A' for Active; 'I' for Inactive)
REMARK    1  A    between atoms: C2_2  and  C4_4 
REMARK    2  A    between atoms: C4_4  and  C5_5 
REMARK    3  A    between atoms: N3_20  and  C14_21 
REMARK    4  A    between atoms: C14_21  and  O3_22 
REMARK    5  A    between atoms: C14_21  and  C15_24 
REMARK    6  A    between atoms: C15_24  and  C16_25 
REMARK    7  A    between atoms: C16_25  and  C17_26 
REMARK    8  A    between atoms: C17_26  and  C18_27 
REMARK    9  A    between atoms: C18_27  and  N4_28 
ROOT
HETATM    1  C5  UNL     1       6.630   5.317  21.149  1.00  0.00     0.177 C 
HETATM    2  N1  UNL     1       7.634   5.681  22.084  1.00  0.00    -0.346 N 
ATOM      3  H1  UNL     1       8.543   5.219  22.063  1.00  0.00     0.163 HD
HETATM    4  C6  UNL     1       7.367   6.709  23.066  1.00  0.00     0.250 C 
HETATM    5  O1  UNL     1       8.411   7.357  23.382  1.00  0.00    -0.271 OA
HETATM    6  C7  UNL     1       6.005   6.939  23.611  1.00  0.00     0.155 C 
HETATM    7  C8  UNL     1       5.992   7.239  25.100  1.00  0.00     0.118 C 
HETATM    8  C9  UNL     1       4.725   7.987  25.419  1.00  0.00     0.020 C 
HETATM    9  C10 UNL     1       4.263   8.512  24.103  1.00  0.00     0.035 C 
HETATM   10  C11 UNL     1       5.496   8.282  23.246  1.00  0.00     0.064 C 
HETATM   11  C12 UNL     1       5.262   8.684  21.885  1.00  0.00     0.041 C 
HETATM   12  N2  UNL     1       6.542   9.111  23.885  1.00  0.00    -0.349 N 
ATOM     13  H2  UNL     1       6.893  10.009  23.550  1.00  0.00     0.163 HD
HETATM   14  C13 UNL     1       6.969   8.412  25.071  1.00  0.00     0.225 C 
HETATM   15  O2  UNL     1       7.882   8.674  25.868  1.00  0.00    -0.273 OA
HETATM   16  N3  UNL     1       5.211   5.788  23.227  1.00  0.00    -0.302 N 
HETATM   17  C22 UNL     1       5.316   5.466  21.827  1.00  0.00     0.245 C 
HETATM   18  O4  UNL     1       4.284   5.301  21.143  1.00  0.00    -0.271 OA
ENDROOT
BRANCH  16  19
HETATM   19  C14 UNL     1       4.385   4.994  24.094  1.00  0.00     0.224 C 
BRANCH  19  20
HETATM   20  O3  UNL     1       4.616   3.599  24.008  1.00  0.00    -0.377 OA
ATOM     21  H3  UNL     1       4.561   3.140  24.838  1.00  0.00     0.212 HD
ENDBRANCH  19  20
BRANCH  19  22
HETATM   22  C15 UNL     1       2.909   5.162  23.955  1.00  0.00     0.054 C 
BRANCH  22  23
HETATM   23  C16 UNL     1       2.215   5.401  25.307  1.00  0.00     0.006 C 
BRANCH  23  24
HETATM   24  C17 UNL     1       1.015   6.278  25.204  1.00  0.00     0.028 C 
BRANCH  24  25
HETATM   25  C18 UNL     1       1.097   7.593  25.888  1.00  0.00     0.236 C 
BRANCH  25  26
HETATM   26  N4  UNL     1       0.503   8.718  25.254  1.00  0.00    -0.079 N 
HETATM   27  C19 UNL     1       1.103   9.987  25.494  1.00  0.00     0.271 C 
HETATM   28  C20 UNL     1      -0.922   8.824  25.579  1.00  0.00     0.271 C 
HETATM   29  C21 UNL     1       0.512   8.495  23.795  1.00  0.00     0.271 C 
ENDBRANCH  25  26
ENDBRANCH  24  25
ENDBRANCH  23  24
ENDBRANCH  22  23
ENDBRANCH  19  22
ENDBRANCH  16  19
BRANCH   1  30
HETATM   30  C4  UNL     1       6.726   5.817  19.773  1.00  0.00     0.038 C 
BRANCH  30  31
HETATM   31  C2  UNL     1       7.015   4.798  18.728  1.00  0.00    -0.020 C 
HETATM   32  C1  UNL     1       6.800   5.213  17.319  1.00  0.00     0.009 C 
HETATM   33  C3  UNL     1       8.459   4.285  18.816  1.00  0.00     0.009 C 
ENDBRANCH  30  31
ENDBRANCH   1  30
TORSDOF 9
ENDMDL
MODEL 5
REMARK VINA RESULT: -6.546761036      2.134      4.360
REMARK  9 active torsions:
REMARK  status: ('A' for Active; 'I' for Inactive)
REMARK    1  A    between atoms: C2_2  and  C4_4 
REMARK    2  A    between atoms: C4_4  and  C5_5 
REMARK    3  A    between atoms: N3_20  and  C14_21 
REMARK    4  A    between atoms: C14_21  and  O3_22 
REMARK    5  A    between atoms: C14_21  and  C15_24 
REMARK    6  A    between atoms: C15_24  and  C16_25 
REMARK    7  A    between atoms: C16_25  and  C17_26 
REMARK    8  A    between atoms: C17_26  and  C18_27 
REMARK    9  A    between atoms: C18_27  and  N4_28 
ROOT
HETATM    1  C5  UNL     1       3.560   7.151  23.822  1.00  0.00     0.177 C 
HETATM    2  N1  UNL     1       3.563   8.055  22.727  1.00  0.00    -0.346 N 
ATOM      3  H1  UNL     1       2.724   8.593  22.508  1.00  0.00     0.163 HD
HETATM    4  C6  UNL     1       4.755   8.212  21.924  1.00  0.00     0.250 C 
HETATM    5  O1  UNL     1       4.865   9.383  21.447  1.00  0.00    -0.271 OA
HETATM    6  C7  UNL     1       5.712   7.096  21.712  1.00  0.00     0.155 C 
HETATM    7  C8  UNL     1       6.254   7.025  20.295  1.00  0.00     0.118 C 
HETATM    8  C9  UNL     1       7.566   6.286  20.328  1.00  0.00     0.020 C 
HETATM    9  C10 UNL     1       7.991   6.351  21.756  1.00  0.00     0.035 C 
HETATM   10  C11 UNL     1       7.038   7.402  22.299  1.00  0.00     0.064 C 
HETATM   11  C12 UNL     1       7.239   7.604  23.708  1.00  0.00     0.041 C 
HETATM   12  N2  UNL     1       7.362   8.621  21.524  1.00  0.00    -0.349 N 
ATOM     13  H2  UNL     1       7.897   9.424  21.854  1.00  0.00     0.163 HD
HETATM   14  C13 UNL     1       6.781   8.457  20.216  1.00  0.00     0.225 C 
HETATM   15  O2  UNL     1       6.713   9.250  19.265  1.00  0.00    -0.273 OA
HETATM   16  N3  UNL     1       5.039   5.891  22.155  1.00  0.00    -0.302 N 
HETATM   17  C22 UNL     1       4.450   6.016  23.463  1.00  0.00     0.245 C 
HETATM   18  O4  UNL     1       4.679   5.154  24.338  1.00  0.00    -0.271 OA
ENDROOT
BRANCH  16  19
HETATM   19  C14 UNL     1       4.921   4.661  21.420  1.00  0.00     0.224 C 
BRANCH  19  20
HETATM   20  O3  UNL     1       3.614   4.117  21.395  1.00  0.00    -0.377 OA
ATOM     21  H3  UNL     1       3.443   3.474  22.075  1.00  0.00     0.212 HD
ENDBRANCH  19  20
BRANCH  19  22
HETATM   22  C15 UNL     1       5.812   3.540  21.841  1.00  0.00     0.054 C 
BRANCH  22  23
HETATM   23  C16 UNL     1       5.577   2.262  21.016  1.00  0.00     0.006 C 
BRANCH  23  24
HETATM   24  C17 UNL     1       6.357   2.232  19.747  1.00  0.00     0.028 C 
BRANCH  24  25
HETATM   25  C18 UNL     1       7.784   1.838  19.857  1.00  0.00     0.236 C 
BRANCH  25  26
HETATM   26  N4  UNL     1       8.611   1.982  18.711  1.00  0.00    -0.079 N 
HETATM   27  C19 UNL     1       7.994   1.801  17.440  1.00  0.00     0.271 C 
HETATM   28  C20 UNL     1       9.776   1.096  18.778  1.00  0.00     0.271 C 
HETATM   29  C21 UNL     1       9.201   3.335  18.724  1.00  0.00     0.271 C 
ENDBRANCH  25  26
ENDBRANCH  24  25
ENDBRANCH  23  24
ENDBRANCH  22  23
ENDBRANCH  19  22
ENDBRANCH  16  19
BRANCH   1  30
HETATM   30  C4  UNL     1       3.683   7.685  25.182  1.00  0.00     0.038 C 
BRANCH  30  31
HETATM   31  C2  UNL     1       3.134   9.050  25.400  1.00  0.00    -0.020 C 
HETATM   32  C1  UNL     1       1.716   9.134  25.835  1.00  0.00     0.009 C 
HETATM   33  C3  UNL     1       3.954   9.836  26.432  1.00  0.00     0.009 C 
ENDBRANCH  30  31
ENDBRANCH   1  30
TORSDOF 9
ENDMDL
