MODEL 1
REMARK VINA RESULT: -7.404819492      0.000      0.000
REMARK  7 active torsions:
REMARK  status: ('A' for Active; 'I' for Inactive)
REMARK    1  A    between atoms: C3_3  and  C4_4 
REMARK    2  A    between atoms: C9_13  and  C10_14 
REMARK       I    between atoms: C10_14  and  N2_16 
REMARK    3  A    between atoms: N2_16  and  C11_18 
REMARK    4  A    between atoms: C11_18  and  C12_19 
REMARK    5  A    between atoms: C11_18  and  C16_23 
REMARK    6  A    between atoms: C12_19  and  C13_20 
REMARK       I    between atoms: C16_23  and  N3_25 
REMARK    7  A    between atoms: N3_25  and  C17_27 
ROOT
HETATM    1  C1  UNL     1       9.829   0.525  18.197  1.00  0.00     0.112 C 
HETATM    2  C2  UNL     1       8.977   1.687  18.402  1.00  0.00    -0.105 C 
HETATM    3  C3  UNL     1       8.274   2.638  18.620  1.00  0.00    -0.054 C 
ENDROOT
BRANCH   3   4
HETATM    4  C4  UNL     1       7.433   3.745  19.022  1.00  0.00     0.100 C 
HETATM    5 CL1  UNL     1       7.512   3.943  20.792  1.00  0.00    -0.073 Cl
HETATM    6  C5  UNL     1       6.741   4.497  18.247  1.00  0.00     0.030 A 
HETATM    7  C6  UNL     1       6.761   4.269  16.795  1.00  0.00     0.040 A 
HETATM    8  C9  UNL     1       5.876   5.589  18.703  1.00  0.00     0.061 A 
HETATM    9 BR1  UNL     1       7.821   2.930  15.949  1.00  0.00    -0.049 Br
HETATM   10  C7  UNL     1       6.047   4.995  15.942  1.00  0.00     0.107 A 
HETATM   11  N1  UNL     1       5.226   6.035  16.393  1.00  0.00    -0.373 N 
HETATM   12  C8  UNL     1       5.177   6.289  17.782  1.00  0.00     0.105 A 
ATOM     13  H1  UNL     1       4.678   6.593  15.738  1.00  0.00     0.164 HD
BRANCH   8  14
HETATM   14  C10 UNL     1       5.694   5.993  20.067  1.00  0.00     0.254 C 
HETATM   15  O1  UNL     1       5.034   5.405  20.919  1.00  0.00    -0.268 OA
HETATM   16  N2  UNL     1       6.327   7.216  20.553  1.00  0.00    -0.344 N 
ATOM     17  H2  UNL     1       6.902   7.779  19.927  1.00  0.00     0.163 HD
BRANCH  16  18
HETATM   18  C11 UNL     1       6.136   7.622  21.923  1.00  0.00     0.177 C 
BRANCH  18  19
HETATM   19  C12 UNL     1       5.550   8.965  22.131  1.00  0.00     0.038 C 
BRANCH  19  20
HETATM   20  C13 UNL     1       4.195   9.078  22.700  1.00  0.00    -0.020 C 
HETATM   21  C14 UNL     1       4.365   8.971  24.230  1.00  0.00     0.009 C 
HETATM   22  C15 UNL     1       3.205   8.029  22.333  1.00  0.00     0.009 C 
ENDBRANCH  19  20
ENDBRANCH  18  19
BRANCH  18  23
HETATM   23  C16 UNL     1       7.355   7.360  22.742  1.00  0.00     0.240 C 
HETATM   24  O2  UNL     1       7.898   6.229  22.759  1.00  0.00    -0.271 OA
HETATM   25  N3  UNL     1       7.935   8.388  23.524  1.00  0.00    -0.355 N 
ATOM     26  H3  UNL     1       7.526   9.322  23.536  1.00  0.00     0.162 HD
BRANCH  25  27
HETATM   27  C17 UNL     1       9.111   8.094  24.305  1.00  0.00     0.084 C 
HETATM   28  C18 UNL     1       9.961   9.359  24.483  1.00  0.00     0.025 C 
HETATM   29  C19 UNL     1      10.871   8.951  25.622  1.00  0.00     0.002 C 
HETATM   30  C20 UNL     1      10.165   7.894  26.408  1.00  0.00     0.002 C 
HETATM   31  C21 UNL     1       8.850   7.664  25.708  1.00  0.00     0.025 C 
ENDBRANCH  25  27
ENDBRANCH  18  23
ENDBRANCH  16  18
ENDBRANCH   8  14
ENDBRANCH   3   4
TORSDOF 7
ENDMDL
MODEL 2
REMARK VINA RESULT: -7.395794378      4.049      8.157
REMARK  7 active torsions:
REMARK  status: ('A' for Active; 'I' for Inactive)
REMARK    1  A    between atoms: C3_3  and  C4_4 
REMARK    2  A    between atoms: C9_13  and  C10_14 
REMARK       I    between atoms: C10_14  and  N2_16 
REMARK    3  A    between atoms: N2_16  and  C11_18 
REMARK    4  A    between atoms: C11_18  and  C12_19 
REMARK    5  A    between atoms: C11_18  and  C16_23 
REMARK    6  A    between atoms: C12_19  and  C13_20 
REMARK       I    between atoms: C16_23  and  N3_25 
REMARK    7  A    between atoms: N3_25  and  C17_27 
ROOT
HETATM    1  C1  UNL     1       0.062   8.374  26.032  1.00  0.00     0.112 C 
HETATM    2  C2  UNL     1       1.183   7.938  25.214  1.00  0.00    -0.105 C 
HETATM    3  C3  UNL     1       2.087   7.535  24.531  1.00  0.00    -0.054 C 
ENDROOT
BRANCH   3   4
HETATM    4  C4  UNL     1       3.101   6.925  23.697  1.00  0.00     0.100 C 
HETATM    5 CL1  UNL     1       2.363   5.643  22.702  1.00  0.00    -0.073 Cl
HETATM    6  C5  UNL     1       4.341   7.248  23.645  1.00  0.00     0.030 A 
HETATM    7  C6  UNL     1       4.849   8.339  24.489  1.00  0.00     0.040 A 
HETATM    8  C9  UNL     1       5.340   6.580  22.806  1.00  0.00     0.061 A 
HETATM    9 BR1  UNL     1       3.751   9.380  25.648  1.00  0.00    -0.049 Br
HETATM   10  C7  UNL     1       6.127   8.704  24.502  1.00  0.00     0.107 A 
HETATM   11  N1  UNL     1       7.069   8.056  23.695  1.00  0.00    -0.373 N 
HETATM   12  C8  UNL     1       6.623   7.001  22.868  1.00  0.00     0.105 A 
ATOM     13  H1  UNL     1       8.050   8.337  23.704  1.00  0.00     0.164 HD
BRANCH   8  14
HETATM   14  C10 UNL     1       5.081   5.492  21.909  1.00  0.00     0.254 C 
HETATM   15  O1  UNL     1       4.751   5.583  20.729  1.00  0.00    -0.268 OA
HETATM   16  N2  UNL     1       5.202   4.115  22.381  1.00  0.00    -0.344 N 
ATOM     17  H2  UNL     1       5.474   3.927  23.346  1.00  0.00     0.163 HD
BRANCH  16  18
HETATM   18  C11 UNL     1       4.934   3.025  21.478  1.00  0.00     0.177 C 
BRANCH  18  19
HETATM   19  C12 UNL     1       3.883   2.070  21.898  1.00  0.00     0.038 C 
BRANCH  19  20
HETATM   20  C13 UNL     1       3.635   1.862  23.335  1.00  0.00    -0.020 C 
HETATM   21  C14 UNL     1       3.532   0.334  23.533  1.00  0.00     0.009 C 
HETATM   22  C15 UNL     1       2.381   2.423  23.907  1.00  0.00     0.009 C 
ENDBRANCH  19  20
ENDBRANCH  18  19
BRANCH  18  23
HETATM   23  C16 UNL     1       6.196   2.374  21.023  1.00  0.00     0.240 C 
HETATM   24  O2  UNL     1       6.796   1.539  21.743  1.00  0.00    -0.271 OA
HETATM   25  N3  UNL     1       6.754   2.682  19.758  1.00  0.00    -0.355 N 
ATOM     26  H3  UNL     1       6.296   3.353  19.141  1.00  0.00     0.162 HD
BRANCH  25  27
HETATM   27  C17 UNL     1       7.978   2.034  19.357  1.00  0.00     0.084 C 
HETATM   28  C18 UNL     1       7.676   0.883  18.387  1.00  0.00     0.025 C 
HETATM   29  C19 UNL     1       9.045   0.628  17.791  1.00  0.00     0.002 C 
HETATM   30  C20 UNL     1       9.828   1.897  17.896  1.00  0.00     0.002 C 
HETATM   31  C21 UNL     1       8.923   2.888  18.582  1.00  0.00     0.025 C 
ENDBRANCH  25  27
ENDBRANCH  18  23
ENDBRANCH  16  18
ENDBRANCH   8  14
ENDBRANCH   3   4
TORSDOF 7
ENDMDL
MODEL 3
REMARK VINA RESULT: -7.268928025      1.494      1.816
REMARK  7 active torsions:
REMARK  status: ('A' for Active; 'I' for Inactive)
REMARK    1  A    between atoms: C3_3  and  C4_4 
REMARK    2  A    between atoms: C9_13  and  C10_14 
REMARK       I    between atoms: C10_14  and  N2_16 
REMARK    3  A    between atoms: N2_16  and  C11_18 
REMARK    4  A    between atoms: C11_18  and  C12_19 
REMARK    5  A    between atoms: C11_18  and  C16_23 
REMARK    6  A    between atoms: C12_19  and  C13_20 
REMARK       I    between atoms: C16_23  and  N3_25 
REMARK    7  A    between atoms: N3_25  and  C17_27 
ROOT
HETATM    1  C1  UNL     1       9.460   2.226  17.346  1.00  0.00     0.112 C 
HETATM    2  C2  UNL     1       8.552   3.122  18.048  1.00  0.00    -0.105 C 
HETATM    3  C3  UNL     1       7.813   3.838  18.669  1.00  0.00    -0.054 C 
ENDROOT
BRANCH   3   4
HETATM    4  C4  UNL     1       6.959   4.624  19.534  1.00  0.00     0.100 C 
HETATM    5 CL1  UNL     1       7.551   4.516  21.213  1.00  0.00    -0.073 Cl
HETATM    6  C5  UNL     1       5.940   5.315  19.177  1.00  0.00     0.030 A 
HETATM    7  C6  UNL     1       5.546   5.361  17.762  1.00  0.00     0.040 A 
HETATM    8  C9  UNL     1       5.084   6.071  20.096  1.00  0.00     0.061 A 
HETATM    9 BR1  UNL     1       6.506   4.485  16.368  1.00  0.00    -0.049 Br
HETATM   10  C7  UNL     1       4.486   6.036  17.330  1.00  0.00     0.107 A 
HETATM   11  N1  UNL     1       3.678   6.753  18.220  1.00  0.00    -0.373 N 
HETATM   12  C8  UNL     1       4.022   6.737  19.591  1.00  0.00     0.105 A 
ATOM     13  H1  UNL     1       2.865   7.273  17.889  1.00  0.00     0.164 HD
BRANCH   8  14
HETATM   14  C10 UNL     1       5.269   6.171  21.515  1.00  0.00     0.254 C 
HETATM   15  O1  UNL     1       4.964   5.324  22.350  1.00  0.00    -0.268 OA
HETATM   16  N2  UNL     1       5.872   7.372  22.086  1.00  0.00    -0.344 N 
ATOM     17  H2  UNL     1       6.166   8.136  21.479  1.00  0.00     0.163 HD
BRANCH  16  18
HETATM   18  C11 UNL     1       6.050   7.471  23.513  1.00  0.00     0.177 C 
BRANCH  18  19
HETATM   19  C12 UNL     1       5.369   8.604  24.180  1.00  0.00     0.038 C 
BRANCH  19  20
HETATM   20  C13 UNL     1       4.407   8.329  25.261  1.00  0.00    -0.020 C 
HETATM   21  C14 UNL     1       3.396   7.314  24.684  1.00  0.00     0.009 C 
HETATM   22  C15 UNL     1       3.588   9.467  25.761  1.00  0.00     0.009 C 
ENDBRANCH  19  20
ENDBRANCH  18  19
BRANCH  18  23
HETATM   23  C16 UNL     1       7.484   7.317  23.893  1.00  0.00     0.240 C 
HETATM   24  O2  UNL     1       8.356   7.021  23.041  1.00  0.00    -0.271 OA
HETATM   25  N3  UNL     1       7.900   7.505  25.234  1.00  0.00    -0.355 N 
ATOM     26  H3  UNL     1       7.223   7.750  25.956  1.00  0.00     0.162 HD
BRANCH  25  27
HETATM   27  C17 UNL     1       9.295   7.344  25.562  1.00  0.00     0.084 C 
HETATM   28  C18 UNL     1      10.037   8.677  25.396  1.00  0.00     0.025 C 
HETATM   29  C19 UNL     1      11.317   8.403  26.157  1.00  0.00     0.002 C 
HETATM   30  C20 UNL     1      11.024   7.343  27.169  1.00  0.00     0.002 C 
HETATM   31  C21 UNL     1       9.575   6.977  26.979  1.00  0.00     0.025 C 
ENDBRANCH  25  27
ENDBRANCH  18  23
ENDBRANCH  16  18
ENDBRANCH   8  14
ENDBRANCH   3   4
TORSDOF 7
ENDMDL
MODEL 4
REMARK VINA RESULT: -7.191589953      3.010      7.341
REMARK  7 active torsions:
REMARK  status: ('A' for Active; 'I' for Inactive)
REMARK    1  A    between atoms: C3_3  and  C4_4 
REMARK    2  A    between atoms: C9_13  and  C10_14 
REMARK       I    between atoms: C10_14  and  N2_16 
REMARK    3  A    between atoms: N2_16  and  C11_18 
REMARK    4  A    between atoms: C11_18  and  C12_19 
REMARK    5  A    between atoms: C11_18  and  C16_23 
REMARK    6  A    between atoms: C12_19  and  C13_20 
REMARK       I    between atoms: C16_23  and  N3_25 
REMARK    7  A    between atoms: N3_25  and  C17_27 
ROOT
HETATM    1  C1  UNL     1      10.559   8.893  24.484  1.00  0.00     0.112 C 
HETATM    2  C2  UNL     1       9.526   8.557  23.516  1.00  0.00    -0.105 C 
HETATM    3  C3  UNL     1       8.697   8.306  22.682  1.00  0.00    -0.054 C 
ENDROOT
BRANCH   3   4
HETATM    4  C4  UNL     1       7.778   8.082  21.587  1.00  0.00     0.100 C 
HETATM    5 CL1  UNL     1       8.698   7.757  20.094  1.00  0.00    -0.073 Cl
HETATM    6  C5  UNL     1       6.498   8.090  21.651  1.00  0.00     0.030 A 
HETATM    7  C6  UNL     1       5.831   8.344  22.936  1.00  0.00     0.040 A 
HETATM    8  C9  UNL     1       5.606   7.889  20.505  1.00  0.00     0.061 A 
HETATM    9 BR1  UNL     1       6.763   8.612  24.577  1.00  0.00    -0.049 Br
HETATM   10  C7  UNL     1       4.509   8.392  23.065  1.00  0.00     0.107 A 
HETATM   11  N1  UNL     1       3.671   8.198  21.961  1.00  0.00    -0.373 N 
HETATM   12  C8  UNL     1       4.270   7.951  20.706  1.00  0.00     0.105 A 
ATOM     13  H1  UNL     1       2.656   8.235  22.060  1.00  0.00     0.164 HD
BRANCH   8  14
HETATM   14  C10 UNL     1       6.025   7.632  19.158  1.00  0.00     0.254 C 
HETATM   15  O1  UNL     1       6.587   8.423  18.406  1.00  0.00    -0.268 OA
HETATM   16  N2  UNL     1       5.789   6.319  18.563  1.00  0.00    -0.344 N 
ATOM     17  H2  UNL     1       5.332   5.586  19.104  1.00  0.00     0.163 HD
BRANCH  16  18
HETATM   18  C11 UNL     1       6.207   6.066  17.206  1.00  0.00     0.177 C 
BRANCH  18  19
HETATM   19  C12 UNL     1       5.231   6.408  16.147  1.00  0.00     0.038 C 
BRANCH  19  20
HETATM   20  C13 UNL     1       5.701   7.094  14.932  1.00  0.00    -0.020 C 
HETATM   21  C14 UNL     1       5.326   8.581  15.109  1.00  0.00     0.009 C 
HETATM   22  C15 UNL     1       5.101   6.684  13.633  1.00  0.00     0.009 C 
ENDBRANCH  19  20
ENDBRANCH  18  19
BRANCH  18  23
HETATM   23  C16 UNL     1       6.800   4.705  17.067  1.00  0.00     0.240 C 
HETATM   24  O2  UNL     1       6.824   4.114  15.959  1.00  0.00    -0.271 OA
HETATM   25  N3  UNL     1       7.356   4.040  18.187  1.00  0.00    -0.355 N 
ATOM     26  H3  UNL     1       7.359   4.486  19.104  1.00  0.00     0.162 HD
BRANCH  25  27
HETATM   27  C17 UNL     1       7.917   2.723  18.011  1.00  0.00     0.084 C 
HETATM   28  C18 UNL     1       9.449   2.799  17.973  1.00  0.00     0.025 C 
HETATM   29  C19 UNL     1       9.826   1.350  18.200  1.00  0.00     0.002 C 
HETATM   30  C20 UNL     1       8.703   0.701  18.943  1.00  0.00     0.002 C 
HETATM   31  C21 UNL     1       7.655   1.769  19.126  1.00  0.00     0.025 C 
ENDBRANCH  25  27
ENDBRANCH  18  23
ENDBRANCH  16  18
ENDBRANCH   8  14
ENDBRANCH   3   4
TORSDOF 7
ENDMDL
MODEL 5
REMARK VINA RESULT: -7.188025316      2.632      4.890
REMARK  7 active torsions:
REMARK  status: ('A' for Active; 'I' for Inactive)
REMARK    1  A    between atoms: C3_3  and  C4_4 
REMARK    2  A    between atoms: C9_13  and  C10_14 
REMARK       I    between atoms: C10_14  and  N2_16 
REMARK    3  A    between atoms: N2_16  and  C11_18 
REMARK    4  A    between atoms: C11_18  and  C12_19 
REMARK    5  A    between atoms: C11_18  and  C16_23 
REMARK    6  A    between atoms: C12_19  and  C13_20 
REMARK       I    between atoms: C16_23  and  N3_25 
REMARK    7  A    between atoms: N3_25  and  C17_27 
ROOT
HETATM    1  C1  UNL     1       9.845   2.212  17.856  1.00  0.00     0.112 C 
HETATM    2  C2  UNL     1       8.844   2.961  18.600  1.00  0.00    -0.105 C 
HETATM    3  C3  UNL     1       8.049   3.587  19.250  1.00  0.00    -0.054 C 
ENDROOT
BRANCH   3   4
HETATM    4  C4  UNL     1       7.197   4.355  20.133  1.00  0.00     0.100 C 
HETATM    5 CL1  UNL     1       7.902   5.973  20.384  1.00  0.00    -0.073 Cl
HETATM    6  C5  UNL     1       6.092   3.966  20.654  1.00  0.00     0.030 A 
HETATM    7  C6  UNL     1       5.580   2.619  20.365  1.00  0.00     0.040 A 
HETATM    8  C9  UNL     1       5.277   4.769  21.571  1.00  0.00     0.061 A 
HETATM    9 BR1  UNL     1       6.438   1.391  19.188  1.00  0.00    -0.049 Br
HETATM   10  C7  UNL     1       4.456   2.147  20.894  1.00  0.00     0.107 A 
HETATM   11  N1  UNL     1       3.688   2.926  21.768  1.00  0.00    -0.373 N 
HETATM   12  C8  UNL     1       4.144   4.228  22.072  1.00  0.00     0.105 A 
ATOM     13  H1  UNL     1       2.825   2.564  22.173  1.00  0.00     0.164 HD
BRANCH   8  14
HETATM   14  C10 UNL     1       5.576   6.104  21.999  1.00  0.00     0.254 C 
HETATM   15  O1  UNL     1       5.335   7.139  21.383  1.00  0.00    -0.268 OA
HETATM   16  N2  UNL     1       6.233   6.324  23.285  1.00  0.00    -0.344 N 
ATOM     17  H2  UNL     1       6.475   5.532  23.879  1.00  0.00     0.163 HD
BRANCH  16  18
HETATM   18  C11 UNL     1       6.538   7.668  23.709  1.00  0.00     0.177 C 
BRANCH  18  19
HETATM   19  C12 UNL     1       7.843   7.861  24.381  1.00  0.00     0.038 C 
BRANCH  19  20
HETATM   20  C13 UNL     1       8.754   8.910  23.893  1.00  0.00    -0.020 C 
HETATM   21  C14 UNL     1       8.992   8.607  22.398  1.00  0.00     0.009 C 
HETATM   22  C15 UNL     1      10.109   8.987  24.505  1.00  0.00     0.009 C 
ENDBRANCH  19  20
ENDBRANCH  18  19
BRANCH  18  23
HETATM   23  C16 UNL     1       5.388   8.282  24.433  1.00  0.00     0.240 C 
HETATM   24  O2  UNL     1       5.554   9.235  25.233  1.00  0.00    -0.271 OA
HETATM   25  N3  UNL     1       4.070   7.805  24.232  1.00  0.00    -0.355 N 
ATOM     26  H3  UNL     1       3.891   7.036  23.587  1.00  0.00     0.162 HD
BRANCH  25  27
HETATM   27  C17 UNL     1       2.985   8.424  24.953  1.00  0.00     0.084 C 
HETATM   28  C18 UNL     1       2.223   9.393  24.038  1.00  0.00     0.025 C 
HETATM   29  C19 UNL     1       0.943   9.598  24.819  1.00  0.00     0.002 C 
HETATM   30  C20 UNL     1       0.738   8.391  25.677  1.00  0.00     0.002 C 
HETATM   31  C21 UNL     1       1.919   7.492  25.417  1.00  0.00     0.025 C 
ENDBRANCH  25  27
ENDBRANCH  18  23
ENDBRANCH  16  18
ENDBRANCH   8  14
ENDBRANCH   3   4
TORSDOF 7
ENDMDL
