MODEL 1
REMARK VINA RESULT: -7.871963724      0.000      0.000
REMARK  8 active torsions:
REMARK  status: ('A' for Active; 'I' for Inactive)
REMARK    1  A    between atoms: C2_2  and  N1_4 
REMARK    2  A    between atoms: N1_4  and  C4_6 
REMARK    3  A    between atoms: C4_6  and  N2_8 
REMARK    4  A    between atoms: C6_10  and  C7_11 
REMARK    5  A    between atoms: C7_11  and  C8_12 
REMARK       I    between atoms: N3_15  and  C11_16 
REMARK       I    between atoms: C11_16  and  N4_18 
REMARK    6  A    between atoms: N4_18  and  C12_20 
REMARK    7  A    between atoms: C15_23  and  C16_24 
REMARK    8  A    between atoms: C20_30  and  C21_31 
ROOT
HETATM    1  C8  UNL     1       4.063   4.921  22.727  1.00  0.00     0.006 C 
HETATM    2  C9  UNL     1       4.067   3.468  22.953  1.00  0.00     0.026 C 
HETATM    3  C10 UNL     1       4.012   2.810  21.556  1.00  0.00     0.128 C 
HETATM    4  N3  UNL     1       4.107   3.947  20.678  1.00  0.00    -0.334 N 
HETATM    5  C11 UNL     1       4.761   3.963  19.428  1.00  0.00     0.318 C 
HETATM    6  O1  UNL     1       4.764   5.027  18.770  1.00  0.00    -0.247 OA
HETATM    7  N4  UNL     1       5.401   2.818  18.919  1.00  0.00    -0.338 N 
ATOM      8  H4  UNL     1       5.383   1.964  19.478  1.00  0.00     0.164 HD
HETATM    9  C19 UNL     1       3.407   5.032  21.338  1.00  0.00     0.132 C 
ENDROOT
BRANCH   1  10
HETATM   10  C7  UNL     1       3.472   5.848  23.698  1.00  0.00     0.013 C 
BRANCH  10  11
HETATM   11  C6  UNL     1       4.343   6.842  24.304  1.00  0.00     0.018 C 
HETATM   12  C5  UNL     1       5.826   6.621  23.959  1.00  0.00     0.130 C 
HETATM   13  N2  UNL     1       6.457   7.900  24.095  1.00  0.00    -0.357 N 
HETATM   14  C22 UNL     1       5.470   8.777  24.818  1.00  0.00     0.139 C 
HETATM   15  C20 UNL     1       4.204   8.281  24.068  1.00  0.00     0.098 C 
BRANCH  13  16
HETATM   16  C4  UNL     1       7.692   8.461  23.714  1.00  0.00     0.170 C 
HETATM   17  S1  UNL     1       8.921   8.537  24.871  1.00  0.00    -0.041 SA
BRANCH  16  18
HETATM   18  N1  UNL     1       8.052   8.975  22.478  1.00  0.00    -0.363 N 
ATOM     19  H1  UNL     1       7.783   9.942  22.302  1.00  0.00     0.162 HD
BRANCH  18  20
HETATM   20  C2  UNL     1       8.753   8.320  21.420  1.00  0.00     0.075 C 
HETATM   21  C1  UNL     1       8.728   9.161  20.185  1.00  0.00     0.032 C 
HETATM   22  C3  UNL     1       8.017   6.984  21.147  1.00  0.00     0.032 C 
ENDBRANCH  18  20
ENDBRANCH  16  18
ENDBRANCH  13  16
BRANCH  15  23
HETATM   23  C21 UNL     1       4.296   8.806  22.721  1.00  0.00     0.237 C 
HETATM   24  N5  UNL     1       4.828   8.220  21.564  1.00  0.00    -0.062 NA
HETATM   25  O2  UNL     1       3.829   9.995  22.522  1.00  0.00    -0.276 OA
ENDBRANCH  15  23
ENDBRANCH  10  11
ENDBRANCH   1  10
BRANCH   7  26
HETATM   26  C12 UNL     1       6.086   2.789  17.639  1.00  0.00     0.086 C 
HETATM   27  C13 UNL     1       6.520   1.372  17.278  1.00  0.00     0.026 C 
HETATM   28  C14 UNL     1       7.259   0.801  18.462  1.00  0.00     0.012 C 
HETATM   29  C15 UNL     1       8.393   1.646  18.919  1.00  0.00     0.051 C 
HETATM   30  C17 UNL     1       8.136   3.114  18.914  1.00  0.00     0.012 C 
HETATM   31  C18 UNL     1       7.358   3.606  17.735  1.00  0.00     0.026 C 
BRANCH  29  32
HETATM   32  C16 UNL     1       9.678   1.305  18.152  1.00  0.00     0.357 C 
HETATM   33  F1  UNL     1      10.251   0.156  18.657  1.00  0.00    -0.214 F 
HETATM   34  F2  UNL     1      10.580   2.330  18.230  1.00  0.00    -0.214 F 
ENDBRANCH  29  32
ENDBRANCH   7  26
TORSDOF 8
ENDMDL
MODEL 2
REMARK VINA RESULT: -7.829332734      1.287      1.883
REMARK  8 active torsions:
REMARK  status: ('A' for Active; 'I' for Inactive)
REMARK    1  A    between atoms: C2_2  and  N1_4 
REMARK    2  A    between atoms: N1_4  and  C4_6 
REMARK    3  A    between atoms: C4_6  and  N2_8 
REMARK    4  A    between atoms: C6_10  and  C7_11 
REMARK    5  A    between atoms: C7_11  and  C8_12 
REMARK       I    between atoms: N3_15  and  C11_16 
REMARK       I    between atoms: C11_16  and  N4_18 
REMARK    6  A    between atoms: N4_18  and  C12_20 
REMARK    7  A    between atoms: C15_23  and  C16_24 
REMARK    8  A    between atoms: C20_30  and  C21_31 
ROOT
HETATM    1  C8  UNL     1       4.038   4.864  22.691  1.00  0.00     0.006 C 
HETATM    2  C9  UNL     1       4.160   3.421  22.950  1.00  0.00     0.026 C 
HETATM    3  C10 UNL     1       4.161   2.730  21.568  1.00  0.00     0.128 C 
HETATM    4  N3  UNL     1       4.165   3.850  20.665  1.00  0.00    -0.334 N 
HETATM    5  C11 UNL     1       4.817   3.891  19.414  1.00  0.00     0.318 C 
HETATM    6  O1  UNL     1       4.735   4.937  18.732  1.00  0.00    -0.247 OA
HETATM    7  N4  UNL     1       5.550   2.790  18.931  1.00  0.00    -0.338 N 
ATOM      8  H4  UNL     1       5.600   1.951  19.509  1.00  0.00     0.164 HD
HETATM    9  C19 UNL     1       3.378   4.889  21.300  1.00  0.00     0.132 C 
ENDROOT
BRANCH   1  10
HETATM   10  C7  UNL     1       3.372   5.761  23.641  1.00  0.00     0.013 C 
BRANCH  10  11
HETATM   11  C6  UNL     1       4.175   6.791  24.278  1.00  0.00     0.018 C 
HETATM   12  C5  UNL     1       5.679   6.462  24.269  1.00  0.00     0.130 C 
HETATM   13  N2  UNL     1       6.358   7.719  24.366  1.00  0.00    -0.357 N 
HETATM   14  C22 UNL     1       5.313   8.728  24.759  1.00  0.00     0.139 C 
HETATM   15  C20 UNL     1       4.185   8.189  23.839  1.00  0.00     0.098 C 
BRANCH  13  16
HETATM   16  C4  UNL     1       7.679   8.170  24.173  1.00  0.00     0.170 C 
HETATM   17  S1  UNL     1       8.267   8.256  22.591  1.00  0.00    -0.041 SA
BRANCH  16  18
HETATM   18  N1  UNL     1       8.595   8.567  25.135  1.00  0.00    -0.363 N 
ATOM     19  H1  UNL     1       8.341   9.392  25.678  1.00  0.00     0.162 HD
BRANCH  18  20
HETATM   20  C2  UNL     1       9.849   7.967  25.461  1.00  0.00     0.075 C 
HETATM   21  C1  UNL     1       9.769   7.293  26.792  1.00  0.00     0.032 C 
HETATM   22  C3  UNL     1      10.895   9.109  25.525  1.00  0.00     0.032 C 
ENDBRANCH  18  20
ENDBRANCH  16  18
ENDBRANCH  13  16
BRANCH  15  23
HETATM   23  C21 UNL     1       4.572   8.519  22.483  1.00  0.00     0.237 C 
HETATM   24  N5  UNL     1       5.024   7.686  21.450  1.00  0.00    -0.062 NA
HETATM   25  O2  UNL     1       4.504   9.764  22.141  1.00  0.00    -0.276 OA
ENDBRANCH  15  23
ENDBRANCH  10  11
ENDBRANCH   1  10
BRANCH   7  26
HETATM   26  C12 UNL     1       6.237   2.788  17.652  1.00  0.00     0.086 C 
HETATM   27  C13 UNL     1       6.611   1.371  17.230  1.00  0.00     0.026 C 
HETATM   28  C14 UNL     1       7.321   0.717  18.389  1.00  0.00     0.012 C 
HETATM   29  C15 UNL     1       8.489   1.493  18.884  1.00  0.00     0.051 C 
HETATM   30  C17 UNL     1       8.294   2.968  18.943  1.00  0.00     0.012 C 
HETATM   31  C18 UNL     1       7.542   3.545  17.786  1.00  0.00     0.026 C 
BRANCH  29  32
HETATM   32  C16 UNL     1       9.760   1.131  18.105  1.00  0.00     0.357 C 
HETATM   33  F1  UNL     1      10.313  -0.034  18.596  1.00  0.00    -0.214 F 
HETATM   34  F2  UNL     1      10.684   2.136  18.183  1.00  0.00    -0.214 F 
ENDBRANCH  29  32
ENDBRANCH   7  26
TORSDOF 8
ENDMDL
MODEL 3
REMARK VINA RESULT: -7.257736729      3.233      4.925
REMARK  8 active torsions:
REMARK  status: ('A' for Active; 'I' for Inactive)
REMARK    1  A    between atoms: C2_2  and  N1_4 
REMARK    2  A    between atoms: N1_4  and  C4_6 
REMARK    3  A    between atoms: C4_6  and  N2_8 
REMARK    4  A    between atoms: C6_10  and  C7_11 
REMARK    5  A    between atoms: C7_11  and  C8_12 
REMARK       I    between atoms: N3_15  and  C11_16 
REMARK       I    between atoms: C11_16  and  N4_18 
REMARK    6  A    between atoms: N4_18  and  C12_20 
REMARK    7  A    between atoms: C15_23  and  C16_24 
REMARK    8  A    between atoms: C20_30  and  C21_31 
ROOT
HETATM    1  C8  UNL     1       5.654   7.001  21.907  1.00  0.00     0.006 C 
HETATM    2  C9  UNL     1       7.119   7.010  21.775  1.00  0.00     0.026 C 
HETATM    3  C10 UNL     1       7.516   5.613  21.248  1.00  0.00     0.128 C 
HETATM    4  N3  UNL     1       6.236   4.997  21.017  1.00  0.00    -0.334 N 
HETATM    5  C11 UNL     1       5.940   4.087  19.980  1.00  0.00     0.318 C 
HETATM    6  O1  UNL     1       4.778   3.630  19.901  1.00  0.00    -0.247 OA
HETATM    7  N4  UNL     1       6.918   3.694  19.046  1.00  0.00    -0.338 N 
ATOM      8  H4  UNL     1       7.856   4.084  19.135  1.00  0.00     0.164 HD
HETATM    9  C19 UNL     1       5.350   5.498  22.050  1.00  0.00     0.132 C 
ENDROOT
BRANCH   1  10
HETATM   10  C7  UNL     1       4.971   7.807  22.924  1.00  0.00     0.013 C 
BRANCH  10  11
HETATM   11  C6  UNL     1       3.800   8.566  22.515  1.00  0.00     0.018 C 
HETATM   12  C5  UNL     1       2.514   7.720  22.519  1.00  0.00     0.130 C 
HETATM   13  N2  UNL     1       1.433   8.648  22.677  1.00  0.00    -0.357 N 
HETATM   14  C22 UNL     1       2.018  10.014  22.436  1.00  0.00     0.139 C 
HETATM   15  C20 UNL     1       3.349   9.779  23.201  1.00  0.00     0.098 C 
BRANCH  13  16
HETATM   16  C4  UNL     1       0.064   8.557  22.997  1.00  0.00     0.170 C 
HETATM   17  S1  UNL     1      -0.907   7.546  22.053  1.00  0.00    -0.041 SA
BRANCH  16  18
HETATM   18  N1  UNL     1      -0.620   9.203  24.015  1.00  0.00    -0.363 N 
ATOM     19  H1  UNL     1      -0.854  10.180  23.844  1.00  0.00     0.162 HD
BRANCH  18  20
HETATM   20  C2  UNL     1      -1.039   8.671  25.272  1.00  0.00     0.075 C 
HETATM   21  C1  UNL     1      -1.187   9.770  26.274  1.00  0.00     0.032 C 
HETATM   22  C3  UNL     1       0.067   7.692  25.741  1.00  0.00     0.032 C 
ENDBRANCH  18  20
ENDBRANCH  16  18
ENDBRANCH  13  16
BRANCH  15  23
HETATM   23  C21 UNL     1       3.008   9.731  24.607  1.00  0.00     0.237 C 
HETATM   24  N5  UNL     1       3.550   8.949  25.636  1.00  0.00    -0.062 NA
HETATM   25  O2  UNL     1       2.060  10.515  25.008  1.00  0.00    -0.276 OA
ENDBRANCH  15  23
ENDBRANCH  10  11
ENDBRANCH   1  10
BRANCH   7  26
HETATM   26  C12 UNL     1       6.658   2.763  17.963  1.00  0.00     0.086 C 
HETATM   27  C13 UNL     1       6.662   1.322  18.463  1.00  0.00     0.026 C 
HETATM   28  C14 UNL     1       7.927   1.112  19.256  1.00  0.00     0.012 C 
HETATM   29  C15 UNL     1       9.163   1.460  18.507  1.00  0.00     0.051 C 
HETATM   30  C17 UNL     1       9.075   2.688  17.668  1.00  0.00     0.012 C 
HETATM   31  C18 UNL     1       7.776   2.858  16.946  1.00  0.00     0.026 C 
BRANCH  29  32
HETATM   32  C16 UNL     1       9.665   0.263  17.688  1.00  0.00     0.357 C 
HETATM   33  F1  UNL     1       8.630  -0.612  17.427  1.00  0.00    -0.214 F 
HETATM   34  F2  UNL     1      10.659  -0.401  18.353  1.00  0.00    -0.214 F 
ENDBRANCH  29  32
ENDBRANCH   7  26
TORSDOF 8
ENDMDL
MODEL 4
REMARK VINA RESULT: -7.217947397      2.065      2.667
REMARK  8 active torsions:
REMARK  status: ('A' for Active; 'I' for Inactive)
REMARK    1  A    between atoms: C2_2  and  N1_4 
REMARK    2  A    between atoms: N1_4  and  C4_6 
REMARK    3  A    between atoms: C4_6  and  N2_8 
REMARK    4  A    between atoms: C6_10  and  C7_11 
REMARK    5  A    between atoms: C7_11  and  C8_12 
REMARK       I    between atoms: N3_15  and  C11_16 
REMARK       I    between atoms: C11_16  and  N4_18 
REMARK    6  A    between atoms: N4_18  and  C12_20 
REMARK    7  A    between atoms: C15_23  and  C16_24 
REMARK    8  A    between atoms: C20_30  and  C21_31 
ROOT
HETATM    1  C8  UNL     1       3.090   3.556  22.933  1.00  0.00     0.006 C 
HETATM    2  C9  UNL     1       3.768   2.268  23.142  1.00  0.00     0.026 C 
HETATM    3  C10 UNL     1       4.128   1.732  21.739  1.00  0.00     0.128 C 
HETATM    4  N3  UNL     1       3.732   2.820  20.885  1.00  0.00    -0.334 N 
HETATM    5  C11 UNL     1       4.385   3.206  19.694  1.00  0.00     0.318 C 
HETATM    6  O1  UNL     1       3.927   4.176  19.050  1.00  0.00    -0.247 OA
HETATM    7  N4  UNL     1       5.525   2.525  19.228  1.00  0.00    -0.338 N 
ATOM      8  H4  UNL     1       5.876   1.738  19.774  1.00  0.00     0.164 HD
HETATM    9  C19 UNL     1       2.557   3.412  21.495  1.00  0.00     0.132 C 
ENDROOT
BRANCH   1  10
HETATM   10  C7  UNL     1       2.064   4.044  23.861  1.00  0.00     0.013 C 
BRANCH  10  11
HETATM   11  C6  UNL     1       2.311   5.303  24.544  1.00  0.00     0.018 C 
HETATM   12  C5  UNL     1       3.480   6.093  23.928  1.00  0.00     0.130 C 
HETATM   13  N2  UNL     1       3.250   7.466  24.266  1.00  0.00    -0.357 N 
HETATM   14  C22 UNL     1       2.179   7.460  25.325  1.00  0.00     0.139 C 
HETATM   15  C20 UNL     1       1.299   6.352  24.685  1.00  0.00     0.098 C 
BRANCH  13  16
HETATM   16  C4  UNL     1       3.760   8.709  23.843  1.00  0.00     0.170 C 
HETATM   17  S1  UNL     1       3.076  10.112  24.491  1.00  0.00    -0.041 SA
BRANCH  16  18
HETATM   18  N1  UNL     1       4.784   8.949  22.939  1.00  0.00    -0.363 N 
ATOM     19  H1  UNL     1       4.515   9.426  22.079  1.00  0.00     0.162 HD
BRANCH  18  20
HETATM   20  C2  UNL     1       6.166   8.612  23.060  1.00  0.00     0.075 C 
HETATM   21  C1  UNL     1       6.433   7.288  22.420  1.00  0.00     0.032 C 
HETATM   22  C3  UNL     1       6.479   8.524  24.575  1.00  0.00     0.032 C 
ENDBRANCH  18  20
ENDBRANCH  16  18
ENDBRANCH  13  16
BRANCH  15  23
HETATM   23  C21 UNL     1       0.695   6.940  23.508  1.00  0.00     0.237 C 
HETATM   24  N5  UNL     1       0.621   6.449  22.197  1.00  0.00    -0.062 NA
HETATM   25  O2  UNL     1       0.133   8.096  23.652  1.00  0.00    -0.276 OA
ENDBRANCH  15  23
ENDBRANCH  10  11
ENDBRANCH   1  10
BRANCH   7  26
HETATM   26  C12 UNL     1       6.229   2.887  18.010  1.00  0.00     0.086 C 
HETATM   27  C13 UNL     1       6.667   1.647  17.238  1.00  0.00     0.026 C 
HETATM   28  C14 UNL     1       7.389   0.737  18.200  1.00  0.00     0.012 C 
HETATM   29  C15 UNL     1       8.517   1.396  18.910  1.00  0.00     0.051 C 
HETATM   30  C17 UNL     1       8.260   2.795  19.351  1.00  0.00     0.012 C 
HETATM   31  C18 UNL     1       7.499   3.629  18.370  1.00  0.00     0.026 C 
BRANCH  29  32
HETATM   32  C16 UNL     1       9.812   1.300  18.092  1.00  0.00     0.357 C 
HETATM   33  F1  UNL     1      10.576   0.234  18.521  1.00  0.00    -0.214 F 
HETATM   34  F2  UNL     1      10.544   2.451  18.200  1.00  0.00    -0.214 F 
ENDBRANCH  29  32
ENDBRANCH   7  26
TORSDOF 8
ENDMDL
MODEL 5
REMARK VINA RESULT: -7.200948002      3.221      4.771
REMARK  8 active torsions:
REMARK  status: ('A' for Active; 'I' for Inactive)
REMARK    1  A    between atoms: C2_2  and  N1_4 
REMARK    2  A    between atoms: N1_4  and  C4_6 
REMARK    3  A    between atoms: C4_6  and  N2_8 
REMARK    4  A    between atoms: C6_10  and  C7_11 
REMARK    5  A    between atoms: C7_11  and  C8_12 
REMARK       I    between atoms: N3_15  and  C11_16 
REMARK       I    between atoms: C11_16  and  N4_18 
REMARK    6  A    between atoms: N4_18  and  C12_20 
REMARK    7  A    between atoms: C15_23  and  C16_24 
REMARK    8  A    between atoms: C20_30  and  C21_31 
ROOT
HETATM    1  C8  UNL     1       5.188   5.843  22.292  1.00  0.00     0.006 C 
HETATM    2  C9  UNL     1       4.551   4.539  22.054  1.00  0.00     0.026 C 
HETATM    3  C10 UNL     1       4.789   4.204  20.565  1.00  0.00     0.128 C 
HETATM    4  N3  UNL     1       5.639   5.284  20.140  1.00  0.00    -0.334 N 
HETATM    5  C11 UNL     1       6.676   5.185  19.187  1.00  0.00     0.318 C 
HETATM    6  O1  UNL     1       7.336   6.212  18.914  1.00  0.00    -0.247 OA
HETATM    7  N4  UNL     1       6.973   3.966  18.549  1.00  0.00    -0.338 N 
ATOM      8  H4  UNL     1       6.418   3.144  18.792  1.00  0.00     0.164 HD
HETATM    9  C19 UNL     1       5.211   6.455  20.879  1.00  0.00     0.132 C 
ENDROOT
BRANCH   1  10
HETATM   10  C7  UNL     1       4.671   6.778  23.297  1.00  0.00     0.013 C 
BRANCH  10  11
HETATM   11  C6  UNL     1       3.874   7.902  22.831  1.00  0.00     0.018 C 
HETATM   12  C5  UNL     1       2.366   7.593  22.814  1.00  0.00     0.130 C 
HETATM   13  N2  UNL     1       1.704   8.859  22.915  1.00  0.00    -0.357 N 
HETATM   14  C22 UNL     1       2.759   9.903  22.660  1.00  0.00     0.139 C 
HETATM   15  C20 UNL     1       3.891   9.218  23.473  1.00  0.00     0.098 C 
BRANCH  13  16
HETATM   16  C4  UNL     1       0.392   9.292  23.193  1.00  0.00     0.170 C 
HETATM   17  S1  UNL     1      -0.789   9.060  22.007  1.00  0.00    -0.041 SA
BRANCH  16  18
HETATM   18  N1  UNL     1      -0.080   9.902  24.345  1.00  0.00    -0.363 N 
ATOM     19  H1  UNL     1      -0.416  10.859  24.237  1.00  0.00     0.162 HD
BRANCH  18  20
HETATM   20  C2  UNL     1      -0.156   9.360  25.663  1.00  0.00     0.075 C 
HETATM   21  C1  UNL     1      -0.213   7.868  25.606  1.00  0.00     0.032 C 
HETATM   22  C3  UNL     1      -1.460   9.901  26.302  1.00  0.00     0.032 C 
ENDBRANCH  18  20
ENDBRANCH  16  18
ENDBRANCH  13  16
BRANCH  15  23
HETATM   23  C21 UNL     1       3.527   9.348  24.869  1.00  0.00     0.237 C 
HETATM   24  N5  UNL     1       3.608   8.412  25.909  1.00  0.00    -0.062 NA
HETATM   25  O2  UNL     1       3.048  10.489  25.246  1.00  0.00    -0.276 OA
ENDBRANCH  15  23
ENDBRANCH  10  11
ENDBRANCH   1  10
BRANCH   7  26
HETATM   26  C12 UNL     1       8.029   3.816  17.564  1.00  0.00     0.086 C 
HETATM   27  C13 UNL     1       7.613   2.861  16.450  1.00  0.00     0.026 C 
HETATM   28  C14 UNL     1       7.096   1.600  17.094  1.00  0.00     0.012 C 
HETATM   29  C15 UNL     1       8.056   0.982  18.047  1.00  0.00     0.051 C 
HETATM   30  C17 UNL     1       8.798   1.940  18.914  1.00  0.00     0.012 C 
HETATM   31  C18 UNL     1       9.241   3.191  18.224  1.00  0.00     0.026 C 
BRANCH  29  32
HETATM   32  C16 UNL     1       9.017   0.031  17.321  1.00  0.00     0.357 C 
HETATM   33  F1  UNL     1       8.334  -1.061  16.826  1.00  0.00    -0.214 F 
HETATM   34  F2  UNL     1      10.006  -0.400  18.163  1.00  0.00    -0.214 F 
ENDBRANCH  29  32
ENDBRANCH   7  26
TORSDOF 8
ENDMDL
