MODEL 1
REMARK VINA RESULT: -7.787573223      0.000      0.000
REMARK  12 active torsions:
REMARK  status: ('A' for Active; 'I' for Inactive)
REMARK    1  A    between atoms: C9_9  and  C10_11 
REMARK    2  A    between atoms: C10_11  and  N1_12 
REMARK    3  A    between atoms: N1_12  and  C11_14 
REMARK    4  A    between atoms: C11_14  and  O1_15 
REMARK    5  A    between atoms: C11_14  and  N2_17 
REMARK    6  A    between atoms: N2_17  and  C12_19 
REMARK    7  A    between atoms: C12_19  and  O2_20 
REMARK    8  A    between atoms: C12_19  and  N3_22 
REMARK    9  A    between atoms: N3_22  and  C13_24 
REMARK   10  A    between atoms: C13_24  and  C14_25 
REMARK   11  A    between atoms: C14_25  and  C15_26 
REMARK   12  A    between atoms: C15_26  and  C16_27 
ROOT
HETATM    1  C11 UNL     1       7.679   6.504  21.398  1.00  0.00     0.220 C 
ENDROOT
BRANCH   1   2
HETATM    2  N1  UNL     1       7.228   5.514  20.556  1.00  0.00    -0.355 N 
ATOM      3  H1  UNL     1       6.287   5.189  20.779  1.00  0.00     0.163 HD
BRANCH   2   4
HETATM    4  C10 UNL     1       7.807   4.847  19.436  1.00  0.00     0.144 C 
BRANCH   4   5
HETATM    5  C9  UNL     1       7.095   3.691  18.818  1.00  0.00     0.039 C 
HETATM    6  C8  UNL     1       7.630   2.365  19.263  1.00  0.00     0.014 C 
HETATM    7  C2  UNL     1       8.600   1.904  18.240  1.00  0.00    -0.039 C 
HETATM    8  C7  UNL     1       6.483   1.399  19.347  1.00  0.00     0.007 C 
HETATM    9  C1  UNL     1       8.921   0.439  18.296  1.00  0.00     0.015 C 
HETATM   10  C3  UNL     1       9.895   2.658  18.206  1.00  0.00     0.015 C 
HETATM   11  C4  UNL     1       7.814   2.262  16.986  1.00  0.00    -0.005 C 
HETATM   12  C5  UNL     1       6.576   1.444  16.824  1.00  0.00     0.005 C 
HETATM   13  C17 UNL     1       7.410   3.679  17.295  1.00  0.00     0.028 C 
HETATM   14  C6  UNL     1       5.896   1.001  18.052  1.00  0.00     0.001 C 
HETATM   15 BR1  UNL     1       5.200   3.889  18.930  1.00  0.00    -0.083 Br
ENDBRANCH   4   5
ENDBRANCH   2   4
ENDBRANCH   1   2
BRANCH   1  16
HETATM   16  O1  UNL     1       7.765   6.220  22.689  1.00  0.00    -0.332 OA
ATOM     17  H1  UNL     1       7.726   6.944  23.303  1.00  0.00     0.220 HD
ENDBRANCH   1  16
BRANCH   1  18
HETATM   18  N2  UNL     1       8.066   7.801  21.050  1.00  0.00    -0.288 N 
ATOM     19  H2  UNL     1       7.490   8.182  20.300  1.00  0.00     0.173 HD
BRANCH  18  20
HETATM   20  C12 UNL     1       9.024   8.689  21.463  1.00  0.00     0.220 C 
BRANCH  20  21
HETATM   21  O2  UNL     1       9.394   9.619  20.595  1.00  0.00    -0.332 OA
ATOM     22  H2  UNL     1      10.135  10.161  20.836  1.00  0.00     0.220 HD
ENDBRANCH  20  21
BRANCH  20  23
HETATM   23  N3  UNL     1       9.711   8.808  22.665  1.00  0.00    -0.356 N 
ATOM     24  H3  UNL     1      10.720   8.662  22.691  1.00  0.00     0.163 HD
BRANCH  23  25
HETATM   25  C13 UNL     1       8.976   9.149  23.919  1.00  0.00     0.123 C 
BRANCH  25  26
HETATM   26  C14 UNL     1       9.533   8.343  25.027  1.00  0.00     0.020 C 
BRANCH  26  27
HETATM   27  C15 UNL     1      10.908   8.612  25.423  1.00  0.00     0.012 C 
BRANCH  27  28
HETATM   28  C16 UNL     1      11.451   7.878  26.577  1.00  0.00     0.085 C 
HETATM   29 BR2  UNL     1      10.341   6.549  27.348  1.00  0.00    -0.097 Br
ENDBRANCH  27  28
ENDBRANCH  26  27
ENDBRANCH  25  26
ENDBRANCH  23  25
ENDBRANCH  20  23
ENDBRANCH  18  20
ENDBRANCH   1  18
TORSDOF 12
ENDMDL
MODEL 2
REMARK VINA RESULT: -7.559824489      1.097      1.532
REMARK  12 active torsions:
REMARK  status: ('A' for Active; 'I' for Inactive)
REMARK    1  A    between atoms: C9_9  and  C10_11 
REMARK    2  A    between atoms: C10_11  and  N1_12 
REMARK    3  A    between atoms: N1_12  and  C11_14 
REMARK    4  A    between atoms: C11_14  and  O1_15 
REMARK    5  A    between atoms: C11_14  and  N2_17 
REMARK    6  A    between atoms: N2_17  and  C12_19 
REMARK    7  A    between atoms: C12_19  and  O2_20 
REMARK    8  A    between atoms: C12_19  and  N3_22 
REMARK    9  A    between atoms: N3_22  and  C13_24 
REMARK   10  A    between atoms: C13_24  and  C14_25 
REMARK   11  A    between atoms: C14_25  and  C15_26 
REMARK   12  A    between atoms: C15_26  and  C16_27 
ROOT
HETATM    1  C11 UNL     1       7.624   6.415  21.878  1.00  0.00     0.220 C 
ENDROOT
BRANCH   1   2
HETATM    2  N1  UNL     1       6.989   5.359  21.267  1.00  0.00    -0.355 N 
ATOM      3  H1  UNL     1       5.972   5.398  21.342  1.00  0.00     0.163 HD
BRANCH   2   4
HETATM    4  C10 UNL     1       7.460   4.220  20.549  1.00  0.00     0.144 C 
BRANCH   4   5
HETATM    5  C9  UNL     1       7.225   4.126  19.079  1.00  0.00     0.039 C 
HETATM    6  C8  UNL     1       6.370   2.957  18.695  1.00  0.00     0.014 C 
HETATM    7  C2  UNL     1       7.274   1.850  18.297  1.00  0.00    -0.039 C 
HETATM    8  C7  UNL     1       5.518   3.362  17.525  1.00  0.00     0.007 C 
HETATM    9  C1  UNL     1       6.618   0.761  17.499  1.00  0.00     0.015 C 
HETATM   10  C3  UNL     1       8.024   1.206  19.424  1.00  0.00     0.015 C 
HETATM   11  C4  UNL     1       8.270   2.642  17.461  1.00  0.00    -0.005 C 
HETATM   12  C5  UNL     1       7.668   3.193  16.211  1.00  0.00     0.005 C 
HETATM   13  C17 UNL     1       8.576   3.788  18.387  1.00  0.00     0.028 C 
HETATM   14  C6  UNL     1       6.243   3.561  16.254  1.00  0.00     0.001 C 
HETATM   15 BR1  UNL     1       6.695   5.805  18.341  1.00  0.00    -0.083 Br
ENDBRANCH   4   5
ENDBRANCH   2   4
ENDBRANCH   1   2
BRANCH   1  16
HETATM   16  O1  UNL     1       7.670   6.420  23.202  1.00  0.00    -0.332 OA
ATOM     17  H1  UNL     1       8.037   7.187  23.627  1.00  0.00     0.220 HD
ENDBRANCH   1  16
BRANCH   1  18
HETATM   18  N2  UNL     1       8.241   7.506  21.260  1.00  0.00    -0.288 N 
ATOM     19  H2  UNL     1       8.186   7.449  20.243  1.00  0.00     0.173 HD
BRANCH  18  20
HETATM   20  C12 UNL     1       8.900   8.633  21.676  1.00  0.00     0.220 C 
BRANCH  20  21
HETATM   21  O2  UNL     1       9.474   9.372  20.739  1.00  0.00    -0.332 OA
ATOM     22  H2  UNL     1       9.852  10.199  21.014  1.00  0.00     0.220 HD
ENDBRANCH  20  21
BRANCH  20  23
HETATM   23  N3  UNL     1       9.090   9.173  22.942  1.00  0.00    -0.356 N 
ATOM     24  H3  UNL     1       8.347   9.717  23.380  1.00  0.00     0.163 HD
BRANCH  23  25
HETATM   25  C13 UNL     1      10.380   8.959  23.663  1.00  0.00     0.123 C 
BRANCH  25  26
HETATM   26  C14 UNL     1      10.082   8.544  25.051  1.00  0.00     0.020 C 
BRANCH  26  27
HETATM   27  C15 UNL     1      11.124   8.747  26.048  1.00  0.00     0.012 C 
BRANCH  27  28
HETATM   28  C16 UNL     1      11.624   7.570  26.775  1.00  0.00     0.085 C 
HETATM   29 BR2  UNL     1      10.326   6.377  27.472  1.00  0.00    -0.097 Br
ENDBRANCH  27  28
ENDBRANCH  26  27
ENDBRANCH  25  26
ENDBRANCH  23  25
ENDBRANCH  20  23
ENDBRANCH  18  20
ENDBRANCH   1  18
TORSDOF 12
ENDMDL
MODEL 3
REMARK VINA RESULT: -7.443050535      1.440      1.754
REMARK  12 active torsions:
REMARK  status: ('A' for Active; 'I' for Inactive)
REMARK    1  A    between atoms: C9_9  and  C10_11 
REMARK    2  A    between atoms: C10_11  and  N1_12 
REMARK    3  A    between atoms: N1_12  and  C11_14 
REMARK    4  A    between atoms: C11_14  and  O1_15 
REMARK    5  A    between atoms: C11_14  and  N2_17 
REMARK    6  A    between atoms: N2_17  and  C12_19 
REMARK    7  A    between atoms: C12_19  and  O2_20 
REMARK    8  A    between atoms: C12_19  and  N3_22 
REMARK    9  A    between atoms: N3_22  and  C13_24 
REMARK   10  A    between atoms: C13_24  and  C14_25 
REMARK   11  A    between atoms: C14_25  and  C15_26 
REMARK   12  A    between atoms: C15_26  and  C16_27 
ROOT
HETATM    1  C11 UNL     1       7.657   6.654  21.084  1.00  0.00     0.220 C 
ENDROOT
BRANCH   1   2
HETATM    2  N1  UNL     1       7.398   6.200  19.811  1.00  0.00    -0.355 N 
ATOM      3  H1  UNL     1       6.663   6.724  19.336  1.00  0.00     0.163 HD
BRANCH   2   4
HETATM    4  C10 UNL     1       7.947   5.148  19.020  1.00  0.00     0.144 C 
BRANCH   4   5
HETATM    5  C9  UNL     1       7.144   3.915  18.775  1.00  0.00     0.039 C 
HETATM    6  C8  UNL     1       7.716   2.699  19.439  1.00  0.00     0.014 C 
HETATM    7  C2  UNL     1       8.536   1.981  18.433  1.00  0.00    -0.039 C 
HETATM    8  C7  UNL     1       6.577   1.826  19.883  1.00  0.00     0.007 C 
HETATM    9  C1  UNL     1       8.842   0.553  18.779  1.00  0.00     0.015 C 
HETATM   10  C3  UNL     1       9.825   2.652  18.066  1.00  0.00     0.015 C 
HETATM   11  C4  UNL     1       7.596   2.083  17.240  1.00  0.00    -0.005 C 
HETATM   12  C5  UNL     1       6.336   1.304  17.424  1.00  0.00     0.005 C 
HETATM   13  C17 UNL     1       7.255   3.550  17.267  1.00  0.00     0.028 C 
HETATM   14  C6  UNL     1       5.819   1.175  18.797  1.00  0.00     0.001 C 
HETATM   15 BR1  UNL     1       5.283   4.214  19.077  1.00  0.00    -0.083 Br
ENDBRANCH   4   5
ENDBRANCH   2   4
ENDBRANCH   1   2
BRANCH   1  16
HETATM   16  O1  UNL     1       7.655   5.763  22.065  1.00  0.00    -0.332 OA
ATOM     17  H1  UNL     1       8.413   5.196  22.146  1.00  0.00     0.220 HD
ENDBRANCH   1  16
BRANCH   1  18
HETATM   18  N2  UNL     1       7.927   7.966  21.478  1.00  0.00    -0.288 N 
ATOM     19  H2  UNL     1       7.073   8.485  21.685  1.00  0.00     0.173 HD
BRANCH  18  20
HETATM   20  C12 UNL     1       9.048   8.733  21.656  1.00  0.00     0.220 C 
BRANCH  20  21
HETATM   21  O2  UNL     1       9.419   9.498  20.640  1.00  0.00    -0.332 OA
ATOM     22  H2  UNL     1       9.033   9.306  19.794  1.00  0.00     0.220 HD
ENDBRANCH  20  21
BRANCH  20  23
HETATM   23  N3  UNL     1       9.906   8.870  22.741  1.00  0.00    -0.356 N 
ATOM     24  H3  UNL     1      10.903   8.688  22.627  1.00  0.00     0.163 HD
BRANCH  23  25
HETATM   25  C13 UNL     1       9.371   9.283  24.072  1.00  0.00     0.123 C 
BRANCH  25  26
HETATM   26  C14 UNL     1       9.333   8.097  24.954  1.00  0.00     0.020 C 
BRANCH  26  27
HETATM   27  C15 UNL     1       8.053   7.420  25.107  1.00  0.00     0.012 C 
BRANCH  27  28
HETATM   28  C16 UNL     1       6.828   8.184  24.820  1.00  0.00     0.085 C 
HETATM   29 BR2  UNL     1       5.257   7.185  24.462  1.00  0.00    -0.097 Br
ENDBRANCH  27  28
ENDBRANCH  26  27
ENDBRANCH  25  26
ENDBRANCH  23  25
ENDBRANCH  20  23
ENDBRANCH  18  20
ENDBRANCH   1  18
TORSDOF 12
ENDMDL
MODEL 4
REMARK VINA RESULT: -7.436980776      1.264      1.347
REMARK  12 active torsions:
REMARK  status: ('A' for Active; 'I' for Inactive)
REMARK    1  A    between atoms: C9_9  and  C10_11 
REMARK    2  A    between atoms: C10_11  and  N1_12 
REMARK    3  A    between atoms: N1_12  and  C11_14 
REMARK    4  A    between atoms: C11_14  and  O1_15 
REMARK    5  A    between atoms: C11_14  and  N2_17 
REMARK    6  A    between atoms: N2_17  and  C12_19 
REMARK    7  A    between atoms: C12_19  and  O2_20 
REMARK    8  A    between atoms: C12_19  and  N3_22 
REMARK    9  A    between atoms: N3_22  and  C13_24 
REMARK   10  A    between atoms: C13_24  and  C14_25 
REMARK   11  A    between atoms: C14_25  and  C15_26 
REMARK   12  A    between atoms: C15_26  and  C16_27 
ROOT
HETATM    1  C11 UNL     1       7.654   6.697  22.496  1.00  0.00     0.220 C 
ENDROOT
BRANCH   1   2
HETATM    2  N1  UNL     1       7.273   5.590  21.773  1.00  0.00    -0.355 N 
ATOM      3  H1  UNL     1       6.870   4.850  22.347  1.00  0.00     0.163 HD
BRANCH   2   4
HETATM    4  C10 UNL     1       7.327   5.265  20.385  1.00  0.00     0.144 C 
BRANCH   4   5
HETATM    5  C9  UNL     1       6.544   4.106  19.869  1.00  0.00     0.039 C 
HETATM    6  C8  UNL     1       7.238   2.792  20.071  1.00  0.00     0.014 C 
HETATM    7  C2  UNL     1       7.951   2.462  18.812  1.00  0.00    -0.039 C 
HETATM    8  C7  UNL     1       6.195   1.748  20.352  1.00  0.00     0.007 C 
HETATM    9  C1  UNL     1       8.348   1.021  18.677  1.00  0.00     0.015 C 
HETATM   10  C3  UNL     1       9.159   3.302  18.527  1.00  0.00     0.015 C 
HETATM   11  C4  UNL     1       6.866   2.844  17.815  1.00  0.00    -0.005 C 
HETATM   12  C5  UNL     1       5.668   1.957  17.892  1.00  0.00     0.005 C 
HETATM   13  C17 UNL     1       6.480   4.209  18.318  1.00  0.00     0.028 C 
HETATM   14  C6  UNL     1       5.331   1.393  19.209  1.00  0.00     0.001 C 
HETATM   15 BR1  UNL     1       4.727   4.169  20.447  1.00  0.00    -0.083 Br
ENDBRANCH   4   5
ENDBRANCH   2   4
ENDBRANCH   1   2
BRANCH   1  16
HETATM   16  O1  UNL     1       7.680   6.588  23.816  1.00  0.00    -0.332 OA
ATOM     17  H1  UNL     1       8.316   7.112  24.288  1.00  0.00     0.220 HD
ENDBRANCH   1  16
BRANCH   1  18
HETATM   18  N2  UNL     1       8.025   7.949  21.998  1.00  0.00    -0.288 N 
ATOM     19  H2  UNL     1       7.402   8.263  21.255  1.00  0.00     0.173 HD
BRANCH  18  20
HETATM   20  C12 UNL     1       9.015   8.860  22.256  1.00  0.00     0.220 C 
BRANCH  20  21
HETATM   21  O2  UNL     1       9.639   9.380  21.210  1.00  0.00    -0.332 OA
ATOM     22  H2  UNL     1      10.005   8.771  20.580  1.00  0.00     0.220 HD
ENDBRANCH  20  21
BRANCH  20  23
HETATM   23  N3  UNL     1       9.510   9.365  23.452  1.00  0.00    -0.356 N 
ATOM     24  H3  UNL     1       9.012  10.115  23.933  1.00  0.00     0.163 HD
BRANCH  23  25
HETATM   25  C13 UNL     1      10.769   8.815  24.035  1.00  0.00     0.123 C 
BRANCH  25  26
HETATM   26  C14 UNL     1      10.694   8.923  25.508  1.00  0.00     0.020 C 
BRANCH  26  27
HETATM   27  C15 UNL     1      10.447   7.699  26.257  1.00  0.00     0.012 C 
BRANCH  27  28
HETATM   28  C16 UNL     1      11.471   7.257  27.216  1.00  0.00     0.085 C 
HETATM   29 BR2  UNL     1      13.278   7.357  26.650  1.00  0.00    -0.097 Br
ENDBRANCH  27  28
ENDBRANCH  26  27
ENDBRANCH  25  26
ENDBRANCH  23  25
ENDBRANCH  20  23
ENDBRANCH  18  20
ENDBRANCH   1  18
TORSDOF 12
ENDMDL
MODEL 5
REMARK VINA RESULT: -7.405109909      1.018      1.659
REMARK  12 active torsions:
REMARK  status: ('A' for Active; 'I' for Inactive)
REMARK    1  A    between atoms: C9_9  and  C10_11 
REMARK    2  A    between atoms: C10_11  and  N1_12 
REMARK    3  A    between atoms: N1_12  and  C11_14 
REMARK    4  A    between atoms: C11_14  and  O1_15 
REMARK    5  A    between atoms: C11_14  and  N2_17 
REMARK    6  A    between atoms: N2_17  and  C12_19 
REMARK    7  A    between atoms: C12_19  and  O2_20 
REMARK    8  A    between atoms: C12_19  and  N3_22 
REMARK    9  A    between atoms: N3_22  and  C13_24 
REMARK   10  A    between atoms: C13_24  and  C14_25 
REMARK   11  A    between atoms: C14_25  and  C15_26 
REMARK   12  A    between atoms: C15_26  and  C16_27 
ROOT
HETATM    1  C11 UNL     1       7.642   6.501  21.178  1.00  0.00     0.220 C 
ENDROOT
BRANCH   1   2
HETATM    2  N1  UNL     1       7.365   5.691  20.101  1.00  0.00    -0.355 N 
ATOM      3  H1  UNL     1       8.040   5.783  19.341  1.00  0.00     0.163 HD
BRANCH   2   4
HETATM    4  C10 UNL     1       6.329   4.749  19.829  1.00  0.00     0.144 C 
BRANCH   4   5
HETATM    5  C9  UNL     1       6.685   3.354  19.441  1.00  0.00     0.039 C 
HETATM    6  C8  UNL     1       7.850   3.285  18.501  1.00  0.00     0.014 C 
HETATM    7  C2  UNL     1       7.311   3.190  17.122  1.00  0.00    -0.039 C 
HETATM    8  C7  UNL     1       8.640   2.048  18.823  1.00  0.00     0.007 C 
HETATM    9  C1  UNL     1       8.292   2.701  16.098  1.00  0.00     0.015 C 
HETATM   10  C3  UNL     1       6.685   4.448  16.597  1.00  0.00     0.015 C 
HETATM   11  C4  UNL     1       6.199   2.179  17.368  1.00  0.00    -0.005 C 
HETATM   12  C5  UNL     1       6.716   0.828  17.736  1.00  0.00     0.005 C 
HETATM   13  C17 UNL     1       5.529   2.776  18.576  1.00  0.00     0.028 C 
HETATM   14  C6  UNL     1       7.981   0.771  18.486  1.00  0.00     0.001 C 
HETATM   15 BR1  UNL     1       6.790   2.205  20.961  1.00  0.00    -0.083 Br
ENDBRANCH   4   5
ENDBRANCH   2   4
ENDBRANCH   1   2
BRANCH   1  16
HETATM   16  O1  UNL     1       7.692   5.935  22.375  1.00  0.00    -0.332 OA
ATOM     17  H1  UNL     1       8.392   5.314  22.539  1.00  0.00     0.220 HD
ENDBRANCH   1  16
BRANCH   1  18
HETATM   18  N2  UNL     1       7.881   7.878  21.164  1.00  0.00    -0.288 N 
ATOM     19  H2  UNL     1       7.076   8.401  20.822  1.00  0.00     0.173 HD
BRANCH  18  20
HETATM   20  C12 UNL     1       8.925   8.701  21.495  1.00  0.00     0.220 C 
BRANCH  20  21
HETATM   21  O2  UNL     1       9.559   9.297  20.496  1.00  0.00    -0.332 OA
ATOM     22  H2  UNL     1       9.838   8.746  19.774  1.00  0.00     0.220 HD
ENDBRANCH  20  21
BRANCH  20  23
HETATM   23  N3  UNL     1       9.469   9.048  22.726  1.00  0.00    -0.356 N 
ATOM     24  H3  UNL     1      10.450   9.318  22.790  1.00  0.00     0.163 HD
BRANCH  23  25
HETATM   25  C13 UNL     1       8.620   9.025  23.954  1.00  0.00     0.123 C 
BRANCH  25  26
HETATM   26  C14 UNL     1       9.313   8.230  24.992  1.00  0.00     0.020 C 
BRANCH  26  27
HETATM   27  C15 UNL     1      10.719   8.523  25.231  1.00  0.00     0.012 C 
BRANCH  27  28
HETATM   28  C16 UNL     1      11.338   7.988  26.454  1.00  0.00     0.085 C 
HETATM   29 BR2  UNL     1      10.399   6.613  27.360  1.00  0.00    -0.097 Br
ENDBRANCH  27  28
ENDBRANCH  26  27
ENDBRANCH  25  26
ENDBRANCH  23  25
ENDBRANCH  20  23
ENDBRANCH  18  20
ENDBRANCH   1  18
TORSDOF 12
ENDMDL
