MODEL 1
REMARK VINA RESULT: -9.677692885      0.000      0.000
REMARK  6 active torsions:
REMARK  status: ('A' for Active; 'I' for Inactive)
REMARK       I    between atoms: C1_4  and  N2_5 
REMARK       I    between atoms: C1_4  and  N4_27 
REMARK    1  A    between atoms: N2_5  and  C2_7 
REMARK    2  A    between atoms: C4_11  and  C5_12 
REMARK    3  A    between atoms: N4_27  and  C18_29 
REMARK    4  A    between atoms: C18_29  and  C19_30 
REMARK    5  A    between atoms: C19_30  and  C20_31 
REMARK    6  A    between atoms: C21_32  and  C22_33 
ROOT
HETATM    1  C2  UNL     1       6.764   7.022  21.333  1.00  0.00     0.160 C 
HETATM    2  N3  UNL     1       6.968   5.704  21.552  1.00  0.00    -0.349 N 
ATOM      3  H3  UNL     1       7.164   5.436  22.516  1.00  0.00     0.167 HD
HETATM    4  C3  UNL     1       6.943   4.701  20.650  1.00  0.00     0.101 C 
HETATM    5  C4  UNL     1       7.047   4.714  19.271  1.00  0.00     0.016 C 
HETATM    6  C15 UNL     1       6.750   5.833  18.521  1.00  0.00     0.183 C 
HETATM    7  O1  UNL     1       6.761   5.677  17.303  1.00  0.00    -0.288 OA
HETATM    8  C16 UNL     1       6.433   7.143  18.903  1.00  0.00     0.101 C 
HETATM    9  C17 UNL     1       6.292   7.615  20.182  1.00  0.00     0.164 C 
HETATM   10  F1  UNL     1       5.625   8.771  20.327  1.00  0.00    -0.202 F 
ENDROOT
BRANCH   1  11
HETATM   11  N2  UNL     1       7.048   7.750  22.320  1.00  0.00    -0.174 N 
HETATM   12  C1  UNL     1       7.816   7.525  23.448  1.00  0.00     0.673 C 
HETATM   13  N1  UNL     1       7.375   6.811  24.419  1.00  0.00    -0.235 N 
HETATM   14  N4  UNL     1       9.111   8.087  23.565  1.00  0.00    -0.226 N 
ATOM     15  H12 UNL     1       6.442   6.407  24.335  1.00  0.00     0.174 HD
ATOM     16  H11 UNL     1       7.941   6.645  25.251  1.00  0.00     0.174 HD
ATOM     17  H4  UNL     1       9.868   7.803  22.944  1.00  0.00     0.177 HD
ATOM     18  H2  UNL     1       6.634   8.682  22.280  1.00  0.00     0.186 HD
BRANCH  14  19
HETATM   19  C18 UNL     1       9.320   9.081  24.605  1.00  0.00     0.142 C 
BRANCH  19  20
HETATM   20  C19 UNL     1      10.519   8.778  25.446  1.00  0.00     0.047 C 
BRANCH  20  21
HETATM   21  C20 UNL     1      10.511   7.438  26.040  1.00  0.00    -0.028 C 
HETATM   22  C21 UNL     1      11.117   7.083  27.302  1.00  0.00    -0.020 C 
BRANCH  22  23
HETATM   23  C22 UNL     1      12.467   7.373  27.756  1.00  0.00     0.112 C 
HETATM   24 BR1  UNL     1      13.771   7.317  26.303  1.00  0.00    -0.092 Br
ENDBRANCH  22  23
ENDBRANCH  20  21
ENDBRANCH  19  20
ENDBRANCH  14  19
ENDBRANCH   1  11
BRANCH   5  25
HETATM   25  C5  UNL     1       7.489   3.497  18.607  1.00  0.00    -0.007 C 
HETATM   26  C6  UNL     1       7.240   2.303  19.558  1.00  0.00     0.019 C 
HETATM   27  C7  UNL     1       7.848   1.023  18.965  1.00  0.00    -0.013 C 
HETATM   28  C8  UNL     1       9.312   1.127  18.738  1.00  0.00     0.009 C 
HETATM   29  C12 UNL     1       7.178   0.708  17.634  1.00  0.00     0.009 C 
HETATM   30  C9  UNL     1       9.559   2.296  17.809  1.00  0.00    -0.013 C 
HETATM   31  C10 UNL     1       8.878   2.112  16.482  1.00  0.00     0.009 C 
HETATM   32  C14 UNL     1       8.992   3.526  18.456  1.00  0.00     0.019 C 
HETATM   33  C11 UNL     1       7.411   1.902  16.749  1.00  0.00    -0.013 C 
HETATM   34  C13 UNL     1       6.746   3.095  17.377  1.00  0.00     0.019 C 
ENDBRANCH   5  25
TORSDOF 6
ENDMDL
MODEL 2
REMARK VINA RESULT: -9.538379998      0.975      1.097
REMARK  6 active torsions:
REMARK  status: ('A' for Active; 'I' for Inactive)
REMARK       I    between atoms: C1_4  and  N2_5 
REMARK       I    between atoms: C1_4  and  N4_27 
REMARK    1  A    between atoms: N2_5  and  C2_7 
REMARK    2  A    between atoms: C4_11  and  C5_12 
REMARK    3  A    between atoms: N4_27  and  C18_29 
REMARK    4  A    between atoms: C18_29  and  C19_30 
REMARK    5  A    between atoms: C19_30  and  C20_31 
REMARK    6  A    between atoms: C21_32  and  C22_33 
ROOT
HETATM    1  C2  UNL     1       7.411   7.065  21.362  1.00  0.00     0.160 C 
HETATM    2  N3  UNL     1       7.566   5.741  21.579  1.00  0.00    -0.349 N 
ATOM      3  H3  UNL     1       7.856   5.472  22.519  1.00  0.00     0.167 HD
HETATM    4  C3  UNL     1       7.385   4.730  20.703  1.00  0.00     0.101 C 
HETATM    5  C4  UNL     1       7.333   4.723  19.322  1.00  0.00     0.016 C 
HETATM    6  C15 UNL     1       7.014   5.848  18.590  1.00  0.00     0.183 C 
HETATM    7  O1  UNL     1       6.879   5.679  17.381  1.00  0.00    -0.288 OA
HETATM    8  C16 UNL     1       6.814   7.178  18.983  1.00  0.00     0.101 C 
HETATM    9  C17 UNL     1       6.845   7.671  20.261  1.00  0.00     0.164 C 
HETATM   10  F1  UNL     1       6.263   8.864  20.460  1.00  0.00    -0.202 F 
ENDROOT
BRANCH   1  11
HETATM   11  N2  UNL     1       7.844   7.787  22.298  1.00  0.00    -0.174 N 
HETATM   12  C1  UNL     1       7.465   7.916  23.621  1.00  0.00     0.673 C 
HETATM   13  N1  UNL     1       6.405   8.563  23.948  1.00  0.00    -0.235 N 
HETATM   14  N4  UNL     1       8.242   7.343  24.657  1.00  0.00    -0.226 N 
ATOM     15  H12 UNL     1       5.845   8.976  23.202  1.00  0.00     0.174 HD
ATOM     16  H11 UNL     1       6.125   8.658  24.923  1.00  0.00     0.174 HD
ATOM     17  H4  UNL     1       8.345   6.332  24.743  1.00  0.00     0.177 HD
ATOM     18  H2  UNL     1       8.622   8.390  22.031  1.00  0.00     0.186 HD
BRANCH  14  19
HETATM   19  C18 UNL     1       8.888   8.249  25.592  1.00  0.00     0.142 C 
BRANCH  19  20
HETATM   20  C19 UNL     1       9.833   9.187  24.910  1.00  0.00     0.047 C 
BRANCH  20  21
HETATM   21  C20 UNL     1      11.239   8.780  24.984  1.00  0.00    -0.028 C 
HETATM   22  C21 UNL     1      11.757   7.721  25.820  1.00  0.00    -0.020 C 
BRANCH  22  23
HETATM   23  C22 UNL     1      11.530   7.514  27.240  1.00  0.00     0.112 C 
HETATM   24 BR1  UNL     1      10.486   5.904  27.603  1.00  0.00    -0.092 Br
ENDBRANCH  22  23
ENDBRANCH  20  21
ENDBRANCH  19  20
ENDBRANCH  14  19
ENDBRANCH   1  11
BRANCH   5  25
HETATM   25  C5  UNL     1       7.630   3.475  18.633  1.00  0.00    -0.007 C 
HETATM   26  C6  UNL     1       7.385   2.306  19.614  1.00  0.00     0.019 C 
HETATM   27  C7  UNL     1       7.849   0.984  18.982  1.00  0.00    -0.013 C 
HETATM   28  C8  UNL     1       9.291   0.986  18.627  1.00  0.00     0.009 C 
HETATM   29  C12 UNL     1       7.044   0.711  17.718  1.00  0.00     0.009 C 
HETATM   30  C9  UNL     1       9.534   2.131  17.668  1.00  0.00    -0.013 C 
HETATM   31  C10 UNL     1       8.728   1.990  16.408  1.00  0.00     0.009 C 
HETATM   32  C14 UNL     1       9.113   3.400  18.350  1.00  0.00     0.019 C 
HETATM   33  C11 UNL     1       7.279   1.883  16.805  1.00  0.00    -0.013 C 
HETATM   34  C13 UNL     1       6.756   3.122  17.477  1.00  0.00     0.019 C 
ENDBRANCH   5  25
TORSDOF 6
ENDMDL
MODEL 3
REMARK VINA RESULT: -9.534296518      1.228      1.497
REMARK  6 active torsions:
REMARK  status: ('A' for Active; 'I' for Inactive)
REMARK       I    between atoms: C1_4  and  N2_5 
REMARK       I    between atoms: C1_4  and  N4_27 
REMARK    1  A    between atoms: N2_5  and  C2_7 
REMARK    2  A    between atoms: C4_11  and  C5_12 
REMARK    3  A    between atoms: N4_27  and  C18_29 
REMARK    4  A    between atoms: C18_29  and  C19_30 
REMARK    5  A    between atoms: C19_30  and  C20_31 
REMARK    6  A    between atoms: C21_32  and  C22_33 
ROOT
HETATM    1  C2  UNL     1       7.494   6.864  21.779  1.00  0.00     0.160 C 
HETATM    2  N3  UNL     1       7.534   5.518  21.891  1.00  0.00    -0.349 N 
ATOM      3  H3  UNL     1       7.740   5.153  22.821  1.00  0.00     0.167 HD
HETATM    4  C3  UNL     1       7.334   4.600  20.923  1.00  0.00     0.101 C 
HETATM    5  C4  UNL     1       7.372   4.707  19.546  1.00  0.00     0.016 C 
HETATM    6  C15 UNL     1       7.188   5.910  18.895  1.00  0.00     0.183 C 
HETATM    7  O1  UNL     1       7.119   5.849  17.670  1.00  0.00    -0.288 OA
HETATM    8  C16 UNL     1       7.064   7.216  19.388  1.00  0.00     0.101 C 
HETATM    9  C17 UNL     1       7.049   7.601  20.702  1.00  0.00     0.164 C 
HETATM   10  F1  UNL     1       6.547   8.816  20.968  1.00  0.00    -0.202 F 
ENDROOT
BRANCH   1  11
HETATM   11  N2  UNL     1       7.919   7.471  22.797  1.00  0.00    -0.174 N 
HETATM   12  C1  UNL     1       7.432   7.571  24.087  1.00  0.00     0.673 C 
HETATM   13  N1  UNL     1       6.431   8.326  24.362  1.00  0.00    -0.235 N 
HETATM   14  N4  UNL     1       8.033   6.846  25.146  1.00  0.00    -0.226 N 
ATOM     15  H12 UNL     1       5.999   8.848  23.600  1.00  0.00     0.174 HD
ATOM     16  H11 UNL     1       6.072   8.399  25.314  1.00  0.00     0.174 HD
ATOM     17  H4  UNL     1       8.005   5.827  25.171  1.00  0.00     0.177 HD
ATOM     18  H2  UNL     1       8.786   7.986  22.641  1.00  0.00     0.186 HD
BRANCH  14  19
HETATM   19  C18 UNL     1       8.690   7.609  26.194  1.00  0.00     0.142 C 
BRANCH  19  20
HETATM   20  C19 UNL     1       9.627   6.770  27.003  1.00  0.00     0.047 C 
BRANCH  20  21
HETATM   21  C20 UNL     1      10.976   7.330  27.130  1.00  0.00    -0.028 C 
HETATM   22  C21 UNL     1      11.533   8.360  26.283  1.00  0.00    -0.020 C 
BRANCH  22  23
HETATM   23  C22 UNL     1      11.554   8.405  24.831  1.00  0.00     0.112 C 
HETATM   24 BR1  UNL     1      10.419   9.823  24.111  1.00  0.00    -0.092 Br
ENDBRANCH  22  23
ENDBRANCH  20  21
ENDBRANCH  19  20
ENDBRANCH  14  19
ENDBRANCH   1  11
BRANCH   5  25
HETATM   25  C5  UNL     1       7.618   3.499  18.772  1.00  0.00    -0.007 C 
HETATM   26  C6  UNL     1       7.402   2.276  19.693  1.00  0.00     0.019 C 
HETATM   27  C7  UNL     1       7.816   0.989  18.964  1.00  0.00    -0.013 C 
HETATM   28  C8  UNL     1       9.240   0.995  18.540  1.00  0.00     0.009 C 
HETATM   29  C12 UNL     1       6.949   0.801  17.726  1.00  0.00     0.009 C 
HETATM   30  C9  UNL     1       9.454   2.192  17.640  1.00  0.00    -0.013 C 
HETATM   31  C10 UNL     1       8.588   2.135  16.414  1.00  0.00     0.009 C 
HETATM   32  C14 UNL     1       9.084   3.423  18.414  1.00  0.00     0.019 C 
HETATM   33  C11 UNL     1       7.158   2.022  16.873  1.00  0.00    -0.013 C 
HETATM   34  C13 UNL     1       6.685   3.224  17.640  1.00  0.00     0.019 C 
ENDBRANCH   5  25
TORSDOF 6
ENDMDL
MODEL 4
REMARK VINA RESULT: -9.282863584      0.265      1.400
REMARK  6 active torsions:
REMARK  status: ('A' for Active; 'I' for Inactive)
REMARK       I    between atoms: C1_4  and  N2_5 
REMARK       I    between atoms: C1_4  and  N4_27 
REMARK    1  A    between atoms: N2_5  and  C2_7 
REMARK    2  A    between atoms: C4_11  and  C5_12 
REMARK    3  A    between atoms: N4_27  and  C18_29 
REMARK    4  A    between atoms: C18_29  and  C19_30 
REMARK    5  A    between atoms: C19_30  and  C20_31 
REMARK    6  A    between atoms: C21_32  and  C22_33 
ROOT
HETATM    1  C2  UNL     1       7.049   7.149  21.279  1.00  0.00     0.160 C 
HETATM    2  N3  UNL     1       7.211   5.846  21.597  1.00  0.00    -0.349 N 
ATOM      3  H3  UNL     1       7.400   5.645  22.579  1.00  0.00     0.167 HD
HETATM    4  C3  UNL     1       7.152   4.778  20.774  1.00  0.00     0.101 C 
HETATM    5  C4  UNL     1       7.255   4.683  19.399  1.00  0.00     0.016 C 
HETATM    6  C15 UNL     1       6.994   5.751  18.565  1.00  0.00     0.183 C 
HETATM    7  O1  UNL     1       6.998   5.503  17.362  1.00  0.00    -0.288 OA
HETATM    8  C16 UNL     1       6.719   7.096  18.847  1.00  0.00     0.101 C 
HETATM    9  C17 UNL     1       6.595   7.668  20.085  1.00  0.00     0.164 C 
HETATM   10  F1  UNL     1       5.966   8.852  20.142  1.00  0.00    -0.202 F 
ENDROOT
BRANCH   1  11
HETATM   11  N2  UNL     1       7.358   7.940  22.208  1.00  0.00    -0.174 N 
HETATM   12  C1  UNL     1       8.044   7.756  23.394  1.00  0.00     0.673 C 
HETATM   13  N1  UNL     1       7.489   7.186  24.401  1.00  0.00    -0.235 N 
HETATM   14  N4  UNL     1       9.382   8.200  23.532  1.00  0.00    -0.226 N 
ATOM     15  H12 UNL     1       6.525   6.866  24.302  1.00  0.00     0.174 HD
ATOM     16  H11 UNL     1       7.995   7.050  25.275  1.00  0.00     0.174 HD
ATOM     17  H4  UNL     1      10.136   7.786  22.984  1.00  0.00     0.177 HD
ATOM     18  H2  UNL     1       7.041   8.899  22.058  1.00  0.00     0.186 HD
BRANCH  14  19
HETATM   19  C18 UNL     1       9.640   9.268  24.484  1.00  0.00     0.142 C 
BRANCH  19  20
HETATM   20  C19 UNL     1      10.702   8.902  25.472  1.00  0.00     0.047 C 
BRANCH  20  21
HETATM   21  C20 UNL     1      10.578   7.543  26.009  1.00  0.00    -0.028 C 
HETATM   22  C21 UNL     1      11.125   7.092  27.268  1.00  0.00    -0.020 C 
BRANCH  22  23
HETATM   23  C22 UNL     1      12.482   7.259  27.762  1.00  0.00     0.112 C 
HETATM   24 BR1  UNL     1      13.797   7.332  26.319  1.00  0.00    -0.092 Br
ENDBRANCH  22  23
ENDBRANCH  20  21
ENDBRANCH  19  20
ENDBRANCH  14  19
ENDBRANCH   1  11
BRANCH   5  25
HETATM   25  C5  UNL     1       7.657   3.405  18.829  1.00  0.00    -0.007 C 
HETATM   26  C6  UNL     1       9.157   3.484  18.464  1.00  0.00     0.019 C 
HETATM   27  C7  UNL     1       9.580   2.217  17.704  1.00  0.00    -0.013 C 
HETATM   28  C8  UNL     1       8.815   2.012  16.447  1.00  0.00     0.009 C 
HETATM   29  C12 UNL     1       9.377   0.996  18.592  1.00  0.00     0.009 C 
HETATM   30  C9  UNL     1       7.346   1.937  16.802  1.00  0.00    -0.013 C 
HETATM   31  C10 UNL     1       7.050   0.798  17.736  1.00  0.00     0.009 C 
HETATM   32  C14 UNL     1       6.973   3.215  17.495  1.00  0.00     0.019 C 
HETATM   33  C11 UNL     1       7.918   0.973  18.955  1.00  0.00    -0.013 C 
HETATM   34  C13 UNL     1       7.601   2.220  19.733  1.00  0.00     0.019 C 
ENDBRANCH   5  25
TORSDOF 6
ENDMDL
MODEL 5
REMARK VINA RESULT: -8.932933750      3.859      4.960
REMARK  6 active torsions:
REMARK  status: ('A' for Active; 'I' for Inactive)
REMARK       I    between atoms: C1_4  and  N2_5 
REMARK       I    between atoms: C1_4  and  N4_27 
REMARK    1  A    between atoms: N2_5  and  C2_7 
REMARK    2  A    between atoms: C4_11  and  C5_12 
REMARK    3  A    between atoms: N4_27  and  C18_29 
REMARK    4  A    between atoms: C18_29  and  C19_30 
REMARK    5  A    between atoms: C19_30  and  C20_31 
REMARK    6  A    between atoms: C21_32  and  C22_33 
ROOT
HETATM    1  C2  UNL     1       5.164   5.600  21.904  1.00  0.00     0.160 C 
HETATM    2  N3  UNL     1       5.337   4.275  21.707  1.00  0.00    -0.349 N 
ATOM      3  H3  UNL     1       5.050   3.667  22.473  1.00  0.00     0.167 HD
HETATM    4  C3  UNL     1       5.842   3.658  20.618  1.00  0.00     0.101 C 
HETATM    5  C4  UNL     1       6.615   4.139  19.577  1.00  0.00     0.016 C 
HETATM    6  C15 UNL     1       6.641   5.475  19.235  1.00  0.00     0.183 C 
HETATM    7  O1  UNL     1       7.267   5.754  18.216  1.00  0.00    -0.288 OA
HETATM    8  C16 UNL     1       6.072   6.597  19.853  1.00  0.00     0.101 C 
HETATM    9  C17 UNL     1       5.279   6.607  20.970  1.00  0.00     0.164 C 
HETATM   10  F1  UNL     1       4.538   7.707  21.172  1.00  0.00    -0.202 F 
ENDROOT
BRANCH   1  11
HETATM   11  N2  UNL     1       4.862   5.901  23.089  1.00  0.00    -0.174 N 
HETATM   12  C1  UNL     1       5.445   6.755  24.006  1.00  0.00     0.673 C 
HETATM   13  N1  UNL     1       6.519   6.428  24.628  1.00  0.00    -0.235 N 
HETATM   14  N4  UNL     1       4.865   8.016  24.291  1.00  0.00    -0.226 N 
ATOM     15  H12 UNL     1       6.937   5.520  24.423  1.00  0.00     0.174 HD
ATOM     16  H11 UNL     1       6.949   7.058  25.304  1.00  0.00     0.174 HD
ATOM     17  H4  UNL     1       4.815   8.747  23.582  1.00  0.00     0.177 HD
ATOM     18  H2  UNL     1       4.029   5.425  23.438  1.00  0.00     0.186 HD
BRANCH  14  19
HETATM   19  C18 UNL     1       4.346   8.228  25.633  1.00  0.00     0.142 C 
BRANCH  19  20
HETATM   20  C19 UNL     1       3.610   9.524  25.756  1.00  0.00     0.047 C 
BRANCH  20  21
HETATM   21  C20 UNL     1       2.950   9.958  24.521  1.00  0.00    -0.028 C 
HETATM   22  C21 UNL     1       1.526   9.913  24.278  1.00  0.00    -0.020 C 
BRANCH  22  23
HETATM   23  C22 UNL     1       0.624   8.790  24.471  1.00  0.00     0.112 C 
HETATM   24 BR1  UNL     1      -0.255   8.831  26.215  1.00  0.00    -0.092 Br
ENDBRANCH  22  23
ENDBRANCH  20  21
ENDBRANCH  19  20
ENDBRANCH  14  19
ENDBRANCH   1  11
BRANCH   5  25
HETATM   25  C5  UNL     1       7.424   3.188  18.829  1.00  0.00    -0.007 C 
HETATM   26  C6  UNL     1       6.819   3.040  17.414  1.00  0.00     0.019 C 
HETATM   27  C7  UNL     1       7.540   1.919  16.649  1.00  0.00    -0.013 C 
HETATM   28  C8  UNL     1       7.444   0.600  17.326  1.00  0.00     0.009 C 
HETATM   29  C12 UNL     1       9.014   2.271  16.494  1.00  0.00     0.009 C 
HETATM   30  C9  UNL     1       8.033   0.743  18.712  1.00  0.00    -0.013 C 
HETATM   31  C10 UNL     1       9.477   1.157  18.670  1.00  0.00     0.009 C 
HETATM   32  C14 UNL     1       7.264   1.811  19.433  1.00  0.00     0.019 C 
HETATM   33  C11 UNL     1       9.558   2.441  17.886  1.00  0.00    -0.013 C 
HETATM   34  C13 UNL     1       8.834   3.583  18.543  1.00  0.00     0.019 C 
ENDBRANCH   5  25
TORSDOF 6
ENDMDL
