MODEL 1
REMARK VINA RESULT: -7.618405739      0.000      0.000
REMARK  9 active torsions:
REMARK  status: ('A' for Active; 'I' for Inactive)
REMARK    1  A    between atoms: C3_3  and  C5_6 
REMARK    2  A    between atoms: C8_12  and  C9_13 
REMARK    3  A    between atoms: N2_19  and  C14_21 
REMARK    4  A    between atoms: C14_21  and  N3_23 
REMARK    5  A    between atoms: N3_23  and  C15_25 
REMARK    6  A    between atoms: C15_25  and  C16_26 
REMARK    7  A    between atoms: C16_26  and  C17_27 
REMARK    8  A    between atoms: C17_27  and  C18_28 
REMARK    9  A    between atoms: C18_28  and  C19_29 
ROOT
HETATM    1  C1  UNL     1       9.781   2.138  17.978  1.00  0.00     0.016 C 
HETATM    2  C2  UNL     1       8.778   2.394  18.600  1.00  0.00    -0.070 C 
HETATM    3  C3  UNL     1       7.555   2.734  19.370  1.00  0.00     0.183 C 
HETATM    4  C4  UNL     1       7.113   1.568  20.199  1.00  0.00     0.071 C 
HETATM    5  F1  UNL     1       6.532   2.921  18.422  1.00  0.00    -0.225 F 
ENDROOT
BRANCH   3   6
HETATM    6  C5  UNL     1       7.724   3.991  20.102  1.00  0.00     0.077 C 
HETATM    7  C6  UNL     1       6.877   4.633  20.842  1.00  0.00     0.109 C 
HETATM    8  N1  UNL     1       5.567   4.141  21.048  1.00  0.00    -0.309 N 
HETATM    9  N4  UNL     1       7.384   5.860  21.416  1.00  0.00    -0.328 N 
HETATM   10  C7  UNL     1       4.511   4.673  21.895  1.00  0.00     0.255 C 
ATOM     11  H1  UNL     1       5.330   3.294  20.530  1.00  0.00     0.170 HD
HETATM   12  O1  UNL     1       3.643   3.858  22.235  1.00  0.00    -0.268 OA
HETATM   13  C8  UNL     1       4.364   6.033  22.380  1.00  0.00     0.034 C 
HETATM   14  C12 UNL     1       5.269   6.989  22.368  1.00  0.00     0.067 C 
HETATM   15 BR1  UNL     1       4.691   8.654  23.101  1.00  0.00    -0.046 Br
HETATM   16  C13 UNL     1       6.668   7.017  21.878  1.00  0.00     0.127 C 
HETATM   17  N2  UNL     1       7.246   8.127  21.871  1.00  0.00    -0.318 N 
ATOM     18  H2  UNL     1       6.650   8.879  22.217  1.00  0.00     0.170 HD
ATOM     19  H4  UNL     1       8.399   5.912  21.505  1.00  0.00     0.169 HD
BRANCH  13  20
HETATM   20  C9  UNL     1       3.059   6.417  22.961  1.00  0.00     0.017 C 
HETATM   21  C10 UNL     1       2.713   5.632  24.191  1.00  0.00     0.015 C 
HETATM   22  C11 UNL     1       2.026   6.292  21.864  1.00  0.00     0.015 C 
ENDBRANCH  13  20
BRANCH  17  23
HETATM   23  C14 UNL     1       8.483   8.566  21.510  1.00  0.00     0.173 C 
HETATM   24  S1  UNL     1       8.840   8.890  19.953  1.00  0.00    -0.041 SA
BRANCH  23  25
HETATM   25  N3  UNL     1       9.527   8.765  22.492  1.00  0.00    -0.367 N 
ATOM     26  H3  UNL     1      10.515   8.719  22.240  1.00  0.00     0.161 HD
BRANCH  25  27
HETATM   27  C15 UNL     1       9.110   9.029  23.819  1.00  0.00     0.122 C 
BRANCH  27  28
HETATM   28  C16 UNL     1       8.946   7.927  24.787  1.00  0.00     0.020 C 
BRANCH  28  29
HETATM   29  C17 UNL     1       9.535   8.094  26.136  1.00  0.00     0.002 C 
BRANCH  29  30
HETATM   30  C18 UNL     1      11.006   8.170  26.248  1.00  0.00    -0.000 C 
BRANCH  30  31
HETATM   31  C19 UNL     1      11.630   7.191  27.219  1.00  0.00    -0.005 C 
HETATM   32  C20 UNL     1      10.631   6.109  27.590  1.00  0.00     0.005 C 
ENDBRANCH  30  31
ENDBRANCH  29  30
ENDBRANCH  28  29
ENDBRANCH  27  28
ENDBRANCH  25  27
ENDBRANCH  23  25
ENDBRANCH  17  23
ENDBRANCH   3   6
TORSDOF 9
ENDMDL
MODEL 2
REMARK VINA RESULT: -7.327097024      2.882      6.736
REMARK  9 active torsions:
REMARK  status: ('A' for Active; 'I' for Inactive)
REMARK    1  A    between atoms: C3_3  and  C5_6 
REMARK    2  A    between atoms: C8_12  and  C9_13 
REMARK    3  A    between atoms: N2_19  and  C14_21 
REMARK    4  A    between atoms: C14_21  and  N3_23 
REMARK    5  A    between atoms: N3_23  and  C15_25 
REMARK    6  A    between atoms: C15_25  and  C16_26 
REMARK    7  A    between atoms: C16_26  and  C17_27 
REMARK    8  A    between atoms: C17_27  and  C18_28 
REMARK    9  A    between atoms: C18_28  and  C19_29 
ROOT
HETATM    1  C1  UNL     1       9.811   7.129  26.851  1.00  0.00     0.016 C 
HETATM    2  C2  UNL     1       9.874   7.793  25.845  1.00  0.00    -0.070 C 
HETATM    3  C3  UNL     1       9.930   8.594  24.596  1.00  0.00     0.183 C 
HETATM    4  C4  UNL     1      11.351   8.844  24.193  1.00  0.00     0.071 C 
HETATM    5  F1  UNL     1       9.411   9.862  24.919  1.00  0.00    -0.225 F 
ENDROOT
BRANCH   3   6
HETATM    6  C5  UNL     1       9.080   8.013  23.556  1.00  0.00     0.077 C 
HETATM    7  C6  UNL     1       7.788   7.990  23.466  1.00  0.00     0.109 C 
HETATM    8  N1  UNL     1       6.977   8.584  24.460  1.00  0.00    -0.309 N 
HETATM    9  N4  UNL     1       7.276   7.318  22.293  1.00  0.00    -0.328 N 
HETATM   10  C7  UNL     1       5.529   8.725  24.497  1.00  0.00     0.255 C 
ATOM     11  H1  UNL     1       7.476   8.968  25.262  1.00  0.00     0.170 HD
HETATM   12  O1  UNL     1       5.103   9.632  25.224  1.00  0.00    -0.268 OA
HETATM   13  C8  UNL     1       4.542   7.933  23.785  1.00  0.00     0.034 C 
HETATM   14  C12 UNL     1       4.752   7.106  22.783  1.00  0.00     0.067 C 
HETATM   15 BR1  UNL     1       3.188   6.243  22.111  1.00  0.00    -0.046 Br
HETATM   16  C13 UNL     1       5.993   6.708  22.075  1.00  0.00     0.127 C 
HETATM   17  N2  UNL     1       5.899   5.781  21.240  1.00  0.00    -0.318 N 
ATOM     18  H2  UNL     1       4.947   5.420  21.164  1.00  0.00     0.170 HD
ATOM     19  H4  UNL     1       7.920   7.269  21.503  1.00  0.00     0.169 HD
BRANCH  13  20
HETATM   20  C9  UNL     1       3.131   8.049  24.214  1.00  0.00     0.017 C 
HETATM   21  C10 UNL     1       2.583   9.435  24.051  1.00  0.00     0.015 C 
HETATM   22  C11 UNL     1       3.051   7.540  25.635  1.00  0.00     0.015 C 
ENDBRANCH  13  20
BRANCH  17  23
HETATM   23  C14 UNL     1       6.767   5.141  20.411  1.00  0.00     0.173 C 
HETATM   24  S1  UNL     1       7.176   5.777  18.966  1.00  0.00    -0.041 SA
BRANCH  23  25
HETATM   25  N3  UNL     1       7.365   3.875  20.777  1.00  0.00    -0.367 N 
ATOM     26  H3  UNL     1       8.365   3.786  20.956  1.00  0.00     0.161 HD
BRANCH  25  27
HETATM   27  C15 UNL     1       6.491   2.765  20.876  1.00  0.00     0.122 C 
BRANCH  27  28
HETATM   28  C16 UNL     1       6.902   1.439  20.378  1.00  0.00     0.020 C 
BRANCH  28  29
HETATM   29  C17 UNL     1       7.469   1.355  19.012  1.00  0.00     0.002 C 
BRANCH  29  30
HETATM   30  C18 UNL     1       8.749   0.639  18.831  1.00  0.00    -0.000 C 
BRANCH  30  31
HETATM   31  C19 UNL     1       9.843   1.435  18.154  1.00  0.00    -0.005 C 
HETATM   32  C20 UNL     1       9.478   2.909  18.121  1.00  0.00     0.005 C 
ENDBRANCH  30  31
ENDBRANCH  29  30
ENDBRANCH  28  29
ENDBRANCH  27  28
ENDBRANCH  25  27
ENDBRANCH  23  25
ENDBRANCH  17  23
ENDBRANCH   3   6
TORSDOF 9
ENDMDL
MODEL 3
REMARK VINA RESULT: -7.285106911      3.129      6.258
REMARK  9 active torsions:
REMARK  status: ('A' for Active; 'I' for Inactive)
REMARK    1  A    between atoms: C3_3  and  C5_6 
REMARK    2  A    between atoms: C8_12  and  C9_13 
REMARK    3  A    between atoms: N2_19  and  C14_21 
REMARK    4  A    between atoms: C14_21  and  N3_23 
REMARK    5  A    between atoms: N3_23  and  C15_25 
REMARK    6  A    between atoms: C15_25  and  C16_26 
REMARK    7  A    between atoms: C16_26  and  C17_27 
REMARK    8  A    between atoms: C17_27  and  C18_28 
REMARK    9  A    between atoms: C18_28  and  C19_29 
ROOT
HETATM    1  C1  UNL     1       2.240   0.390  20.546  1.00  0.00     0.016 C 
HETATM    2  C2  UNL     1       2.732   1.193  21.302  1.00  0.00    -0.070 C 
HETATM    3  C3  UNL     1       3.354   2.191  22.209  1.00  0.00     0.183 C 
HETATM    4  C4  UNL     1       3.594   1.595  23.561  1.00  0.00     0.071 C 
HETATM    5  F1  UNL     1       2.386   3.193  22.414  1.00  0.00    -0.225 F 
ENDROOT
BRANCH   3   6
HETATM    6  C5  UNL     1       4.521   2.816  21.586  1.00  0.00     0.077 C 
HETATM    7  C6  UNL     1       5.075   3.960  21.836  1.00  0.00     0.109 C 
HETATM    8  N1  UNL     1       4.562   4.815  22.839  1.00  0.00    -0.309 N 
HETATM    9  N4  UNL     1       6.226   4.267  21.016  1.00  0.00    -0.328 N 
HETATM   10  C7  UNL     1       5.082   6.089  23.311  1.00  0.00     0.255 C 
ATOM     11  H1  UNL     1       3.707   4.494  23.295  1.00  0.00     0.170 HD
HETATM   12  O1  UNL     1       4.724   6.419  24.449  1.00  0.00    -0.268 OA
HETATM   13  C8  UNL     1       5.966   7.002  22.608  1.00  0.00     0.034 C 
HETATM   14  C12 UNL     1       6.669   6.757  21.523  1.00  0.00     0.067 C 
HETATM   15 BR1  UNL     1       7.716   8.225  20.895  1.00  0.00    -0.046 Br
HETATM   16  C13 UNL     1       6.795   5.543  20.681  1.00  0.00     0.127 C 
HETATM   17  N2  UNL     1       7.440   5.655  19.615  1.00  0.00    -0.318 N 
ATOM     18  H2  UNL     1       7.799   6.600  19.474  1.00  0.00     0.170 HD
ATOM     19  H4  UNL     1       6.704   3.459  20.617  1.00  0.00     0.169 HD
BRANCH  13  20
HETATM   20  C9  UNL     1       6.111   8.370  23.151  1.00  0.00     0.017 C 
HETATM   21  C10 UNL     1       6.713   8.393  24.525  1.00  0.00     0.015 C 
HETATM   22  C11 UNL     1       4.750   9.024  23.086  1.00  0.00     0.015 C 
ENDBRANCH  13  20
BRANCH  17  23
HETATM   23  C14 UNL     1       7.774   4.813  18.599  1.00  0.00     0.173 C 
HETATM   24  S1  UNL     1       6.805   4.634  17.300  1.00  0.00    -0.041 SA
BRANCH  23  25
HETATM   25  N3  UNL     1       9.002   4.047  18.629  1.00  0.00    -0.367 N 
ATOM     26  H3  UNL     1       9.781   4.307  19.233  1.00  0.00     0.161 HD
BRANCH  25  27
HETATM   27  C15 UNL     1       9.066   2.918  17.777  1.00  0.00     0.122 C 
BRANCH  27  28
HETATM   28  C16 UNL     1       9.439   1.595  18.311  1.00  0.00     0.020 C 
BRANCH  28  29
HETATM   29  C17 UNL     1       8.348   0.654  18.661  1.00  0.00     0.002 C 
BRANCH  29  30
HETATM   30  C18 UNL     1       7.186   1.181  19.404  1.00  0.00    -0.000 C 
BRANCH  30  31
HETATM   31  C19 UNL     1       5.882   1.197  18.636  1.00  0.00    -0.005 C 
HETATM   32  C20 UNL     1       6.095   0.671  17.228  1.00  0.00     0.005 C 
ENDBRANCH  30  31
ENDBRANCH  29  30
ENDBRANCH  28  29
ENDBRANCH  27  28
ENDBRANCH  25  27
ENDBRANCH  23  25
ENDBRANCH  17  23
ENDBRANCH   3   6
TORSDOF 9
ENDMDL
MODEL 4
REMARK VINA RESULT: -7.136765600      3.453      7.008
REMARK  9 active torsions:
REMARK  status: ('A' for Active; 'I' for Inactive)
REMARK    1  A    between atoms: C3_3  and  C5_6 
REMARK    2  A    between atoms: C8_12  and  C9_13 
REMARK    3  A    between atoms: N2_19  and  C14_21 
REMARK    4  A    between atoms: C14_21  and  N3_23 
REMARK    5  A    between atoms: N3_23  and  C15_25 
REMARK    6  A    between atoms: C15_25  and  C16_26 
REMARK    7  A    between atoms: C16_26  and  C17_27 
REMARK    8  A    between atoms: C17_27  and  C18_28 
REMARK    9  A    between atoms: C18_28  and  C19_29 
ROOT
HETATM    1  C1  UNL     1       9.300   7.428  26.245  1.00  0.00     0.016 C 
HETATM    2  C2  UNL     1       8.937   7.808  25.157  1.00  0.00    -0.070 C 
HETATM    3  C3  UNL     1       8.476   8.248  23.816  1.00  0.00     0.183 C 
HETATM    4  C4  UNL     1       9.575   8.960  23.090  1.00  0.00     0.071 C 
HETATM    5  F1  UNL     1       7.489   9.227  24.041  1.00  0.00    -0.225 F 
ENDROOT
BRANCH   3   6
HETATM    6  C5  UNL     1       7.855   7.145  23.082  1.00  0.00     0.077 C 
HETATM    7  C6  UNL     1       7.167   7.171  21.984  1.00  0.00     0.109 C 
HETATM    8  N1  UNL     1       6.918   8.387  21.307  1.00  0.00    -0.309 N 
HETATM    9  N4  UNL     1       6.694   5.880  21.537  1.00  0.00    -0.328 N 
HETATM   10  C7  UNL     1       6.240   8.607  20.038  1.00  0.00     0.255 C 
ATOM     11  H1  UNL     1       7.262   9.227  21.772  1.00  0.00     0.170 HD
HETATM   12  O1  UNL     1       6.523   9.666  19.463  1.00  0.00    -0.268 OA
HETATM   13  C8  UNL     1       5.285   7.735  19.380  1.00  0.00     0.034 C 
HETATM   14  C12 UNL     1       5.028   6.474  19.659  1.00  0.00     0.067 C 
HETATM   15 BR1  UNL     1       3.694   5.662  18.562  1.00  0.00    -0.046 Br
HETATM   16  C13 UNL     1       5.582   5.558  20.685  1.00  0.00     0.127 C 
HETATM   17  N2  UNL     1       5.034   4.440  20.804  1.00  0.00    -0.318 N 
ATOM     18  H2  UNL     1       4.258   4.315  20.153  1.00  0.00     0.170 HD
ATOM     19  H4  UNL     1       7.227   5.079  21.877  1.00  0.00     0.169 HD
BRANCH  13  20
HETATM   20  C9  UNL     1       4.495   8.300  18.265  1.00  0.00     0.017 C 
HETATM   21  C10 UNL     1       5.342   8.701  17.093  1.00  0.00     0.015 C 
HETATM   22  C11 UNL     1       3.678   9.441  18.827  1.00  0.00     0.015 C 
ENDBRANCH  13  20
BRANCH  17  23
HETATM   23  C14 UNL     1       5.231   3.351  21.596  1.00  0.00     0.173 C 
HETATM   24  S1  UNL     1       4.233   3.026  22.844  1.00  0.00    -0.041 SA
BRANCH  23  25
HETATM   25  N3  UNL     1       6.329   2.437  21.363  1.00  0.00    -0.367 N 
ATOM     26  H3  UNL     1       7.058   2.287  22.060  1.00  0.00     0.161 HD
BRANCH  25  27
HETATM   27  C15 UNL     1       6.339   1.762  20.118  1.00  0.00     0.122 C 
BRANCH  27  28
HETATM   28  C16 UNL     1       7.591   1.194  19.584  1.00  0.00     0.020 C 
BRANCH  28  29
HETATM   29  C17 UNL     1       8.157   1.795  18.353  1.00  0.00     0.002 C 
BRANCH  29  30
HETATM   30  C18 UNL     1       9.069   2.949  18.497  1.00  0.00    -0.000 C 
BRANCH  30  31
HETATM   31  C19 UNL     1       8.391   4.299  18.583  1.00  0.00    -0.005 C 
HETATM   32  C20 UNL     1       7.300   4.408  17.532  1.00  0.00     0.005 C 
ENDBRANCH  30  31
ENDBRANCH  29  30
ENDBRANCH  28  29
ENDBRANCH  27  28
ENDBRANCH  25  27
ENDBRANCH  23  25
ENDBRANCH  17  23
ENDBRANCH   3   6
TORSDOF 9
ENDMDL
MODEL 5
REMARK VINA RESULT: -7.121896515      1.363      1.695
REMARK  9 active torsions:
REMARK  status: ('A' for Active; 'I' for Inactive)
REMARK    1  A    between atoms: C3_3  and  C5_6 
REMARK    2  A    between atoms: C8_12  and  C9_13 
REMARK    3  A    between atoms: N2_19  and  C14_21 
REMARK    4  A    between atoms: C14_21  and  N3_23 
REMARK    5  A    between atoms: N3_23  and  C15_25 
REMARK    6  A    between atoms: C15_25  and  C16_26 
REMARK    7  A    between atoms: C16_26  and  C17_27 
REMARK    8  A    between atoms: C17_27  and  C18_28 
REMARK    9  A    between atoms: C18_28  and  C19_29 
ROOT
HETATM    1  C1  UNL     1       7.941   0.854  19.274  1.00  0.00     0.016 C 
HETATM    2  C2  UNL     1       8.183   1.869  18.665  1.00  0.00    -0.070 C 
HETATM    3  C3  UNL     1       8.480   3.130  17.941  1.00  0.00     0.183 C 
HETATM    4  C4  UNL     1       7.666   3.224  16.688  1.00  0.00     0.071 C 
HETATM    5  F1  UNL     1       9.815   3.028  17.505  1.00  0.00    -0.225 F 
ENDROOT
BRANCH   3   6
HETATM    6  C5  UNL     1       8.388   4.287  18.834  1.00  0.00     0.077 C 
HETATM    7  C6  UNL     1       7.461   4.600  19.682  1.00  0.00     0.109 C 
HETATM    8  N1  UNL     1       6.324   3.777  19.858  1.00  0.00    -0.309 N 
HETATM    9  N4  UNL     1       7.692   5.832  20.403  1.00  0.00    -0.328 N 
HETATM   10  C7  UNL     1       5.227   3.920  20.803  1.00  0.00     0.255 C 
ATOM     11  H1  UNL     1       6.265   2.971  19.236  1.00  0.00     0.170 HD
HETATM   12  O1  UNL     1       4.605   2.879  21.054  1.00  0.00    -0.268 OA
HETATM   13  C8  UNL     1       4.789   5.129  21.477  1.00  0.00     0.034 C 
HETATM   14  C12 UNL     1       5.434   6.272  21.569  1.00  0.00     0.067 C 
HETATM   15 BR1  UNL     1       4.520   7.636  22.543  1.00  0.00    -0.046 Br
HETATM   16  C13 UNL     1       6.750   6.708  21.044  1.00  0.00     0.127 C 
HETATM   17  N2  UNL     1       7.042   7.917  21.173  1.00  0.00    -0.318 N 
ATOM     18  H2  UNL     1       6.305   8.449  21.638  1.00  0.00     0.170 HD
ATOM     19  H4  UNL     1       8.669   6.121  20.468  1.00  0.00     0.169 HD
BRANCH  13  20
HETATM   20  C9  UNL     1       3.469   5.101  22.145  1.00  0.00     0.017 C 
HETATM   21  C10 UNL     1       3.386   4.069  23.231  1.00  0.00     0.015 C 
HETATM   22  C11 UNL     1       2.425   4.918  21.068  1.00  0.00     0.015 C 
ENDBRANCH  13  20
BRANCH  17  23
HETATM   23  C14 UNL     1       8.110   8.691  20.838  1.00  0.00     0.173 C 
HETATM   24  S1  UNL     1       8.225   9.375  19.362  1.00  0.00    -0.041 SA
BRANCH  23  25
HETATM   25  N3  UNL     1       9.183   8.940  21.776  1.00  0.00    -0.367 N 
ATOM     26  H3  UNL     1      10.026   9.447  21.504  1.00  0.00     0.161 HD
BRANCH  25  27
HETATM   27  C15 UNL     1       9.005   8.446  23.091  1.00  0.00     0.122 C 
BRANCH  27  28
HETATM   28  C16 UNL     1       9.671   9.098  24.234  1.00  0.00     0.020 C 
BRANCH  28  29
HETATM   29  C17 UNL     1       9.991   8.266  25.418  1.00  0.00     0.002 C 
BRANCH  29  30
HETATM   30  C18 UNL     1      11.244   8.547  26.148  1.00  0.00    -0.000 C 
BRANCH  30  31
HETATM   31  C19 UNL     1      11.797   7.389  26.950  1.00  0.00    -0.005 C 
HETATM   32  C20 UNL     1      13.303   7.302  26.778  1.00  0.00     0.005 C 
ENDBRANCH  30  31
ENDBRANCH  29  30
ENDBRANCH  28  29
ENDBRANCH  27  28
ENDBRANCH  25  27
ENDBRANCH  23  25
ENDBRANCH  17  23
ENDBRANCH   3   6
TORSDOF 9
ENDMDL
