MODEL 1
REMARK VINA RESULT: -8.511072186      0.000      0.000
REMARK  6 active torsions:
REMARK  status: ('A' for Active; 'I' for Inactive)
REMARK    1  A    between atoms: C1_2  and  C2_3 
REMARK       I    between atoms: C1_2  and  N2_16 
REMARK    2  A    between atoms: C2_3  and  N1_4 
REMARK       I    between atoms: N1_4  and  C3_6 
REMARK    3  A    between atoms: C3_6  and  C4_8 
REMARK    4  A    between atoms: N2_16  and  C12_18 
REMARK    5  A    between atoms: C12_18  and  C13_19 
REMARK    6  A    between atoms: C13_19  and  C14_20 
ROOT
HETATM    1  O1  UNL     1       7.945   6.472  22.321  1.00  0.00    -0.272 OA
HETATM    2  C1  UNL     1       7.352   7.413  21.731  1.00  0.00     0.235 C 
HETATM    3  N2  UNL     1       7.108   8.609  22.459  1.00  0.00    -0.359 N 
ATOM      4  H2  UNL     1       6.631   9.391  22.010  1.00  0.00     0.162 HD
ENDROOT
BRANCH   2   5
HETATM    5  C2  UNL     1       6.914   7.316  20.335  1.00  0.00     0.225 C 
BRANCH   5   6
HETATM    6  N1  UNL     1       7.453   6.143  19.697  1.00  0.00    -0.352 N 
HETATM    7  C3  UNL     1       6.590   5.065  19.389  1.00  0.00     0.227 C 
HETATM    8  O2  UNL     1       5.363   5.063  19.633  1.00  0.00    -0.273 OA
ATOM      9  H1  UNL     1       8.447   6.090  19.470  1.00  0.00     0.162 HD
BRANCH   7  10
HETATM   10  C4  UNL     1       7.206   3.856  18.729  1.00  0.00     0.045 A 
HETATM   11  C5  UNL     1       6.647   2.549  19.088  1.00  0.00     0.020 C 
HETATM   12  C6  UNL     1       7.543   1.619  19.828  1.00  0.00     0.001 C 
HETATM   13  C7  UNL     1       8.220   0.715  18.810  1.00  0.00     0.000 C 
HETATM   14  C8  UNL     1       9.015   1.527  17.815  1.00  0.00     0.000 C 
HETATM   15  C9  UNL     1       9.481   2.826  18.366  1.00  0.00     0.006 C 
HETATM   16  C10 UNL     1       8.550   3.972  18.223  1.00  0.00     0.004 A 
HETATM   17  C11 UNL     1       7.479   4.034  17.211  1.00  0.00     0.025 A 
ENDBRANCH   7  10
ENDBRANCH   5   6
ENDBRANCH   2   5
BRANCH   3  18
HETATM   18  C12 UNL     1       7.533   8.717  23.827  1.00  0.00     0.128 C 
BRANCH  18  19
HETATM   19  C13 UNL     1       8.910   9.289  23.952  1.00  0.00     0.076 C 
BRANCH  19  20
HETATM   20  C14 UNL     1       9.768   8.555  24.907  1.00  0.00     0.013 A 
HETATM   21  C15 UNL     1      11.119   8.679  25.105  1.00  0.00     0.047 A 
HETATM   22  C16 UNL     1      11.489   7.785  26.108  1.00  0.00     0.046 A 
HETATM   23 BR1  UNL     1      13.228   7.503  26.817  1.00  0.00    -0.048 Br
HETATM   24  C17 UNL     1      10.341   7.141  26.490  1.00  0.00     0.097 A 
HETATM   25 BR2  UNL     1      10.202   5.785  27.843  1.00  0.00    -0.030 Br
HETATM   26  N3  UNL     1       9.317   7.607  25.767  1.00  0.00    -0.353 N 
ATOM     27  H3  UNL     1       8.348   7.298  25.849  1.00  0.00     0.166 HD
ENDBRANCH  19  20
ENDBRANCH  18  19
ENDBRANCH   3  18
TORSDOF 6
ENDMDL
MODEL 2
REMARK VINA RESULT: -8.458267264      2.046      2.771
REMARK  6 active torsions:
REMARK  status: ('A' for Active; 'I' for Inactive)
REMARK    1  A    between atoms: C1_2  and  C2_3 
REMARK       I    between atoms: C1_2  and  N2_16 
REMARK    2  A    between atoms: C2_3  and  N1_4 
REMARK       I    between atoms: N1_4  and  C3_6 
REMARK    3  A    between atoms: C3_6  and  C4_8 
REMARK    4  A    between atoms: N2_16  and  C12_18 
REMARK    5  A    between atoms: C12_18  and  C13_19 
REMARK    6  A    between atoms: C13_19  and  C14_20 
ROOT
HETATM    1  O1  UNL     1       3.171   6.375  22.511  1.00  0.00    -0.272 OA
HETATM    2  C1  UNL     1       4.238   5.896  22.045  1.00  0.00     0.235 C 
HETATM    3  N2  UNL     1       5.407   5.959  22.850  1.00  0.00    -0.359 N 
ATOM      4  H2  UNL     1       6.287   5.579  22.503  1.00  0.00     0.162 HD
ENDROOT
BRANCH   2   5
HETATM    5  C2  UNL     1       4.311   5.281  20.716  1.00  0.00     0.225 C 
BRANCH   5   6
HETATM    6  N1  UNL     1       5.528   4.530  20.551  1.00  0.00    -0.352 N 
HETATM    7  C3  UNL     1       5.557   3.452  19.635  1.00  0.00     0.227 C 
HETATM    8  O2  UNL     1       4.578   3.102  18.939  1.00  0.00    -0.273 OA
ATOM      9  H1  UNL     1       6.360   4.772  21.089  1.00  0.00     0.162 HD
BRANCH   7  10
HETATM   10  C4  UNL     1       6.854   2.692  19.507  1.00  0.00     0.045 A 
HETATM   11  C5  UNL     1       8.062   3.484  19.251  1.00  0.00     0.020 C 
HETATM   12  C6  UNL     1       8.727   3.281  17.935  1.00  0.00     0.001 C 
HETATM   13  C7  UNL     1       9.815   2.234  18.119  1.00  0.00     0.000 C 
HETATM   14  C8  UNL     1       9.230   0.934  18.616  1.00  0.00     0.000 C 
HETATM   15  C9  UNL     1       7.811   0.745  18.218  1.00  0.00     0.006 C 
HETATM   16  C10 UNL     1       6.790   1.300  19.140  1.00  0.00     0.004 A 
HETATM   17  C11 UNL     1       7.042   1.575  20.567  1.00  0.00     0.025 A 
ENDBRANCH   7  10
ENDBRANCH   5   6
ENDBRANCH   2   5
BRANCH   3  18
HETATM   18  C12 UNL     1       5.349   6.558  24.155  1.00  0.00     0.128 C 
BRANCH  18  19
HETATM   19  C13 UNL     1       5.942   7.932  24.177  1.00  0.00     0.076 C 
BRANCH  19  20
HETATM   20  C14 UNL     1       7.354   7.956  24.619  1.00  0.00     0.013 A 
HETATM   21  C15 UNL     1       8.403   8.648  24.073  1.00  0.00     0.047 A 
HETATM   22  C16 UNL     1       9.541   8.365  24.826  1.00  0.00     0.046 A 
HETATM   23 BR1  UNL     1      11.299   9.031  24.554  1.00  0.00    -0.048 Br
HETATM   24  C17 UNL     1       9.143   7.501  25.813  1.00  0.00     0.097 A 
HETATM   25 BR2  UNL     1      10.266   6.745  27.175  1.00  0.00    -0.030 Br
HETATM   26  N3  UNL     1       7.834   7.262  25.683  1.00  0.00    -0.353 N 
ATOM     27  H3  UNL     1       7.282   6.654  26.287  1.00  0.00     0.166 HD
ENDBRANCH  19  20
ENDBRANCH  18  19
ENDBRANCH   3  18
TORSDOF 6
ENDMDL
MODEL 3
REMARK VINA RESULT: -8.448587640      2.342      3.497
REMARK  6 active torsions:
REMARK  status: ('A' for Active; 'I' for Inactive)
REMARK    1  A    between atoms: C1_2  and  C2_3 
REMARK       I    between atoms: C1_2  and  N2_16 
REMARK    2  A    between atoms: C2_3  and  N1_4 
REMARK       I    between atoms: N1_4  and  C3_6 
REMARK    3  A    between atoms: C3_6  and  C4_8 
REMARK    4  A    between atoms: N2_16  and  C12_18 
REMARK    5  A    between atoms: C12_18  and  C13_19 
REMARK    6  A    between atoms: C13_19  and  C14_20 
ROOT
HETATM    1  O1  UNL     1       4.916   7.840  19.958  1.00  0.00    -0.272 OA
HETATM    2  C1  UNL     1       5.542   7.275  19.023  1.00  0.00     0.235 C 
HETATM    3  N2  UNL     1       6.769   7.851  18.595  1.00  0.00    -0.359 N 
ATOM      4  H2  UNL     1       7.301   7.418  17.841  1.00  0.00     0.162 HD
ENDROOT
BRANCH   2   5
HETATM    5  C2  UNL     1       5.051   6.057  18.370  1.00  0.00     0.225 C 
BRANCH   5   6
HETATM    6  N1  UNL     1       6.046   5.017  18.387  1.00  0.00    -0.352 N 
HETATM    7  C3  UNL     1       5.996   4.028  19.397  1.00  0.00     0.227 C 
HETATM    8  O2  UNL     1       5.124   3.990  20.293  1.00  0.00    -0.273 OA
ATOM      9  H1  UNL     1       6.780   4.993  17.678  1.00  0.00     0.162 HD
BRANCH   7  10
HETATM   10  C4  UNL     1       7.067   2.964  19.375  1.00  0.00     0.045 A 
HETATM   11  C5  UNL     1       8.439   3.413  19.117  1.00  0.00     0.020 C 
HETATM   12  C6  UNL     1       9.065   2.954  17.847  1.00  0.00     0.001 C 
HETATM   13  C7  UNL     1       9.853   1.689  18.146  1.00  0.00     0.000 C 
HETATM   14  C8  UNL     1       8.952   0.614  18.705  1.00  0.00     0.000 C 
HETATM   15  C9  UNL     1       7.541   0.751  18.261  1.00  0.00     0.006 C 
HETATM   16  C10 UNL     1       6.668   1.608  19.100  1.00  0.00     0.004 A 
HETATM   17  C11 UNL     1       6.945   1.919  20.515  1.00  0.00     0.025 A 
ENDBRANCH   7  10
ENDBRANCH   5   6
ENDBRANCH   2   5
BRANCH   3  18
HETATM   18  C12 UNL     1       7.260   9.044  19.227  1.00  0.00     0.128 C 
BRANCH  18  19
HETATM   19  C13 UNL     1       8.647   8.875  19.764  1.00  0.00     0.076 C 
BRANCH  19  20
HETATM   20  C14 UNL     1       8.689   8.640  21.224  1.00  0.00     0.013 A 
HETATM   21  C15 UNL     1       7.779   7.975  22.004  1.00  0.00     0.047 A 
HETATM   22  C16 UNL     1       8.239   8.006  23.319  1.00  0.00     0.046 A 
HETATM   23 BR1  UNL     1       7.406   7.251  24.850  1.00  0.00    -0.048 Br
HETATM   24  C17 UNL     1       9.423   8.694  23.295  1.00  0.00     0.097 A 
HETATM   25 BR2  UNL     1      10.544   9.071  24.809  1.00  0.00    -0.030 Br
HETATM   26  N3  UNL     1       9.686   9.070  22.039  1.00  0.00    -0.353 N 
ATOM     27  H3  UNL     1      10.506   9.597  21.739  1.00  0.00     0.166 HD
ENDBRANCH  19  20
ENDBRANCH  18  19
ENDBRANCH   3  18
TORSDOF 6
ENDMDL
MODEL 4
REMARK VINA RESULT: -8.418997067      0.551      1.304
REMARK  6 active torsions:
REMARK  status: ('A' for Active; 'I' for Inactive)
REMARK    1  A    between atoms: C1_2  and  C2_3 
REMARK       I    between atoms: C1_2  and  N2_16 
REMARK    2  A    between atoms: C2_3  and  N1_4 
REMARK       I    between atoms: N1_4  and  C3_6 
REMARK    3  A    between atoms: C3_6  and  C4_8 
REMARK    4  A    between atoms: N2_16  and  C12_18 
REMARK    5  A    between atoms: C12_18  and  C13_19 
REMARK    6  A    between atoms: C13_19  and  C14_20 
ROOT
HETATM    1  O1  UNL     1       7.903   6.463  22.291  1.00  0.00    -0.272 OA
HETATM    2  C1  UNL     1       7.541   7.471  21.629  1.00  0.00     0.235 C 
HETATM    3  N2  UNL     1       7.383   8.703  22.320  1.00  0.00    -0.359 N 
ATOM      4  H2  UNL     1       7.092   9.539  21.814  1.00  0.00     0.162 HD
ENDROOT
BRANCH   2   5
HETATM    5  C2  UNL     1       7.282   7.415  20.187  1.00  0.00     0.225 C 
BRANCH   5   6
HETATM    6  N1  UNL     1       7.724   6.167  19.624  1.00  0.00    -0.352 N 
HETATM    7  C3  UNL     1       6.761   5.208  19.227  1.00  0.00     0.227 C 
HETATM    8  O2  UNL     1       5.526   5.377  19.328  1.00  0.00    -0.273 OA
ATOM      9  H1  UNL     1       8.719   5.974  19.512  1.00  0.00     0.162 HD
BRANCH   7  10
HETATM   10  C4  UNL     1       7.276   3.912  18.650  1.00  0.00     0.045 A 
HETATM   11  C5  UNL     1       6.629   2.680  19.111  1.00  0.00     0.020 C 
HETATM   12  C6  UNL     1       7.468   1.742  19.907  1.00  0.00     0.001 C 
HETATM   13  C7  UNL     1       8.060   0.719  18.951  1.00  0.00     0.000 C 
HETATM   14  C8  UNL     1       8.894   1.396  17.889  1.00  0.00     0.000 C 
HETATM   15  C9  UNL     1       9.463   2.693  18.337  1.00  0.00     0.006 C 
HETATM   16  C10 UNL     1       8.616   3.892  18.121  1.00  0.00     0.004 A 
HETATM   17  C11 UNL     1       7.535   3.959  17.120  1.00  0.00     0.025 A 
ENDBRANCH   7  10
ENDBRANCH   5   6
ENDBRANCH   2   5
BRANCH   3  18
HETATM   18  C12 UNL     1       7.634   8.771  23.733  1.00  0.00     0.128 C 
BRANCH  18  19
HETATM   19  C13 UNL     1       8.996   9.307  24.044  1.00  0.00     0.076 C 
BRANCH  19  20
HETATM   20  C14 UNL     1       9.741   8.488  25.025  1.00  0.00     0.013 A 
HETATM   21  C15 UNL     1       9.257   7.519  25.866  1.00  0.00     0.047 A 
HETATM   22  C16 UNL     1      10.328   7.020  26.605  1.00  0.00     0.046 A 
HETATM   23 BR1  UNL     1      10.279   5.660  27.930  1.00  0.00    -0.048 Br
HETATM   24  C17 UNL     1      11.436   7.708  26.188  1.00  0.00     0.097 A 
HETATM   25 BR2  UNL     1      13.227   7.471  26.840  1.00  0.00    -0.030 Br
HETATM   26  N3  UNL     1      11.078   8.584  25.243  1.00  0.00    -0.353 N 
ATOM     27  H3  UNL     1      11.709   9.224  24.761  1.00  0.00     0.166 HD
ENDBRANCH  19  20
ENDBRANCH  18  19
ENDBRANCH   3  18
TORSDOF 6
ENDMDL
MODEL 5
REMARK VINA RESULT: -8.392319724      1.660      2.417
REMARK  6 active torsions:
REMARK  status: ('A' for Active; 'I' for Inactive)
REMARK    1  A    between atoms: C1_2  and  C2_3 
REMARK       I    between atoms: C1_2  and  N2_16 
REMARK    2  A    between atoms: C2_3  and  N1_4 
REMARK       I    between atoms: N1_4  and  C3_6 
REMARK    3  A    between atoms: C3_6  and  C4_8 
REMARK    4  A    between atoms: N2_16  and  C12_18 
REMARK    5  A    between atoms: C12_18  and  C13_19 
REMARK    6  A    between atoms: C13_19  and  C14_20 
ROOT
HETATM    1  O1  UNL     1       6.490   9.273  19.904  1.00  0.00    -0.272 OA
HETATM    2  C1  UNL     1       6.308   8.027  19.889  1.00  0.00     0.235 C 
HETATM    3  N2  UNL     1       5.955   7.388  21.109  1.00  0.00    -0.359 N 
ATOM      4  H2  UNL     1       5.799   6.381  21.131  1.00  0.00     0.162 HD
ENDROOT
BRANCH   2   5
HETATM    5  C2  UNL     1       6.444   7.225  18.669  1.00  0.00     0.225 C 
BRANCH   5   6
HETATM    6  N1  UNL     1       7.196   6.022  18.914  1.00  0.00    -0.352 N 
HETATM    7  C3  UNL     1       6.583   4.766  18.693  1.00  0.00     0.227 C 
HETATM    8  O2  UNL     1       5.409   4.626  18.284  1.00  0.00    -0.273 OA
ATOM      9  H1  UNL     1       8.160   6.074  19.244  1.00  0.00     0.162 HD
BRANCH   7  10
HETATM   10  C4  UNL     1       7.411   3.536  18.972  1.00  0.00     0.045 A 
HETATM   11  C5  UNL     1       8.812   3.570  18.541  1.00  0.00     0.020 C 
HETATM   12  C6  UNL     1       9.202   2.622  17.461  1.00  0.00     0.001 C 
HETATM   13  C7  UNL     1       9.748   1.365  18.119  1.00  0.00     0.000 C 
HETATM   14  C8  UNL     1       8.710   0.736  19.019  1.00  0.00     0.000 C 
HETATM   15  C9  UNL     1       7.318   1.042  18.602  1.00  0.00     0.006 C 
HETATM   16  C10 UNL     1       6.723   2.283  19.154  1.00  0.00     0.004 A 
HETATM   17  C11 UNL     1       7.198   2.938  20.388  1.00  0.00     0.025 A 
ENDBRANCH   7  10
ENDBRANCH   5   6
ENDBRANCH   2   5
BRANCH   3  18
HETATM   18  C12 UNL     1       5.818   8.163  22.311  1.00  0.00     0.128 C 
BRANCH  18  19
HETATM   19  C13 UNL     1       6.015   7.339  23.545  1.00  0.00     0.076 C 
BRANCH  19  20
HETATM   20  C14 UNL     1       7.313   7.581  24.213  1.00  0.00     0.013 A 
HETATM   21  C15 UNL     1       8.290   8.480  23.872  1.00  0.00     0.047 A 
HETATM   22  C16 UNL     1       9.330   8.352  24.790  1.00  0.00     0.046 A 
HETATM   23 BR1  UNL     1      10.957   9.331  24.834  1.00  0.00    -0.048 Br
HETATM   24  C17 UNL     1       8.949   7.369  25.666  1.00  0.00     0.097 A 
HETATM   25 BR2  UNL     1       9.967   6.733  27.165  1.00  0.00    -0.030 Br
HETATM   26  N3  UNL     1       7.742   6.914  25.314  1.00  0.00    -0.353 N 
ATOM     27  H3  UNL     1       7.224   6.180  25.798  1.00  0.00     0.166 HD
ENDBRANCH  19  20
ENDBRANCH  18  19
ENDBRANCH   3  18
TORSDOF 6
ENDMDL
