MODEL 1
REMARK VINA RESULT: -8.749143618      0.000      0.000
REMARK  7 active torsions:
REMARK  status: ('A' for Active; 'I' for Inactive)
REMARK    1  A    between atoms: C2_2  and  N1_3 
REMARK    2  A    between atoms: C2_2  and  C20_30 
REMARK       I    between atoms: N1_3  and  C3_5 
REMARK       I    between atoms: C3_5  and  N3_9 
REMARK    3  A    between atoms: N3_9  and  C5_11 
REMARK    4  A    between atoms: C5_11  and  C6_12 
REMARK       I    between atoms: C6_12  and  N4_14 
REMARK    5  A    between atoms: N4_14  and  C7_16 
REMARK    6  A    between atoms: C7_16  and  C8_17 
REMARK    7  A    between atoms: C8_17  and  N5_18 
ROOT
HETATM    1  C5  UNL     1       4.035   3.235  22.173  1.00  0.00     0.128 C 
HETATM    2  C15 UNL     1       2.799   3.062  21.359  1.00  0.00     0.041 C 
HETATM    3  C16 UNL     1       2.120   1.733  21.517  1.00  0.00     0.003 C 
HETATM    4  C17 UNL     1       1.986   1.447  22.992  1.00  0.00     0.000 C 
HETATM    5  C18 UNL     1       3.360   1.212  23.547  1.00  0.00     0.003 C 
HETATM    6  C19 UNL     1       4.418   2.143  23.079  1.00  0.00     0.041 C 
ENDROOT
BRANCH   1   7
HETATM    7  N3  UNL     1       5.113   3.491  21.199  1.00  0.00    -0.208 N 
HETATM    8  C3  UNL     1       5.047   4.188  20.013  1.00  0.00     0.674 C 
HETATM    9  N1  UNL     1       5.487   3.559  18.818  1.00  0.00    -0.196 N 
HETATM   10  N2  UNL     1       4.609   5.383  19.928  1.00  0.00    -0.231 N 
ATOM     11  H1  UNL     1       4.830   2.990  18.284  1.00  0.00     0.184 HD
HETATM   12  C4  UNL     1       4.536   6.137  18.685  1.00  0.00     0.165 C 
ATOM     13  H2  UNL     1       4.292   5.839  20.784  1.00  0.00     0.177 HD
ATOM     14  H3  UNL     1       6.027   3.103  21.435  1.00  0.00     0.179 HD
BRANCH   9  15
HETATM   15  C2  UNL     1       6.820   3.702  18.348  1.00  0.00     0.021 C 
HETATM   16  C1  UNL     1       7.055   4.576  17.393  1.00  0.00     0.039 C 
BRANCH  15  17
HETATM   17  C20 UNL     1       7.918   2.907  18.926  1.00  0.00     0.036 C 
HETATM   18  C21 UNL     1       9.218   2.998  18.245  1.00  0.00     0.017 C 
HETATM   19  C22 UNL     1       9.505   1.921  17.246  1.00  0.00     0.080 C 
HETATM   20  C23 UNL     1       9.164   0.537  17.802  1.00  0.00     0.243 C 
HETATM   21  F1  UNL     1       9.534  -0.400  16.886  1.00  0.00    -0.206 F 
HETATM   22  F2  UNL     1       9.815   0.355  19.008  1.00  0.00    -0.206 F 
HETATM   23  C24 UNL     1       7.671   0.570  18.053  1.00  0.00     0.080 C 
HETATM   24  C25 UNL     1       7.432   1.514  19.205  1.00  0.00     0.017 C 
ENDBRANCH  15  17
ENDBRANCH   9  15
ENDBRANCH   1   7
BRANCH   1  25
HETATM   25  C6  UNL     1       3.839   4.500  22.974  1.00  0.00     0.246 C 
HETATM   26  O1  UNL     1       2.658   4.799  23.253  1.00  0.00    -0.271 OA
HETATM   27  N4  UNL     1       4.888   5.319  23.396  1.00  0.00    -0.357 N 
ATOM     28  H4  UNL     1       5.831   5.025  23.138  1.00  0.00     0.162 HD
BRANCH  27  29
HETATM   29  C7  UNL     1       4.777   6.537  24.160  1.00  0.00     0.150 C 
BRANCH  29  30
HETATM   30  C8  UNL     1       6.101   6.918  24.715  1.00  0.00     0.256 C 
BRANCH  30  31
HETATM   31  N5  UNL     1       6.919   7.677  23.796  1.00  0.00    -0.069 N 
HETATM   32  C9  UNL     1       6.141   8.817  23.357  1.00  0.00     0.272 C 
HETATM   33  C10 UNL     1       7.340   6.851  22.689  1.00  0.00     0.237 C 
HETATM   34  C11 UNL     1       8.205   7.554  21.714  1.00  0.00     0.028 C 
HETATM   35  C12 UNL     1       9.000   8.686  22.221  1.00  0.00     0.003 C 
HETATM   36  C13 UNL     1       8.928   8.991  23.666  1.00  0.00     0.028 C 
HETATM   37  C14 UNL     1       8.124   8.059  24.503  1.00  0.00     0.237 C 
ENDBRANCH  30  31
ENDBRANCH  29  30
ENDBRANCH  27  29
ENDBRANCH   1  25
TORSDOF 7
ENDMDL
MODEL 2
REMARK VINA RESULT: -8.691909817      2.251      2.837
REMARK  7 active torsions:
REMARK  status: ('A' for Active; 'I' for Inactive)
REMARK    1  A    between atoms: C2_2  and  N1_3 
REMARK    2  A    between atoms: C2_2  and  C20_30 
REMARK       I    between atoms: N1_3  and  C3_5 
REMARK       I    between atoms: C3_5  and  N3_9 
REMARK    3  A    between atoms: N3_9  and  C5_11 
REMARK    4  A    between atoms: C5_11  and  C6_12 
REMARK       I    between atoms: C6_12  and  N4_14 
REMARK    5  A    between atoms: N4_14  and  C7_16 
REMARK    6  A    between atoms: C7_16  and  C8_17 
REMARK    7  A    between atoms: C8_17  and  N5_18 
ROOT
HETATM    1  C5  UNL     1       3.881   2.594  22.137  1.00  0.00     0.128 C 
HETATM    2  C15 UNL     1       2.776   2.282  21.187  1.00  0.00     0.041 C 
HETATM    3  C16 UNL     1       2.291   0.863  21.226  1.00  0.00     0.003 C 
HETATM    4  C17 UNL     1       2.048   0.491  22.668  1.00  0.00     0.000 C 
HETATM    5  C18 UNL     1       3.375   0.432  23.364  1.00  0.00     0.003 C 
HETATM    6  C19 UNL     1       4.326   1.528  23.045  1.00  0.00     0.041 C 
ENDROOT
BRANCH   1   7
HETATM    7  N3  UNL     1       5.005   3.050  21.297  1.00  0.00    -0.208 N 
HETATM    8  C3  UNL     1       4.995   3.995  20.295  1.00  0.00     0.674 C 
HETATM    9  N1  UNL     1       5.493   3.644  19.011  1.00  0.00    -0.196 N 
HETATM   10  N2  UNL     1       4.562   5.184  20.460  1.00  0.00    -0.231 N 
ATOM     11  H1  UNL     1       4.862   3.216  18.334  1.00  0.00     0.184 HD
HETATM   12  C4  UNL     1       4.549   6.197  19.415  1.00  0.00     0.165 C 
ATOM     13  H2  UNL     1       4.204   5.440  21.379  1.00  0.00     0.177 HD
ATOM     14  H3  UNL     1       5.906   2.609  21.482  1.00  0.00     0.179 HD
BRANCH   9  15
HETATM   15  C2  UNL     1       6.846   3.874  18.648  1.00  0.00     0.021 C 
HETATM   16  C1  UNL     1       7.118   4.898  17.867  1.00  0.00     0.039 C 
BRANCH  15  17
HETATM   17  C20 UNL     1       7.924   3.003  19.147  1.00  0.00     0.036 C 
HETATM   18  C21 UNL     1       9.211   3.087  18.440  1.00  0.00     0.017 C 
HETATM   19  C22 UNL     1       9.432   2.066  17.367  1.00  0.00     0.080 C 
HETATM   20  C23 UNL     1       9.048   0.663  17.842  1.00  0.00     0.243 C 
HETATM   21  F1  UNL     1       9.359  -0.227  16.860  1.00  0.00    -0.206 F 
HETATM   22  F2  UNL     1       9.719   0.378  19.018  1.00  0.00    -0.206 F 
HETATM   23  C24 UNL     1       7.564   0.738  18.133  1.00  0.00     0.080 C 
HETATM   24  C25 UNL     1       7.389   1.613  19.349  1.00  0.00     0.017 C 
ENDBRANCH  15  17
ENDBRANCH   9  15
ENDBRANCH   1   7
BRANCH   1  25
HETATM   25  C6  UNL     1       3.415   3.777  22.950  1.00  0.00     0.246 C 
HETATM   26  O1  UNL     1       4.272   4.314  23.685  1.00  0.00    -0.271 OA
HETATM   27  N4  UNL     1       2.111   4.276  22.915  1.00  0.00    -0.357 N 
ATOM     28  H4  UNL     1       1.455   3.797  22.298  1.00  0.00     0.162 HD
BRANCH  27  29
HETATM   29  C7  UNL     1       1.596   5.397  23.662  1.00  0.00     0.150 C 
BRANCH  29  30
HETATM   30  C8  UNL     1       1.802   6.657  22.904  1.00  0.00     0.256 C 
BRANCH  30  31
HETATM   31  N5  UNL     1       2.585   7.642  23.616  1.00  0.00    -0.069 N 
HETATM   32  C9  UNL     1       3.843   7.791  22.915  1.00  0.00     0.272 C 
HETATM   33  C10 UNL     1       2.776   7.242  24.991  1.00  0.00     0.237 C 
HETATM   34  C11 UNL     1       3.551   8.216  25.794  1.00  0.00     0.028 C 
HETATM   35  C12 UNL     1       3.502   9.625  25.365  1.00  0.00     0.003 C 
HETATM   36  C13 UNL     1       2.637   9.970  24.216  1.00  0.00     0.028 C 
HETATM   37  C14 UNL     1       1.813   8.867  23.649  1.00  0.00     0.237 C 
ENDBRANCH  30  31
ENDBRANCH  29  30
ENDBRANCH  27  29
ENDBRANCH   1  25
TORSDOF 7
ENDMDL
MODEL 3
REMARK VINA RESULT: -8.600413365      2.648      5.252
REMARK  7 active torsions:
REMARK  status: ('A' for Active; 'I' for Inactive)
REMARK    1  A    between atoms: C2_2  and  N1_3 
REMARK    2  A    between atoms: C2_2  and  C20_30 
REMARK       I    between atoms: N1_3  and  C3_5 
REMARK       I    between atoms: C3_5  and  N3_9 
REMARK    3  A    between atoms: N3_9  and  C5_11 
REMARK    4  A    between atoms: C5_11  and  C6_12 
REMARK       I    between atoms: C6_12  and  N4_14 
REMARK    5  A    between atoms: N4_14  and  C7_16 
REMARK    6  A    between atoms: C7_16  and  C8_17 
REMARK    7  A    between atoms: C8_17  and  N5_18 
ROOT
HETATM    1  C5  UNL     1       7.222   7.764  22.381  1.00  0.00     0.128 C 
HETATM    2  C15 UNL     1       6.934   6.903  23.562  1.00  0.00     0.041 C 
HETATM    3  C16 UNL     1       7.916   7.027  24.689  1.00  0.00     0.003 C 
HETATM    4  C17 UNL     1       8.119   8.494  24.975  1.00  0.00     0.000 C 
HETATM    5  C18 UNL     1       8.840   9.101  23.808  1.00  0.00     0.003 C 
HETATM    6  C19 UNL     1       8.370   8.678  22.463  1.00  0.00     0.041 C 
ENDROOT
BRANCH   1   7
HETATM    7  N3  UNL     1       7.391   6.835  21.248  1.00  0.00    -0.208 N 
HETATM    8  C3  UNL     1       6.709   5.666  20.992  1.00  0.00     0.674 C 
HETATM    9  N1  UNL     1       7.446   4.470  20.780  1.00  0.00    -0.196 N 
HETATM   10  N2  UNL     1       5.437   5.598  20.931  1.00  0.00    -0.231 N 
ATOM     11  H1  UNL     1       7.711   3.900  21.583  1.00  0.00     0.184 HD
HETATM   12  C4  UNL     1       4.700   4.373  20.657  1.00  0.00     0.165 C 
ATOM     13  H2  UNL     1       4.904   6.454  21.083  1.00  0.00     0.177 HD
ATOM     14  H3  UNL     1       8.105   7.090  20.566  1.00  0.00     0.179 HD
BRANCH   9  15
HETATM   15  C2  UNL     1       7.824   4.048  19.477  1.00  0.00     0.021 C 
HETATM   16  C1  UNL     1       7.562   4.845  18.462  1.00  0.00     0.039 C 
BRANCH  15  17
HETATM   17  C20 UNL     1       8.510   2.762  19.265  1.00  0.00     0.036 C 
HETATM   18  C21 UNL     1       9.209   2.598  17.981  1.00  0.00     0.017 C 
HETATM   19  C22 UNL     1       8.435   1.902  16.905  1.00  0.00     0.080 C 
HETATM   20  C23 UNL     1       7.752   0.639  17.433  1.00  0.00     0.243 C 
HETATM   21  F1  UNL     1       7.148   0.006  16.391  1.00  0.00    -0.206 F 
HETATM   22  F2  UNL     1       8.695  -0.170  18.042  1.00  0.00    -0.206 F 
HETATM   23  C24 UNL     1       6.777   1.127  18.483  1.00  0.00     0.080 C 
HETATM   24  C25 UNL     1       7.590   1.637  19.647  1.00  0.00     0.017 C 
ENDBRANCH  15  17
ENDBRANCH   9  15
ENDBRANCH   1   7
BRANCH   1  25
HETATM   25  C6  UNL     1       5.967   8.564  22.126  1.00  0.00     0.246 C 
HETATM   26  O1  UNL     1       5.792   8.959  20.953  1.00  0.00    -0.271 OA
HETATM   27  N4  UNL     1       5.030   8.870  23.116  1.00  0.00    -0.357 N 
ATOM     28  H4  UNL     1       5.226   8.522  24.055  1.00  0.00     0.162 HD
BRANCH  27  29
HETATM   29  C7  UNL     1       3.814   9.626  22.947  1.00  0.00     0.150 C 
BRANCH  29  30
HETATM   30  C8  UNL     1       3.097   9.741  24.243  1.00  0.00     0.256 C 
BRANCH  30  31
HETATM   31  N5  UNL     1       1.982   8.831  24.372  1.00  0.00    -0.069 N 
HETATM   32  C9  UNL     1       1.442   8.610  23.047  1.00  0.00     0.272 C 
HETATM   33  C10 UNL     1       0.992   9.365  25.278  1.00  0.00     0.237 C 
HETATM   34  C11 UNL     1      -0.174   8.475  25.481  1.00  0.00     0.028 C 
HETATM   35  C12 UNL     1       0.047   7.030  25.292  1.00  0.00     0.003 C 
HETATM   36  C13 UNL     1       1.420   6.574  24.983  1.00  0.00     0.028 C 
HETATM   37  C14 UNL     1       2.483   7.616  24.983  1.00  0.00     0.237 C 
ENDBRANCH  30  31
ENDBRANCH  29  30
ENDBRANCH  27  29
ENDBRANCH   1  25
TORSDOF 7
ENDMDL
MODEL 4
REMARK VINA RESULT: -8.378294344      2.945      4.609
REMARK  7 active torsions:
REMARK  status: ('A' for Active; 'I' for Inactive)
REMARK    1  A    between atoms: C2_2  and  N1_3 
REMARK    2  A    between atoms: C2_2  and  C20_30 
REMARK       I    between atoms: N1_3  and  C3_5 
REMARK       I    between atoms: C3_5  and  N3_9 
REMARK    3  A    between atoms: N3_9  and  C5_11 
REMARK    4  A    between atoms: C5_11  and  C6_12 
REMARK       I    between atoms: C6_12  and  N4_14 
REMARK    5  A    between atoms: N4_14  and  C7_16 
REMARK    6  A    between atoms: C7_16  and  C8_17 
REMARK    7  A    between atoms: C8_17  and  N5_18 
ROOT
HETATM    1  C5  UNL     1       5.238   7.994  18.401  1.00  0.00     0.128 C 
HETATM    2  C15 UNL     1       6.261   8.950  17.890  1.00  0.00     0.041 C 
HETATM    3  C16 UNL     1       5.775   9.885  16.823  1.00  0.00     0.003 C 
HETATM    4  C17 UNL     1       4.476  10.495  17.290  1.00  0.00     0.000 C 
HETATM    5  C18 UNL     1       3.437   9.414  17.316  1.00  0.00     0.003 C 
HETATM    6  C19 UNL     1       3.871   8.107  17.875  1.00  0.00     0.041 C 
ENDROOT
BRANCH   1   7
HETATM    7  N3  UNL     1       5.781   6.651  18.125  1.00  0.00    -0.208 N 
HETATM    8  C3  UNL     1       5.717   5.927  16.956  1.00  0.00     0.674 C 
HETATM    9  N1  UNL     1       5.191   4.607  16.990  1.00  0.00    -0.196 N 
HETATM   10  N2  UNL     1       6.112   6.379  15.830  1.00  0.00    -0.231 N 
ATOM     11  H1  UNL     1       4.185   4.470  16.890  1.00  0.00     0.184 HD
HETATM   12  C4  UNL     1       6.056   5.626  14.586  1.00  0.00     0.165 C 
ATOM     13  H2  UNL     1       6.489   7.326  15.801  1.00  0.00     0.177 HD
ATOM     14  H3  UNL     1       6.268   6.201  18.900  1.00  0.00     0.179 HD
BRANCH   9  15
HETATM   15  C2  UNL     1       6.030   3.474  17.160  1.00  0.00     0.021 C 
HETATM   16  C1  UNL     1       5.470   2.284  17.212  1.00  0.00     0.039 C 
BRANCH  15  17
HETATM   17  C20 UNL     1       7.493   3.621  17.255  1.00  0.00     0.036 C 
HETATM   18  C21 UNL     1       8.294   2.769  16.363  1.00  0.00     0.017 C 
HETATM   19  C22 UNL     1       8.789   1.488  16.960  1.00  0.00     0.080 C 
HETATM   20  C23 UNL     1       9.391   1.713  18.349  1.00  0.00     0.243 C 
HETATM   21  F1  UNL     1       9.904   0.534  18.794  1.00  0.00    -0.206 F 
HETATM   22  F2  UNL     1      10.362   2.695  18.273  1.00  0.00    -0.206 F 
HETATM   23  C24 UNL     1       8.245   2.224  19.197  1.00  0.00     0.080 C 
HETATM   24  C25 UNL     1       7.903   3.607  18.701  1.00  0.00     0.017 C 
ENDBRANCH  15  17
ENDBRANCH   9  15
ENDBRANCH   1   7
BRANCH   1  25
HETATM   25  C6  UNL     1       5.209   8.171  19.900  1.00  0.00     0.246 C 
HETATM   26  O1  UNL     1       5.560   9.290  20.332  1.00  0.00    -0.271 OA
HETATM   27  N4  UNL     1       4.821   7.167  20.790  1.00  0.00    -0.357 N 
ATOM     28  H4  UNL     1       4.545   6.274  20.381  1.00  0.00     0.162 HD
BRANCH  27  29
HETATM   29  C7  UNL     1       4.770   7.262  22.229  1.00  0.00     0.150 C 
BRANCH  29  30
HETATM   30  C8  UNL     1       5.971   6.626  22.828  1.00  0.00     0.256 C 
BRANCH  30  31
HETATM   31  N5  UNL     1       6.925   7.573  23.359  1.00  0.00    -0.069 N 
HETATM   32  C9  UNL     1       6.219   8.813  23.607  1.00  0.00     0.272 C 
HETATM   33  C10 UNL     1       8.027   7.752  22.443  1.00  0.00     0.237 C 
HETATM   34  C11 UNL     1       9.062   8.693  22.930  1.00  0.00     0.028 C 
HETATM   35  C12 UNL     1       9.197   8.841  24.390  1.00  0.00     0.003 C 
HETATM   36  C13 UNL     1       8.344   7.996  25.254  1.00  0.00     0.028 C 
HETATM   37  C14 UNL     1       7.484   6.995  24.565  1.00  0.00     0.237 C 
ENDBRANCH  30  31
ENDBRANCH  29  30
ENDBRANCH  27  29
ENDBRANCH   1  25
TORSDOF 7
ENDMDL
MODEL 5
REMARK VINA RESULT: -8.372472462      1.569      2.455
REMARK  7 active torsions:
REMARK  status: ('A' for Active; 'I' for Inactive)
REMARK    1  A    between atoms: C2_2  and  N1_3 
REMARK    2  A    between atoms: C2_2  and  C20_30 
REMARK       I    between atoms: N1_3  and  C3_5 
REMARK       I    between atoms: C3_5  and  N3_9 
REMARK    3  A    between atoms: N3_9  and  C5_11 
REMARK    4  A    between atoms: C5_11  and  C6_12 
REMARK       I    between atoms: C6_12  and  N4_14 
REMARK    5  A    between atoms: N4_14  and  C7_16 
REMARK    6  A    between atoms: C7_16  and  C8_17 
REMARK    7  A    between atoms: C8_17  and  N5_18 
ROOT
HETATM    1  C5  UNL     1       3.761   5.258  22.389  1.00  0.00     0.128 C 
HETATM    2  C15 UNL     1       2.546   6.017  21.979  1.00  0.00     0.041 C 
HETATM    3  C16 UNL     1       1.244   5.330  22.269  1.00  0.00     0.003 C 
HETATM    4  C17 UNL     1       1.274   4.853  23.700  1.00  0.00     0.000 C 
HETATM    5  C18 UNL     1       2.288   3.752  23.802  1.00  0.00     0.003 C 
HETATM    6  C19 UNL     1       3.568   3.977  23.082  1.00  0.00     0.041 C 
ENDROOT
BRANCH   1   7
HETATM    7  N3  UNL     1       4.534   5.055  21.149  1.00  0.00    -0.208 N 
HETATM    8  C3  UNL     1       4.564   3.947  20.332  1.00  0.00     0.674 C 
HETATM    9  N1  UNL     1       5.817   3.355  20.019  1.00  0.00    -0.196 N 
HETATM   10  N2  UNL     1       3.517   3.420  19.831  1.00  0.00    -0.231 N 
ATOM     11  H1  UNL     1       6.204   2.650  20.646  1.00  0.00     0.184 HD
HETATM   12  C4  UNL     1       3.529   2.253  18.961  1.00  0.00     0.165 C 
ATOM     13  H2  UNL     1       2.615   3.841  20.053  1.00  0.00     0.177 HD
ATOM     14  H3  UNL     1       5.122   5.837  20.860  1.00  0.00     0.179 HD
BRANCH   9  15
HETATM   15  C2  UNL     1       6.545   3.720  18.855  1.00  0.00     0.021 C 
HETATM   16  C1  UNL     1       6.793   4.996  18.649  1.00  0.00     0.039 C 
BRANCH  15  17
HETATM   17  C20 UNL     1       7.028   2.698  17.911  1.00  0.00     0.036 C 
HETATM   18  C21 UNL     1       6.986   1.304  18.379  1.00  0.00     0.017 C 
HETATM   19  C22 UNL     1       8.257   0.779  18.971  1.00  0.00     0.080 C 
HETATM   20  C23 UNL     1       9.467   1.131  18.103  1.00  0.00     0.243 C 
HETATM   21  F1  UNL     1      10.571   0.547  18.644  1.00  0.00    -0.206 F 
HETATM   22  F2  UNL     1       9.243   0.696  16.809  1.00  0.00    -0.206 F 
HETATM   23  C24 UNL     1       9.528   2.644  18.107  1.00  0.00     0.080 C 
HETATM   24  C25 UNL     1       8.338   3.142  17.324  1.00  0.00     0.017 C 
ENDBRANCH  15  17
ENDBRANCH   9  15
ENDBRANCH   1   7
BRANCH   1  25
HETATM   25  C6  UNL     1       4.559   6.186  23.273  1.00  0.00     0.246 C 
HETATM   26  O1  UNL     1       5.188   5.651  24.210  1.00  0.00    -0.271 OA
HETATM   27  N4  UNL     1       4.617   7.570  23.089  1.00  0.00    -0.357 N 
ATOM     28  H4  UNL     1       4.083   7.951  22.308  1.00  0.00     0.162 HD
BRANCH  27  29
HETATM   29  C7  UNL     1       5.355   8.515  23.891  1.00  0.00     0.150 C 
BRANCH  29  30
HETATM   30  C8  UNL     1       6.604   8.915  23.194  1.00  0.00     0.256 C 
BRANCH  30  31
HETATM   31  N5  UNL     1       7.802   8.375  23.796  1.00  0.00    -0.069 N 
HETATM   32  C9  UNL     1       8.173   7.192  23.047  1.00  0.00     0.272 C 
HETATM   33  C10 UNL     1       7.583   8.084  25.193  1.00  0.00     0.237 C 
HETATM   34  C11 UNL     1       8.777   7.549  25.886  1.00  0.00     0.028 C 
HETATM   35  C12 UNL     1      10.093   7.927  25.340  1.00  0.00     0.003 C 
HETATM   36  C13 UNL     1      10.124   8.859  24.192  1.00  0.00     0.028 C 
HETATM   37  C14 UNL     1       8.815   9.410  23.747  1.00  0.00     0.237 C 
ENDBRANCH  30  31
ENDBRANCH  29  30
ENDBRANCH  27  29
ENDBRANCH   1  25
TORSDOF 7
ENDMDL
