MODEL 1
REMARK VINA RESULT: -9.074391570      0.000      0.000
REMARK  6 active torsions:
REMARK  status: ('A' for Active; 'I' for Inactive)
REMARK    1  A    between atoms: C2_2  and  C3_3 
REMARK    2  A    between atoms: C10_11  and  N2_12 
REMARK    3  A    between atoms: N3_15  and  C13_16 
REMARK    4  A    between atoms: C13_16  and  C14_17 
REMARK    5  A    between atoms: C14_17  and  N4_18 
REMARK       I    between atoms: N4_18  and  C15_20 
REMARK       I    between atoms: C15_20  and  N6_24 
REMARK    6  A    between atoms: N6_24  and  C16_26 
ROOT
HETATM    1  N2  UNL     1       6.789   9.037  20.594  1.00  0.00    -0.328 N 
HETATM    2  C11 UNL     1       7.572   9.563  19.495  1.00  0.00     0.148 C 
HETATM    3  C12 UNL     1       6.542   9.756  18.382  1.00  0.00     0.147 C 
HETATM    4  N3  UNL     1       5.707   8.570  18.579  1.00  0.00    -0.331 N 
HETATM    5  C22 UNL     1       5.695   8.366  19.988  1.00  0.00     0.321 C 
HETATM    6  O1  UNL     1       4.816   7.682  20.557  1.00  0.00    -0.247 OA
ENDROOT
BRANCH   4   7
HETATM    7  C13 UNL     1       5.099   7.863  17.518  1.00  0.00     0.147 C 
BRANCH   7   8
HETATM    8  C14 UNL     1       5.263   6.403  17.479  1.00  0.00     0.158 C 
BRANCH   8   9
HETATM    9  N4  UNL     1       6.477   5.983  16.805  1.00  0.00    -0.225 N 
HETATM   10  C15 UNL     1       6.666   4.697  16.269  1.00  0.00     0.667 C 
HETATM   11  N5  UNL     1       6.993   4.554  15.049  1.00  0.00    -0.235 N 
HETATM   12  N6  UNL     1       6.491   3.570  17.089  1.00  0.00    -0.222 N 
ATOM     13  H52 UNL     1       7.120   5.372  14.453  1.00  0.00     0.174 HD
ATOM     14  H51 UNL     1       7.129   3.621  14.659  1.00  0.00     0.174 HD
ATOM     15  H6  UNL     1       5.780   2.892  16.813  1.00  0.00     0.178 HD
ATOM     16  H4  UNL     1       7.237   6.659  16.716  1.00  0.00     0.177 HD
BRANCH  12  17
HETATM   17  C16 UNL     1       7.239   3.301  18.286  1.00  0.00     0.099 C 
HETATM   18  C17 UNL     1       8.688   3.685  18.174  1.00  0.00     0.026 C 
HETATM   19  C18 UNL     1       9.533   2.564  17.632  1.00  0.00     0.002 C 
HETATM   20  C19 UNL     1       9.448   1.302  18.424  1.00  0.00     0.000 C 
HETATM   21  C20 UNL     1       8.356   1.431  19.453  1.00  0.00     0.002 C 
HETATM   22  C21 UNL     1       7.089   1.859  18.709  1.00  0.00     0.026 C 
ENDBRANCH  12  17
ENDBRANCH   8   9
ENDBRANCH   7   8
ENDBRANCH   4   7
BRANCH   1  23
HETATM   23  C10 UNL     1       7.091   9.185  21.996  1.00  0.00     0.092 C 
HETATM   24  C9  UNL     1       7.122   7.892  22.741  1.00  0.00     0.053 C 
HETATM   25  C8  UNL     1       8.529   7.528  23.165  1.00  0.00     0.239 C 
HETATM   26  N1  UNL     1       8.998   8.458  24.158  1.00  0.00    -0.067 N 
HETATM   27  C5  UNL     1       8.426   8.172  25.453  1.00  0.00     0.238 C 
HETATM   28  C6  UNL     1      10.453   8.395  24.308  1.00  0.00     0.238 C 
HETATM   29  C24 UNL     1       8.697   9.803  23.713  1.00  0.00     0.239 C 
HETATM   30  C4  UNL     1       9.315   7.231  26.266  1.00  0.00     0.032 C 
HETATM   31  C3  UNL     1      10.457   8.076  26.778  1.00  0.00    -0.012 C 
HETATM   32  C7  UNL     1      10.902   8.955  25.643  1.00  0.00     0.032 C 
HETATM   33  C23 UNL     1       8.432   9.876  22.225  1.00  0.00     0.053 C 
BRANCH  31  34
HETATM   34  C2  UNL     1      11.589   7.254  27.346  1.00  0.00     0.000 C 
HETATM   35  C1  UNL     1      12.929   7.633  26.785  1.00  0.00     0.005 C 
ENDBRANCH  31  34
ENDBRANCH   1  23
TORSDOF 6
ENDMDL
MODEL 2
REMARK VINA RESULT: -8.872116205      0.935      1.466
REMARK  6 active torsions:
REMARK  status: ('A' for Active; 'I' for Inactive)
REMARK    1  A    between atoms: C2_2  and  C3_3 
REMARK    2  A    between atoms: C10_11  and  N2_12 
REMARK    3  A    between atoms: N3_15  and  C13_16 
REMARK    4  A    between atoms: C13_16  and  C14_17 
REMARK    5  A    between atoms: C14_17  and  N4_18 
REMARK       I    between atoms: N4_18  and  C15_20 
REMARK       I    between atoms: C15_20  and  N6_24 
REMARK    6  A    between atoms: N6_24  and  C16_26 
ROOT
HETATM    1  N2  UNL     1       6.771   9.013  20.581  1.00  0.00    -0.328 N 
HETATM    2  C11 UNL     1       7.621   9.426  19.483  1.00  0.00     0.148 C 
HETATM    3  C12 UNL     1       6.633   9.704  18.350  1.00  0.00     0.147 C 
HETATM    4  N3  UNL     1       5.671   8.621  18.559  1.00  0.00    -0.331 N 
HETATM    5  C22 UNL     1       5.619   8.452  19.972  1.00  0.00     0.321 C 
HETATM    6  O1  UNL     1       4.664   7.880  20.541  1.00  0.00    -0.247 OA
ENDROOT
BRANCH   4   7
HETATM    7  C13 UNL     1       5.004   7.960  17.504  1.00  0.00     0.147 C 
BRANCH   7   8
HETATM    8  C14 UNL     1       5.614   6.739  16.960  1.00  0.00     0.158 C 
BRANCH   8   9
HETATM    9  N4  UNL     1       5.167   5.531  17.628  1.00  0.00    -0.225 N 
HETATM   10  C15 UNL     1       5.746   5.035  18.810  1.00  0.00     0.667 C 
HETATM   11  N5  UNL     1       5.023   4.807  19.830  1.00  0.00    -0.235 N 
HETATM   12  N6  UNL     1       7.128   4.790  18.856  1.00  0.00    -0.222 N 
ATOM     13  H52 UNL     1       4.019   4.985  19.797  1.00  0.00     0.174 HD
ATOM     14  H51 UNL     1       5.442   4.447  20.688  1.00  0.00     0.174 HD
ATOM     15  H6  UNL     1       7.674   5.298  19.553  1.00  0.00     0.178 HD
ATOM     16  H4  UNL     1       4.390   5.014  17.218  1.00  0.00     0.177 HD
BRANCH  12  17
HETATM   17  C16 UNL     1       7.831   3.877  17.997  1.00  0.00     0.099 C 
HETATM   18  C17 UNL     1       7.101   2.578  17.796  1.00  0.00     0.026 C 
HETATM   19  C18 UNL     1       7.459   1.557  18.842  1.00  0.00     0.002 C 
HETATM   20  C19 UNL     1       8.919   1.260  18.926  1.00  0.00     0.000 C 
HETATM   21  C20 UNL     1       9.677   2.236  18.066  1.00  0.00     0.002 C 
HETATM   22  C21 UNL     1       9.239   3.639  18.490  1.00  0.00     0.026 C 
ENDBRANCH  12  17
ENDBRANCH   8   9
ENDBRANCH   7   8
ENDBRANCH   4   7
BRANCH   1  23
HETATM   23  C10 UNL     1       7.070   9.160  21.983  1.00  0.00     0.092 C 
HETATM   24  C9  UNL     1       7.106   7.865  22.725  1.00  0.00     0.053 C 
HETATM   25  C8  UNL     1       8.513   7.507  23.152  1.00  0.00     0.239 C 
HETATM   26  N1  UNL     1       8.975   8.437  24.148  1.00  0.00    -0.067 N 
HETATM   27  C5  UNL     1       8.402   8.145  25.441  1.00  0.00     0.238 C 
HETATM   28  C6  UNL     1      10.430   8.381  24.302  1.00  0.00     0.238 C 
HETATM   29  C24 UNL     1       8.669   9.781  23.706  1.00  0.00     0.239 C 
HETATM   30  C4  UNL     1       9.294   7.206  26.254  1.00  0.00     0.032 C 
HETATM   31  C3  UNL     1      10.431   8.056  26.771  1.00  0.00    -0.012 C 
HETATM   32  C7  UNL     1      10.874   8.940  25.638  1.00  0.00     0.032 C 
HETATM   33  C23 UNL     1       8.406   9.856  22.217  1.00  0.00     0.053 C 
BRANCH  31  34
HETATM   34  C2  UNL     1      11.565   7.238  27.339  1.00  0.00     0.000 C 
HETATM   35  C1  UNL     1      12.911   7.667  26.830  1.00  0.00     0.005 C 
ENDBRANCH  31  34
ENDBRANCH   1  23
TORSDOF 6
ENDMDL
MODEL 3
REMARK VINA RESULT: -8.812812987      1.326      1.953
REMARK  6 active torsions:
REMARK  status: ('A' for Active; 'I' for Inactive)
REMARK    1  A    between atoms: C2_2  and  C3_3 
REMARK    2  A    between atoms: C10_11  and  N2_12 
REMARK    3  A    between atoms: N3_15  and  C13_16 
REMARK    4  A    between atoms: C13_16  and  C14_17 
REMARK    5  A    between atoms: C14_17  and  N4_18 
REMARK       I    between atoms: N4_18  and  C15_20 
REMARK       I    between atoms: C15_20  and  N6_24 
REMARK    6  A    between atoms: N6_24  and  C16_26 
ROOT
HETATM    1  N2  UNL     1       6.015   7.900  20.238  1.00  0.00    -0.328 N 
HETATM    2  C11 UNL     1       4.772   8.207  19.562  1.00  0.00     0.148 C 
HETATM    3  C12 UNL     1       4.518   6.969  18.701  1.00  0.00     0.147 C 
HETATM    4  N3  UNL     1       5.880   6.659  18.265  1.00  0.00    -0.331 N 
HETATM    5  C22 UNL     1       6.703   7.009  19.374  1.00  0.00     0.321 C 
HETATM    6  O1  UNL     1       7.862   6.561  19.513  1.00  0.00    -0.247 OA
ENDROOT
BRANCH   4   7
HETATM    7  C13 UNL     1       6.187   6.132  16.992  1.00  0.00     0.147 C 
BRANCH   7   8
HETATM    8  C14 UNL     1       5.982   4.693  16.773  1.00  0.00     0.158 C 
BRANCH   8   9
HETATM    9  N4  UNL     1       6.879   4.133  15.781  1.00  0.00    -0.225 N 
HETATM   10  C15 UNL     1       6.792   2.811  15.309  1.00  0.00     0.667 C 
HETATM   11  N5  UNL     1       6.696   2.581  14.062  1.00  0.00    -0.235 N 
HETATM   12  N6  UNL     1       6.812   1.745  16.223  1.00  0.00    -0.222 N 
ATOM     13  H52 UNL     1       6.682   3.356  13.398  1.00  0.00     0.174 HD
ATOM     14  H51 UNL     1       6.632   1.623  13.720  1.00  0.00     0.174 HD
ATOM     15  H6  UNL     1       6.004   1.122  16.240  1.00  0.00     0.178 HD
ATOM     16  H4  UNL     1       7.615   4.731  15.404  1.00  0.00     0.177 HD
BRANCH  12  17
HETATM   17  C16 UNL     1       7.885   1.466  17.137  1.00  0.00     0.099 C 
HETATM   18  C17 UNL     1       7.487   1.624  18.579  1.00  0.00     0.026 C 
HETATM   19  C18 UNL     1       7.696   3.029  19.075  1.00  0.00     0.002 C 
HETATM   20  C19 UNL     1       9.095   3.525  18.923  1.00  0.00     0.000 C 
HETATM   21  C20 UNL     1       9.888   2.540  18.107  1.00  0.00     0.002 C 
HETATM   22  C21 UNL     1       9.105   2.297  16.815  1.00  0.00     0.026 C 
ENDBRANCH  12  17
ENDBRANCH   8   9
ENDBRANCH   7   8
ENDBRANCH   4   7
BRANCH   1  23
HETATM   23  C10 UNL     1       6.430   8.414  21.520  1.00  0.00     0.092 C 
HETATM   24  C9  UNL     1       6.663   7.351  22.542  1.00  0.00     0.053 C 
HETATM   25  C8  UNL     1       8.132   7.212  22.877  1.00  0.00     0.239 C 
HETATM   26  N1  UNL     1       8.594   8.392  23.559  1.00  0.00    -0.067 N 
HETATM   27  C5  UNL     1       8.177   8.393  24.941  1.00  0.00     0.238 C 
HETATM   28  C6  UNL     1      10.055   8.481  23.551  1.00  0.00     0.238 C 
HETATM   29  C24 UNL     1       8.117   9.559  22.845  1.00  0.00     0.239 C 
HETATM   30  C4  UNL     1       9.229   7.753  25.848  1.00  0.00     0.032 C 
HETATM   31  C3  UNL     1      10.322   8.784  26.009  1.00  0.00    -0.012 C 
HETATM   32  C7  UNL     1      10.567   9.386  24.653  1.00  0.00     0.032 C 
HETATM   33  C23 UNL     1       7.708   9.240  21.422  1.00  0.00     0.053 C 
BRANCH  31  34
HETATM   34  C2  UNL     1      11.579   8.217  26.621  1.00  0.00     0.000 C 
HETATM   35  C1  UNL     1      11.339   6.954  27.397  1.00  0.00     0.005 C 
ENDBRANCH  31  34
ENDBRANCH   1  23
TORSDOF 6
ENDMDL
MODEL 4
REMARK VINA RESULT: -8.770285939      0.961      1.169
REMARK  6 active torsions:
REMARK  status: ('A' for Active; 'I' for Inactive)
REMARK    1  A    between atoms: C2_2  and  C3_3 
REMARK    2  A    between atoms: C10_11  and  N2_12 
REMARK    3  A    between atoms: N3_15  and  C13_16 
REMARK    4  A    between atoms: C13_16  and  C14_17 
REMARK    5  A    between atoms: C14_17  and  N4_18 
REMARK       I    between atoms: N4_18  and  C15_20 
REMARK       I    between atoms: C15_20  and  N6_24 
REMARK    6  A    between atoms: N6_24  and  C16_26 
ROOT
HETATM    1  N2  UNL     1       6.138   8.689  21.571  1.00  0.00    -0.328 N 
HETATM    2  C11 UNL     1       4.758   8.963  21.226  1.00  0.00     0.148 C 
HETATM    3  C12 UNL     1       4.449   7.934  20.139  1.00  0.00     0.147 C 
HETATM    4  N3  UNL     1       5.715   7.930  19.404  1.00  0.00    -0.331 N 
HETATM    5  C22 UNL     1       6.712   8.127  20.401  1.00  0.00     0.321 C 
HETATM    6  O1  UNL     1       7.912   7.828  20.215  1.00  0.00    -0.247 OA
ENDROOT
BRANCH   4   7
HETATM    7  C13 UNL     1       5.801   7.760  18.005  1.00  0.00     0.147 C 
BRANCH   7   8
HETATM    8  C14 UNL     1       5.554   6.419  17.456  1.00  0.00     0.158 C 
BRANCH   8   9
HETATM    9  N4  UNL     1       6.704   5.863  16.770  1.00  0.00    -0.225 N 
HETATM   10  C15 UNL     1       6.763   4.541  16.293  1.00  0.00     0.667 C 
HETATM   11  N5  UNL     1       7.036   4.312  15.072  1.00  0.00    -0.235 N 
HETATM   12  N6  UNL     1       6.519   3.473  17.173  1.00  0.00    -0.222 N 
ATOM     13  H52 UNL     1       7.213   5.087  14.433  1.00  0.00     0.174 HD
ATOM     14  H51 UNL     1       7.078   3.354  14.726  1.00  0.00     0.174 HD
ATOM     15  H6  UNL     1       5.744   2.848  16.952  1.00  0.00     0.178 HD
ATOM     16  H4  UNL     1       7.516   6.464  16.624  1.00  0.00     0.177 HD
BRANCH  12  17
HETATM   17  C16 UNL     1       7.280   3.196  18.360  1.00  0.00     0.099 C 
HETATM   18  C17 UNL     1       8.724   3.600  18.241  1.00  0.00     0.026 C 
HETATM   19  C18 UNL     1       9.578   2.497  17.676  1.00  0.00     0.002 C 
HETATM   20  C19 UNL     1       9.515   1.223  18.450  1.00  0.00     0.000 C 
HETATM   21  C20 UNL     1       8.431   1.324  19.490  1.00  0.00     0.002 C 
HETATM   22  C21 UNL     1       7.152   1.746  18.763  1.00  0.00     0.026 C 
ENDBRANCH  12  17
ENDBRANCH   8   9
ENDBRANCH   7   8
ENDBRANCH   4   7
BRANCH   1  23
HETATM   23  C10 UNL     1       6.758   8.946  22.847  1.00  0.00     0.092 C 
HETATM   24  C9  UNL     1       6.916   7.725  23.691  1.00  0.00     0.053 C 
HETATM   25  C8  UNL     1       8.370   7.324  23.823  1.00  0.00     0.239 C 
HETATM   26  N1  UNL     1       9.084   8.313  24.586  1.00  0.00    -0.067 N 
HETATM   27  C5  UNL     1       8.815   8.177  25.999  1.00  0.00     0.238 C 
HETATM   28  C6  UNL     1      10.532   8.184  24.412  1.00  0.00     0.238 C 
HETATM   29  C24 UNL     1       8.733   9.627  24.089  1.00  0.00     0.239 C 
HETATM   30  C4  UNL     1       9.835   7.265  26.682  1.00  0.00     0.032 C 
HETATM   31  C3  UNL     1      11.091   8.089  26.837  1.00  0.00    -0.012 C 
HETATM   32  C7  UNL     1      11.293   8.837  25.548  1.00  0.00     0.032 C 
HETATM   33  C23 UNL     1       8.137   9.580  22.698  1.00  0.00     0.053 C 
BRANCH  31  34
HETATM   34  C2  UNL     1      12.296   7.261  27.214  1.00  0.00     0.000 C 
HETATM   35  C1  UNL     1      13.550   7.693  26.512  1.00  0.00     0.005 C 
ENDBRANCH  31  34
ENDBRANCH   1  23
TORSDOF 6
ENDMDL
MODEL 5
REMARK VINA RESULT: -8.640554924      2.280      8.387
REMARK  6 active torsions:
REMARK  status: ('A' for Active; 'I' for Inactive)
REMARK    1  A    between atoms: C2_2  and  C3_3 
REMARK    2  A    between atoms: C10_11  and  N2_12 
REMARK    3  A    between atoms: N3_15  and  C13_16 
REMARK    4  A    between atoms: C13_16  and  C14_17 
REMARK    5  A    between atoms: C14_17  and  N4_18 
REMARK       I    between atoms: N4_18  and  C15_20 
REMARK       I    between atoms: C15_20  and  N6_24 
REMARK    6  A    between atoms: N6_24  and  C16_26 
ROOT
HETATM    1  N2  UNL     1       5.436   6.402  21.668  1.00  0.00    -0.328 N 
HETATM    2  C11 UNL     1       4.758   5.681  22.724  1.00  0.00     0.148 C 
HETATM    3  C12 UNL     1       3.936   6.762  23.426  1.00  0.00     0.147 C 
HETATM    4  N3  UNL     1       4.873   7.885  23.380  1.00  0.00    -0.331 N 
HETATM    5  C22 UNL     1       5.558   7.735  22.142  1.00  0.00     0.321 C 
HETATM    6  O1  UNL     1       6.165   8.681  21.594  1.00  0.00    -0.247 OA
ENDROOT
BRANCH   4   7
HETATM    7  C13 UNL     1       4.983   8.847  24.409  1.00  0.00     0.147 C 
BRANCH   7   8
HETATM    8  C14 UNL     1       6.177   8.808  25.264  1.00  0.00     0.158 C 
BRANCH   8   9
HETATM    9  N4  UNL     1       7.403   9.100  24.546  1.00  0.00    -0.225 N 
HETATM   10  C15 UNL     1       8.370   8.130  24.228  1.00  0.00     0.667 C 
HETATM   11  N5  UNL     1       8.746   7.972  23.023  1.00  0.00    -0.235 N 
HETATM   12  N6  UNL     1       8.919   7.335  25.248  1.00  0.00    -0.222 N 
ATOM     13  H52 UNL     1       8.347   8.548  22.282  1.00  0.00     0.174 HD
ATOM     14  H51 UNL     1       9.446   7.267  22.792  1.00  0.00     0.174 HD
ATOM     15  H6  UNL     1       8.797   6.325  25.176  1.00  0.00     0.178 HD
ATOM     16  H4  UNL     1       7.574  10.063  24.256  1.00  0.00     0.177 HD
BRANCH  12  17
HETATM   17  C16 UNL     1       9.639   7.840  26.385  1.00  0.00     0.099 C 
HETATM   18  C17 UNL     1      10.650   8.892  26.021  1.00  0.00     0.026 C 
HETATM   19  C18 UNL     1      11.992   8.299  25.685  1.00  0.00     0.002 C 
HETATM   20  C19 UNL     1      12.571   7.453  26.769  1.00  0.00     0.000 C 
HETATM   21  C20 UNL     1      11.541   7.250  27.848  1.00  0.00     0.002 C 
HETATM   22  C21 UNL     1      10.279   6.716  27.166  1.00  0.00     0.026 C 
ENDBRANCH  12  17
ENDBRANCH   8   9
ENDBRANCH   7   8
ENDBRANCH   4   7
BRANCH   1  23
HETATM   23  C10 UNL     1       5.878   5.847  20.412  1.00  0.00     0.092 C 
HETATM   24  C9  UNL     1       7.348   5.593  20.356  1.00  0.00     0.053 C 
HETATM   25  C8  UNL     1       7.656   4.111  20.349  1.00  0.00     0.239 C 
HETATM   26  N1  UNL     1       7.200   3.521  19.118  1.00  0.00    -0.067 N 
HETATM   27  C5  UNL     1       8.105   3.815  18.032  1.00  0.00     0.238 C 
HETATM   28  C6  UNL     1       7.114   2.062  19.221  1.00  0.00     0.238 C 
HETATM   29  C24 UNL     1       5.855   3.985  18.849  1.00  0.00     0.239 C 
HETATM   30  C4  UNL     1       9.170   2.729  17.875  1.00  0.00     0.032 C 
HETATM   31  C3  UNL     1       8.482   1.566  17.200  1.00  0.00    -0.012 C 
HETATM   32  C7  UNL     1       7.140   1.403  17.857  1.00  0.00     0.032 C 
HETATM   33  C23 UNL     1       5.174   4.535  20.085  1.00  0.00     0.053 C 
BRANCH  31  34
HETATM   34  C2  UNL     1       9.298   0.297  17.239  1.00  0.00     0.000 C 
HETATM   35  C1  UNL     1      10.293   0.272  18.363  1.00  0.00     0.005 C 
ENDBRANCH  31  34
ENDBRANCH   1  23
TORSDOF 6
ENDMDL
