MODEL 1
REMARK VINA RESULT: -7.764710496      0.000      0.000
REMARK  7 active torsions:
REMARK  status: ('A' for Active; 'I' for Inactive)
REMARK    1  A    between atoms: N1_2  and  C2_3 
REMARK    2  A    between atoms: C2_3  and  C3_4 
REMARK    3  A    between atoms: C3_4  and  N2_5 
REMARK    4  A    between atoms: C3_4  and  C4_9 
REMARK    5  A    between atoms: C4_9  and  N3_10 
REMARK    6  A    between atoms: C21_27  and  C22_28 
REMARK    7  A    between atoms: C22_28  and  N4_29 
ROOT
HETATM    1  C3  UNL     1       3.765   7.319  22.650  1.00  0.00     0.237 C 
ENDROOT
BRANCH   1   2
HETATM    2  C2  UNL     1       4.396   8.439  23.384  1.00  0.00     0.271 C 
BRANCH   2   3
HETATM    3  N1  UNL     1       4.998   8.238  24.633  1.00  0.00    -0.068 N 
HETATM    4  C1  UNL     1       4.151   8.396  25.793  1.00  0.00     0.272 C 
HETATM    5  C19 UNL     1       5.444   6.832  24.690  1.00  0.00     0.237 C 
HETATM    6  C20 UNL     1       6.926   6.821  24.760  1.00  0.00     0.036 C 
HETATM    7  C21 UNL     1       7.377   8.211  24.415  1.00  0.00     0.031 C 
HETATM    8  C24 UNL     1       6.189   9.030  24.869  1.00  0.00     0.243 C 
BRANCH   7   9
HETATM    9  C22 UNL     1       8.622   8.614  25.176  1.00  0.00     0.128 C 
BRANCH   9  10
HETATM   10  N4  UNL     1       9.116   7.563  26.016  1.00  0.00    -0.366 N 
HETATM   11  C23 UNL     1      10.249   7.666  26.606  1.00  0.00     0.196 C 
HETATM   12  N5  UNL     1      10.701   6.605  27.426  1.00  0.00    -0.067 NA
HETATM   13  N6  UNL     1      11.060   8.812  26.457  1.00  0.00    -0.067 NA
ATOM     14  H4  UNL     1       8.558   6.720  26.147  1.00  0.00     0.161 HD
ENDBRANCH   9  10
ENDBRANCH   7   9
ENDBRANCH   2   3
ENDBRANCH   1   2
BRANCH   1  15
HETATM   15  N2  UNL     1       2.325   7.273  22.770  1.00  0.00    -0.072 N 
ATOM     16  H23 UNL     1       2.052   6.879  23.671  1.00  0.00     0.274 HD
ATOM     17  H22 UNL     1       1.943   8.214  22.871  1.00  0.00     0.274 HD
ATOM     18  H21 UNL     1       1.859   6.778  22.009  1.00  0.00     0.274 HD
ENDBRANCH   1  15
BRANCH   1  19
HETATM   19  C4  UNL     1       4.290   7.165  21.282  1.00  0.00     0.306 C 
BRANCH  19  20
HETATM   20  N3  UNL     1       4.810   5.894  20.911  1.00  0.00     0.090 N 
HETATM   21  C5  UNL     1       3.766   5.277  20.074  1.00  0.00     0.272 C 
HETATM   22  C6  UNL     1       4.021   3.849  19.787  1.00  0.00     0.030 C 
HETATM   23  C7  UNL     1       3.881   3.638  18.280  1.00  0.00     0.002 C 
HETATM   24  C8  UNL     1       4.142   2.226  17.873  1.00  0.00     0.000 C 
HETATM   25  C9  UNL     1       5.051   2.203  16.643  1.00  0.00     0.000 C 
HETATM   26  C10 UNL     1       6.039   1.074  16.692  1.00  0.00     0.000 C 
HETATM   27  C11 UNL     1       7.470   1.577  16.906  1.00  0.00     0.000 C 
HETATM   28  C12 UNL     1       7.783   1.399  18.358  1.00  0.00     0.000 C 
HETATM   29  C13 UNL     1       9.068   2.048  18.788  1.00  0.00     0.000 C 
HETATM   30  C14 UNL     1       9.147   3.504  18.425  1.00  0.00     0.000 C 
HETATM   31  C15 UNL     1       7.930   4.276  18.933  1.00  0.00     0.000 C 
HETATM   32  C16 UNL     1       7.971   4.226  20.425  1.00  0.00     0.002 C 
HETATM   33  C17 UNL     1       7.182   5.271  21.116  1.00  0.00     0.030 C 
HETATM   34  C18 UNL     1       6.083   5.881  20.266  1.00  0.00     0.272 C 
ENDBRANCH  19  20
ENDBRANCH   1  19
TORSDOF 7
ENDMDL
MODEL 2
REMARK VINA RESULT: -7.749193508      1.843      2.544
REMARK  7 active torsions:
REMARK  status: ('A' for Active; 'I' for Inactive)
REMARK    1  A    between atoms: N1_2  and  C2_3 
REMARK    2  A    between atoms: C2_3  and  C3_4 
REMARK    3  A    between atoms: C3_4  and  N2_5 
REMARK    4  A    between atoms: C3_4  and  C4_9 
REMARK    5  A    between atoms: C4_9  and  N3_10 
REMARK    6  A    between atoms: C21_27  and  C22_28 
REMARK    7  A    between atoms: C22_28  and  N4_29 
ROOT
HETATM    1  C3  UNL     1       5.736   6.151  23.001  1.00  0.00     0.237 C 
ENDROOT
BRANCH   1   2
HETATM    2  C2  UNL     1       6.140   7.435  22.384  1.00  0.00     0.271 C 
BRANCH   2   3
HETATM    3  N1  UNL     1       7.488   7.737  22.159  1.00  0.00    -0.068 N 
HETATM    4  C1  UNL     1       8.068   7.238  20.933  1.00  0.00     0.272 C 
HETATM    5  C19 UNL     1       7.602   9.206  22.050  1.00  0.00     0.237 C 
HETATM    6  C20 UNL     1       8.412   9.690  23.196  1.00  0.00     0.036 C 
HETATM    7  C21 UNL     1       8.506   8.547  24.164  1.00  0.00     0.031 C 
HETATM    8  C24 UNL     1       8.385   7.360  23.234  1.00  0.00     0.243 C 
BRANCH   7   9
HETATM    9  C22 UNL     1       9.833   8.519  24.890  1.00  0.00     0.128 C 
BRANCH   9  10
HETATM   10  N4  UNL     1       9.817   7.647  26.028  1.00  0.00    -0.366 N 
HETATM   11  C23 UNL     1      10.875   7.450  26.724  1.00  0.00     0.196 C 
HETATM   12  N5  UNL     1      10.817   6.581  27.840  1.00  0.00    -0.067 NA
HETATM   13  N6  UNL     1      12.098   8.079  26.407  1.00  0.00    -0.067 NA
ATOM     14  H4  UNL     1       8.951   7.175  26.288  1.00  0.00     0.161 HD
ENDBRANCH   9  10
ENDBRANCH   7   9
ENDBRANCH   2   3
ENDBRANCH   1   2
BRANCH   1  15
HETATM   15  N2  UNL     1       5.612   6.201  24.441  1.00  0.00    -0.072 N 
ATOM     16  H23 UNL     1       5.604   7.168  24.766  1.00  0.00     0.274 HD
ATOM     17  H22 UNL     1       4.677   5.914  24.731  1.00  0.00     0.274 HD
ATOM     18  H21 UNL     1       6.322   5.663  24.939  1.00  0.00     0.274 HD
ENDBRANCH   1  15
BRANCH   1  19
HETATM   19  C4  UNL     1       4.616   5.504  22.294  1.00  0.00     0.306 C 
BRANCH  19  20
HETATM   20  N3  UNL     1       4.929   4.653  21.197  1.00  0.00     0.090 N 
HETATM   21  C5  UNL     1       4.507   5.396  19.998  1.00  0.00     0.272 C 
HETATM   22  C6  UNL     1       4.531   4.575  18.768  1.00  0.00     0.030 C 
HETATM   23  C7  UNL     1       5.298   5.350  17.697  1.00  0.00     0.002 C 
HETATM   24  C8  UNL     1       5.404   4.599  16.412  1.00  0.00     0.000 C 
HETATM   25  C9  UNL     1       6.835   4.682  15.882  1.00  0.00     0.000 C 
HETATM   26  C10 UNL     1       7.279   3.398  15.245  1.00  0.00     0.000 C 
HETATM   27  C11 UNL     1       8.347   2.685  16.080  1.00  0.00     0.000 C 
HETATM   28  C12 UNL     1       7.650   1.609  16.852  1.00  0.00     0.000 C 
HETATM   29  C13 UNL     1       8.511   0.954  17.895  1.00  0.00     0.000 C 
HETATM   30  C14 UNL     1       9.143   1.934  18.842  1.00  0.00     0.000 C 
HETATM   31  C15 UNL     1       8.101   2.857  19.473  1.00  0.00     0.000 C 
HETATM   32  C16 UNL     1       7.207   2.002  20.308  1.00  0.00     0.002 C 
HETATM   33  C17 UNL     1       6.440   2.717  21.354  1.00  0.00     0.030 C 
HETATM   34  C18 UNL     1       6.279   4.204  21.095  1.00  0.00     0.272 C 
ENDBRANCH  19  20
ENDBRANCH   1  19
TORSDOF 7
ENDMDL
MODEL 3
REMARK VINA RESULT: -7.687808429      1.485      2.171
REMARK  7 active torsions:
REMARK  status: ('A' for Active; 'I' for Inactive)
REMARK    1  A    between atoms: N1_2  and  C2_3 
REMARK    2  A    between atoms: C2_3  and  C3_4 
REMARK    3  A    between atoms: C3_4  and  N2_5 
REMARK    4  A    between atoms: C3_4  and  C4_9 
REMARK    5  A    between atoms: C4_9  and  N3_10 
REMARK    6  A    between atoms: C21_27  and  C22_28 
REMARK    7  A    between atoms: C22_28  and  N4_29 
ROOT
HETATM    1  C3  UNL     1       5.491   7.849  21.815  1.00  0.00     0.237 C 
ENDROOT
BRANCH   1   2
HETATM    2  C2  UNL     1       6.597   8.820  21.651  1.00  0.00     0.271 C 
BRANCH   2   3
HETATM    3  N1  UNL     1       7.894   8.520  22.086  1.00  0.00    -0.068 N 
HETATM    4  C1  UNL     1       8.850   8.154  21.066  1.00  0.00     0.272 C 
HETATM    5  C19 UNL     1       8.453   9.744  22.694  1.00  0.00     0.237 C 
HETATM    6  C20 UNL     1       8.664   9.484  24.140  1.00  0.00     0.036 C 
HETATM    7  C21 UNL     1       7.927   8.215  24.456  1.00  0.00     0.031 C 
HETATM    8  C24 UNL     1       7.970   7.507  23.120  1.00  0.00     0.243 C 
BRANCH   7   9
HETATM    9  C22 UNL     1       8.629   7.394  25.515  1.00  0.00     0.128 C 
BRANCH   9  10
HETATM   10  N4  UNL     1       9.977   7.826  25.741  1.00  0.00    -0.366 N 
HETATM   11  C23 UNL     1      10.643   7.410  26.754  1.00  0.00     0.196 C 
HETATM   12  N5  UNL     1      11.971   7.861  26.940  1.00  0.00    -0.067 NA
HETATM   13  N6  UNL     1      10.086   6.512  27.689  1.00  0.00    -0.067 NA
ATOM     14  H4  UNL     1      10.414   8.474  25.086  1.00  0.00     0.161 HD
ENDBRANCH   9  10
ENDBRANCH   7   9
ENDBRANCH   2   3
ENDBRANCH   1   2
BRANCH   1  15
HETATM   15  N2  UNL     1       4.447   8.290  22.714  1.00  0.00    -0.072 N 
ATOM     16  H23 UNL     1       4.820   8.946  23.400  1.00  0.00     0.274 HD
ATOM     17  H22 UNL     1       3.792   8.903  22.228  1.00  0.00     0.274 HD
ATOM     18  H21 UNL     1       3.949   7.530  23.178  1.00  0.00     0.274 HD
ENDBRANCH   1  15
BRANCH   1  19
HETATM   19  C4  UNL     1       5.025   7.292  20.532  1.00  0.00     0.306 C 
BRANCH  19  20
HETATM   20  N3  UNL     1       5.371   5.945  20.231  1.00  0.00     0.090 N 
HETATM   21  C5  UNL     1       4.342   5.484  19.283  1.00  0.00     0.272 C 
HETATM   22  C6  UNL     1       4.393   4.027  19.036  1.00  0.00     0.030 C 
HETATM   23  C7  UNL     1       4.392   3.804  17.524  1.00  0.00     0.002 C 
HETATM   24  C8  UNL     1       4.464   2.359  17.157  1.00  0.00     0.000 C 
HETATM   25  C9  UNL     1       5.490   2.161  16.041  1.00  0.00     0.000 C 
HETATM   26  C10 UNL     1       6.271   0.890  16.210  1.00  0.00     0.000 C 
HETATM   27  C11 UNL     1       7.731   1.162  16.585  1.00  0.00     0.000 C 
HETATM   28  C12 UNL     1       7.845   0.971  18.065  1.00  0.00     0.000 C 
HETATM   29  C13 UNL     1       9.161   1.417  18.636  1.00  0.00     0.000 C 
HETATM   30  C14 UNL     1       9.516   2.831  18.275  1.00  0.00     0.000 C 
HETATM   31  C15 UNL     1       8.391   3.801  18.635  1.00  0.00     0.000 C 
HETATM   32  C16 UNL     1       8.254   3.781  20.122  1.00  0.00     0.002 C 
HETATM   33  C17 UNL     1       7.572   4.956  20.712  1.00  0.00     0.030 C 
HETATM   34  C18 UNL     1       6.689   5.713  19.738  1.00  0.00     0.272 C 
ENDBRANCH  19  20
ENDBRANCH   1  19
TORSDOF 7
ENDMDL
MODEL 4
REMARK VINA RESULT: -7.649997377      2.200      2.730
REMARK  7 active torsions:
REMARK  status: ('A' for Active; 'I' for Inactive)
REMARK    1  A    between atoms: N1_2  and  C2_3 
REMARK    2  A    between atoms: C2_3  and  C3_4 
REMARK    3  A    between atoms: C3_4  and  N2_5 
REMARK    4  A    between atoms: C3_4  and  C4_9 
REMARK    5  A    between atoms: C4_9  and  N3_10 
REMARK    6  A    between atoms: C21_27  and  C22_28 
REMARK    7  A    between atoms: C22_28  and  N4_29 
ROOT
HETATM    1  C3  UNL     1       4.069   6.396  23.063  1.00  0.00     0.237 C 
ENDROOT
BRANCH   1   2
HETATM    2  C2  UNL     1       4.320   7.839  23.280  1.00  0.00     0.271 C 
BRANCH   2   3
HETATM    3  N1  UNL     1       5.424   8.279  24.021  1.00  0.00    -0.068 N 
HETATM    4  C1  UNL     1       5.141   9.041  25.215  1.00  0.00     0.272 C 
HETATM    5  C19 UNL     1       6.137   7.081  24.508  1.00  0.00     0.237 C 
HETATM    6  C20 UNL     1       7.473   7.046  23.862  1.00  0.00     0.036 C 
HETATM    7  C21 UNL     1       7.429   8.045  22.743  1.00  0.00     0.031 C 
HETATM    8  C24 UNL     1       6.406   9.030  23.263  1.00  0.00     0.243 C 
BRANCH   7   9
HETATM    9  C22 UNL     1       8.764   8.727  22.533  1.00  0.00     0.128 C 
BRANCH   9  10
HETATM   10  N4  UNL     1       8.624  10.062  22.026  1.00  0.00    -0.366 N 
HETATM   11  C23 UNL     1       8.806  10.319  20.784  1.00  0.00     0.196 C 
HETATM   12  N5  UNL     1       8.659  11.649  20.325  1.00  0.00    -0.067 NA
HETATM   13  N6  UNL     1       9.149   9.309  19.861  1.00  0.00    -0.067 NA
ATOM     14  H4  UNL     1       8.377  10.818  22.664  1.00  0.00     0.161 HD
ENDBRANCH   9  10
ENDBRANCH   7   9
ENDBRANCH   2   3
ENDBRANCH   1   2
BRANCH   1  15
HETATM   15  N2  UNL     1       3.085   5.827  23.957  1.00  0.00    -0.072 N 
ATOM     16  H23 UNL     1       2.324   6.487  24.118  1.00  0.00     0.274 HD
ATOM     17  H22 UNL     1       2.569   5.079  23.493  1.00  0.00     0.274 HD
ATOM     18  H21 UNL     1       3.469   5.501  24.844  1.00  0.00     0.274 HD
ENDBRANCH   1  15
BRANCH   1  19
HETATM   19  C4  UNL     1       3.901   6.053  21.639  1.00  0.00     0.306 C 
BRANCH  19  20
HETATM   20  N3  UNL     1       4.615   4.929  21.140  1.00  0.00     0.090 N 
HETATM   21  C5  UNL     1       3.645   4.189  20.316  1.00  0.00     0.272 C 
HETATM   22  C6  UNL     1       4.133   2.855  19.902  1.00  0.00     0.030 C 
HETATM   23  C7  UNL     1       3.930   2.725  18.393  1.00  0.00     0.002 C 
HETATM   24  C8  UNL     1       4.412   1.417  17.860  1.00  0.00     0.000 C 
HETATM   25  C9  UNL     1       5.224   1.647  16.585  1.00  0.00     0.000 C 
HETATM   26  C10 UNL     1       6.401   0.720  16.489  1.00  0.00     0.000 C 
HETATM   27  C11 UNL     1       7.729   1.464  16.663  1.00  0.00     0.000 C 
HETATM   28  C12 UNL     1       8.168   1.247  18.077  1.00  0.00     0.000 C 
HETATM   29  C13 UNL     1       9.341   2.093  18.486  1.00  0.00     0.000 C 
HETATM   30  C14 UNL     1       9.131   3.559  18.236  1.00  0.00     0.000 C 
HETATM   31  C15 UNL     1       7.832   4.056  18.870  1.00  0.00     0.000 C 
HETATM   32  C16 UNL     1       7.984   3.912  20.349  1.00  0.00     0.002 C 
HETATM   33  C17 UNL     1       7.069   4.744  21.164  1.00  0.00     0.030 C 
HETATM   34  C18 UNL     1       5.822   5.196  20.427  1.00  0.00     0.272 C 
ENDBRANCH  19  20
ENDBRANCH   1  19
TORSDOF 7
ENDMDL
MODEL 5
REMARK VINA RESULT: -7.575859358      1.067      1.164
REMARK  7 active torsions:
REMARK  status: ('A' for Active; 'I' for Inactive)
REMARK    1  A    between atoms: N1_2  and  C2_3 
REMARK    2  A    between atoms: C2_3  and  C3_4 
REMARK    3  A    between atoms: C3_4  and  N2_5 
REMARK    4  A    between atoms: C3_4  and  C4_9 
REMARK    5  A    between atoms: C4_9  and  N3_10 
REMARK    6  A    between atoms: C21_27  and  C22_28 
REMARK    7  A    between atoms: C22_28  and  N4_29 
ROOT
HETATM    1  C3  UNL     1       4.251   7.360  22.447  1.00  0.00     0.237 C 
ENDROOT
BRANCH   1   2
HETATM    2  C2  UNL     1       4.517   8.482  23.377  1.00  0.00     0.271 C 
BRANCH   2   3
HETATM    3  N1  UNL     1       5.098   8.260  24.632  1.00  0.00    -0.068 N 
HETATM    4  C1  UNL     1       4.234   8.409  25.781  1.00  0.00     0.272 C 
HETATM    5  C19 UNL     1       5.531   6.849  24.677  1.00  0.00     0.237 C 
HETATM    6  C20 UNL     1       7.012   6.825  24.769  1.00  0.00     0.036 C 
HETATM    7  C21 UNL     1       7.480   8.216  24.450  1.00  0.00     0.031 C 
HETATM    8  C24 UNL     1       6.291   9.038  24.897  1.00  0.00     0.243 C 
BRANCH   7   9
HETATM    9  C22 UNL     1       8.716   8.598  25.235  1.00  0.00     0.128 C 
BRANCH   9  10
HETATM   10  N4  UNL     1       9.195   7.529  26.061  1.00  0.00    -0.366 N 
HETATM   11  C23 UNL     1      10.328   7.608  26.654  1.00  0.00     0.196 C 
HETATM   12  N5  UNL     1      10.764   6.530  27.459  1.00  0.00    -0.067 NA
HETATM   13  N6  UNL     1      11.153   8.745  26.523  1.00  0.00    -0.067 NA
ATOM     14  H4  UNL     1       8.625   6.691  26.179  1.00  0.00     0.161 HD
ENDBRANCH   9  10
ENDBRANCH   7   9
ENDBRANCH   2   3
ENDBRANCH   1   2
BRANCH   1  15
HETATM   15  N2  UNL     1       2.849   7.041  22.295  1.00  0.00    -0.072 N 
ATOM     16  H23 UNL     1       2.311   7.403  23.083  1.00  0.00     0.274 HD
ATOM     17  H22 UNL     1       2.437   7.588  21.539  1.00  0.00     0.274 HD
ATOM     18  H21 UNL     1       2.661   6.047  22.161  1.00  0.00     0.274 HD
ENDBRANCH   1  15
BRANCH   1  19
HETATM   19  C4  UNL     1       5.015   7.466  21.191  1.00  0.00     0.306 C 
BRANCH  19  20
HETATM   20  N3  UNL     1       5.298   6.264  20.485  1.00  0.00     0.090 N 
HETATM   21  C5  UNL     1       4.542   6.367  19.226  1.00  0.00     0.272 C 
HETATM   22  C6  UNL     1       4.518   5.103  18.458  1.00  0.00     0.030 C 
HETATM   23  C7  UNL     1       4.925   5.416  17.019  1.00  0.00     0.002 C 
HETATM   24  C8  UNL     1       4.957   4.200  16.155  1.00  0.00     0.000 C 
HETATM   25  C9  UNL     1       6.234   4.198  15.313  1.00  0.00     0.000 C 
HETATM   26  C10 UNL     1       6.806   2.820  15.156  1.00  0.00     0.000 C 
HETATM   27  C11 UNL     1       8.119   2.654  15.928  1.00  0.00     0.000 C 
HETATM   28  C12 UNL     1       7.787   1.950  17.206  1.00  0.00     0.000 C 
HETATM   29  C13 UNL     1       8.924   1.905  18.188  1.00  0.00     0.000 C 
HETATM   30  C14 UNL     1       9.503   3.258  18.487  1.00  0.00     0.000 C 
HETATM   31  C15 UNL     1       8.422   4.247  18.924  1.00  0.00     0.000 C 
HETATM   32  C16 UNL     1       7.867   3.746  20.217  1.00  0.00     0.002 C 
HETATM   33  C17 UNL     1       7.164   4.758  21.039  1.00  0.00     0.030 C 
HETATM   34  C18 UNL     1       6.673   5.960  20.255  1.00  0.00     0.272 C 
ENDBRANCH  19  20
ENDBRANCH   1  19
TORSDOF 7
ENDMDL
