MODEL 1
REMARK VINA RESULT: -9.717915693      0.000      0.000
REMARK  7 active torsions:
REMARK  status: ('A' for Active; 'I' for Inactive)
REMARK    1  A    between atoms: C2_2  and  C3_3 
REMARK    2  A    between atoms: C3_3  and  N1_4 
REMARK    3  A    between atoms: C3_3  and  C8_13 
REMARK       I    between atoms: N1_4  and  C4_6 
REMARK       I    between atoms: C4_6  and  N2_8 
REMARK    4  A    between atoms: N2_8  and  C5_10 
REMARK       I    between atoms: C8_13  and  N3_15 
REMARK    5  A    between atoms: C12_19  and  C13_20 
REMARK       I    between atoms: C13_20  and  N4_22 
REMARK    6  A    between atoms: N4_22  and  C14_24 
REMARK    7  A    between atoms: C14_24  and  C15_25 
ROOT
HETATM    1  C8  UNL     1       7.281   7.465  22.638  1.00  0.00     0.247 C 
HETATM    2  O2  UNL     1       7.982   6.439  22.640  1.00  0.00    -0.271 OA
HETATM    3  N3  UNL     1       5.915   7.448  22.454  1.00  0.00    -0.337 N 
HETATM    4  C9  UNL     1       5.137   8.723  22.483  1.00  0.00     0.127 C 
HETATM    5  C10 UNL     1       3.991   8.290  23.409  1.00  0.00     0.022 C 
HETATM    6  C11 UNL     1       3.961   6.799  23.401  1.00  0.00     0.037 C 
HETATM    7  C12 UNL     1       4.930   6.492  22.211  1.00  0.00     0.179 C 
ENDROOT
BRANCH   7   8
HETATM    8  C13 UNL     1       5.196   5.069  22.163  1.00  0.00     0.240 C 
HETATM    9  O3  UNL     1       4.772   4.153  22.900  1.00  0.00    -0.271 OA
HETATM   10  N4  UNL     1       6.087   4.643  21.098  1.00  0.00    -0.359 N 
ATOM     11  H4  UNL     1       6.478   5.325  20.449  1.00  0.00     0.162 HD
BRANCH  10  12
HETATM   12  C14 UNL     1       6.414   3.239  20.970  1.00  0.00     0.132 C 
BRANCH  12  13
HETATM   13  C15 UNL     1       7.084   2.911  19.682  1.00  0.00    -0.023 C 
HETATM   14  C16 UNL     1       6.172   2.913  18.499  1.00  0.00     0.015 C 
HETATM   15  C17 UNL     1       6.997   2.583  17.269  1.00  0.00    -0.013 C 
HETATM   16  C18 UNL     1       7.674   1.233  17.384  1.00  0.00     0.009 C 
HETATM   17  C22 UNL     1       8.069   3.628  17.057  1.00  0.00     0.009 C 
HETATM   18  C19 UNL     1       8.601   1.251  18.576  1.00  0.00    -0.013 C 
HETATM   19  C20 UNL     1       9.678   2.281  18.399  1.00  0.00     0.009 C 
HETATM   20  C24 UNL     1       7.772   1.575  19.788  1.00  0.00     0.015 C 
HETATM   21  C21 UNL     1       9.006   3.634  18.259  1.00  0.00    -0.013 C 
HETATM   22  C23 UNL     1       8.192   3.951  19.474  1.00  0.00     0.015 C 
ENDBRANCH  12  13
ENDBRANCH  10  12
ENDBRANCH   7   8
BRANCH   1  23
HETATM   23  C3  UNL     1       8.054   8.747  22.856  1.00  0.00     0.201 C 
BRANCH  23  24
HETATM   24  C2  UNL     1       8.261   9.333  21.486  1.00  0.00    -0.003 C 
HETATM   25  C1  UNL     1       9.168   8.858  20.656  1.00  0.00     0.009 C 
ENDBRANCH  23  24
BRANCH  23  26
HETATM   26  N1  UNL     1       9.366   8.443  23.386  1.00  0.00    -0.327 N 
HETATM   27  C4  UNL     1       9.634   8.390  24.783  1.00  0.00     0.317 C 
HETATM   28  O1  UNL     1       8.687   8.619  25.602  1.00  0.00    -0.247 OA
HETATM   29  N2  UNL     1      10.902   8.095  25.312  1.00  0.00    -0.339 N 
ATOM     30  H2  UNL     1      11.676   7.908  24.675  1.00  0.00     0.164 HD
ATOM     31  H1  UNL     1      10.128   8.259  22.734  1.00  0.00     0.165 HD
BRANCH  29  32
HETATM   32  C5  UNL     1      11.133   8.051  26.732  1.00  0.00     0.078 C 
HETATM   33  C6  UNL     1      12.595   7.863  26.996  1.00  0.00     0.032 C 
HETATM   34  C7  UNL     1      10.339   6.873  27.277  1.00  0.00     0.032 C 
ENDBRANCH  29  32
ENDBRANCH  23  26
ENDBRANCH   1  23
TORSDOF 7
ENDMDL
MODEL 2
REMARK VINA RESULT: -9.694473383      0.110      1.337
REMARK  7 active torsions:
REMARK  status: ('A' for Active; 'I' for Inactive)
REMARK    1  A    between atoms: C2_2  and  C3_3 
REMARK    2  A    between atoms: C3_3  and  N1_4 
REMARK    3  A    between atoms: C3_3  and  C8_13 
REMARK       I    between atoms: N1_4  and  C4_6 
REMARK       I    between atoms: C4_6  and  N2_8 
REMARK    4  A    between atoms: N2_8  and  C5_10 
REMARK       I    between atoms: C8_13  and  N3_15 
REMARK    5  A    between atoms: C12_19  and  C13_20 
REMARK       I    between atoms: C13_20  and  N4_22 
REMARK    6  A    between atoms: N4_22  and  C14_24 
REMARK    7  A    between atoms: C14_24  and  C15_25 
ROOT
HETATM    1  C8  UNL     1       7.280   7.472  22.717  1.00  0.00     0.247 C 
HETATM    2  O2  UNL     1       7.974   6.443  22.663  1.00  0.00    -0.271 OA
HETATM    3  N3  UNL     1       5.909   7.469  22.569  1.00  0.00    -0.337 N 
HETATM    4  C9  UNL     1       5.140   8.745  22.665  1.00  0.00     0.127 C 
HETATM    5  C10 UNL     1       4.018   8.285  23.606  1.00  0.00     0.022 C 
HETATM    6  C11 UNL     1       3.978   6.796  23.546  1.00  0.00     0.037 C 
HETATM    7  C12 UNL     1       4.912   6.526  22.320  1.00  0.00     0.179 C 
ENDROOT
BRANCH   7   8
HETATM    8  C13 UNL     1       5.168   5.105  22.215  1.00  0.00     0.240 C 
HETATM    9  O3  UNL     1       4.778   4.168  22.943  1.00  0.00    -0.271 OA
HETATM   10  N4  UNL     1       6.002   4.709  21.093  1.00  0.00    -0.359 N 
ATOM     11  H4  UNL     1       6.363   5.410  20.446  1.00  0.00     0.162 HD
BRANCH  10  12
HETATM   12  C14 UNL     1       6.315   3.309  20.905  1.00  0.00     0.132 C 
BRANCH  12  13
HETATM   13  C15 UNL     1       7.143   3.053  19.695  1.00  0.00    -0.023 C 
HETATM   14  C16 UNL     1       8.244   4.041  19.486  1.00  0.00     0.015 C 
HETATM   15  C17 UNL     1       9.003   3.639  18.235  1.00  0.00    -0.013 C 
HETATM   16  C18 UNL     1       8.110   3.611  17.012  1.00  0.00     0.009 C 
HETATM   17  C22 UNL     1       9.610   2.265  18.404  1.00  0.00     0.009 C 
HETATM   18  C19 UNL     1       7.010   2.600  17.233  1.00  0.00    -0.013 C 
HETATM   19  C20 UNL     1       7.578   1.223  17.408  1.00  0.00     0.009 C 
HETATM   20  C24 UNL     1       6.263   3.011  18.472  1.00  0.00     0.015 C 
HETATM   21  C21 UNL     1       8.494   1.249  18.617  1.00  0.00    -0.013 C 
HETATM   22  C23 UNL     1       7.739   1.649  19.846  1.00  0.00     0.015 C 
ENDBRANCH  12  13
ENDBRANCH  10  12
ENDBRANCH   7   8
BRANCH   1  23
HETATM   23  C3  UNL     1       8.066   8.742  22.959  1.00  0.00     0.201 C 
BRANCH  23  24
HETATM   24  C2  UNL     1       8.262   9.361  21.601  1.00  0.00    -0.003 C 
HETATM   25  C1  UNL     1       9.139   8.887  20.740  1.00  0.00     0.009 C 
ENDBRANCH  23  24
BRANCH  23  26
HETATM   26  N1  UNL     1       9.382   8.412  23.465  1.00  0.00    -0.327 N 
HETATM   27  C4  UNL     1       9.672   8.346  24.856  1.00  0.00     0.317 C 
HETATM   28  O1  UNL     1       8.743   8.584  25.693  1.00  0.00    -0.247 OA
HETATM   29  N2  UNL     1      10.943   8.027  25.362  1.00  0.00    -0.339 N 
ATOM     30  H2  UNL     1      11.704   7.832  24.711  1.00  0.00     0.164 HD
ATOM     31  H1  UNL     1      10.130   8.221  22.799  1.00  0.00     0.165 HD
BRANCH  29  32
HETATM   32  C5  UNL     1      11.197   7.970  26.778  1.00  0.00     0.078 C 
HETATM   33  C6  UNL     1      12.664   7.787  27.017  1.00  0.00     0.032 C 
HETATM   34  C7  UNL     1      10.418   6.782  27.324  1.00  0.00     0.032 C 
ENDBRANCH  29  32
ENDBRANCH  23  26
ENDBRANCH   1  23
TORSDOF 7
ENDMDL
MODEL 3
REMARK VINA RESULT: -9.692145217      0.108      1.325
REMARK  7 active torsions:
REMARK  status: ('A' for Active; 'I' for Inactive)
REMARK    1  A    between atoms: C2_2  and  C3_3 
REMARK    2  A    between atoms: C3_3  and  N1_4 
REMARK    3  A    between atoms: C3_3  and  C8_13 
REMARK       I    between atoms: N1_4  and  C4_6 
REMARK       I    between atoms: C4_6  and  N2_8 
REMARK    4  A    between atoms: N2_8  and  C5_10 
REMARK       I    between atoms: C8_13  and  N3_15 
REMARK    5  A    between atoms: C12_19  and  C13_20 
REMARK       I    between atoms: C13_20  and  N4_22 
REMARK    6  A    between atoms: N4_22  and  C14_24 
REMARK    7  A    between atoms: C14_24  and  C15_25 
ROOT
HETATM    1  C8  UNL     1       7.243   7.466  22.635  1.00  0.00     0.247 C 
HETATM    2  O2  UNL     1       7.929   6.431  22.662  1.00  0.00    -0.271 OA
HETATM    3  N3  UNL     1       5.877   7.466  22.447  1.00  0.00    -0.337 N 
HETATM    4  C9  UNL     1       5.117   8.751  22.446  1.00  0.00     0.127 C 
HETATM    5  C10 UNL     1       3.964   8.357  23.378  1.00  0.00     0.022 C 
HETATM    6  C11 UNL     1       3.912   6.867  23.404  1.00  0.00     0.037 C 
HETATM    7  C12 UNL     1       4.879   6.518  22.224  1.00  0.00     0.179 C 
ENDROOT
BRANCH   7   8
HETATM    8  C13 UNL     1       5.124   5.091  22.209  1.00  0.00     0.240 C 
HETATM    9  O3  UNL     1       4.725   4.205  22.995  1.00  0.00    -0.271 OA
HETATM   10  N4  UNL     1       5.956   4.619  21.116  1.00  0.00    -0.359 N 
ATOM     11  H4  UNL     1       6.323   5.274  20.427  1.00  0.00     0.162 HD
BRANCH  10  12
HETATM   12  C14 UNL     1       6.258   3.207  21.018  1.00  0.00     0.132 C 
BRANCH  12  13
HETATM   13  C15 UNL     1       7.086   2.869  19.828  1.00  0.00    -0.023 C 
HETATM   14  C16 UNL     1       7.737   1.526  19.895  1.00  0.00     0.015 C 
HETATM   15  C17 UNL     1       8.522   1.320  18.614  1.00  0.00    -0.013 C 
HETATM   16  C18 UNL     1       9.581   2.386  18.419  1.00  0.00     0.009 C 
HETATM   17  C22 UNL     1       7.599   1.353  17.417  1.00  0.00     0.009 C 
HETATM   18  C19 UNL     1       8.907   3.735  18.340  1.00  0.00    -0.013 C 
HETATM   19  C20 UNL     1       7.979   3.801  17.162  1.00  0.00     0.009 C 
HETATM   20  C24 UNL     1       8.135   3.929  19.616  1.00  0.00     0.015 C 
HETATM   21  C21 UNL     1       6.930   2.720  17.339  1.00  0.00    -0.013 C 
HETATM   22  C23 UNL     1       6.162   2.927  18.606  1.00  0.00     0.015 C 
ENDBRANCH  12  13
ENDBRANCH  10  12
ENDBRANCH   7   8
BRANCH   1  23
HETATM   23  C3  UNL     1       8.034   8.742  22.825  1.00  0.00     0.201 C 
BRANCH  23  24
HETATM   24  C2  UNL     1       8.242   9.300  21.443  1.00  0.00    -0.003 C 
HETATM   25  C1  UNL     1       9.171   8.829  20.636  1.00  0.00     0.009 C 
ENDBRANCH  23  24
BRANCH  23  26
HETATM   26  N1  UNL     1       9.345   8.429  23.355  1.00  0.00    -0.327 N 
HETATM   27  C4  UNL     1       9.623   8.415  24.750  1.00  0.00     0.317 C 
HETATM   28  O1  UNL     1       8.688   8.687  25.569  1.00  0.00    -0.247 OA
HETATM   29  N2  UNL     1      10.889   8.113  25.278  1.00  0.00    -0.339 N 
ATOM     30  H2  UNL     1      11.655   7.891  24.641  1.00  0.00     0.164 HD
ATOM     31  H1  UNL     1      10.097   8.210  22.703  1.00  0.00     0.165 HD
BRANCH  29  32
HETATM   32  C5  UNL     1      11.131   8.110  26.697  1.00  0.00     0.078 C 
HETATM   33  C6  UNL     1      12.595   7.931  26.955  1.00  0.00     0.032 C 
HETATM   34  C7  UNL     1      10.343   6.946  27.281  1.00  0.00     0.032 C 
ENDBRANCH  29  32
ENDBRANCH  23  26
ENDBRANCH   1  23
TORSDOF 7
ENDMDL
MODEL 4
REMARK VINA RESULT: -9.478547840      1.162      1.654
REMARK  7 active torsions:
REMARK  status: ('A' for Active; 'I' for Inactive)
REMARK    1  A    between atoms: C2_2  and  C3_3 
REMARK    2  A    between atoms: C3_3  and  N1_4 
REMARK    3  A    between atoms: C3_3  and  C8_13 
REMARK       I    between atoms: N1_4  and  C4_6 
REMARK       I    between atoms: C4_6  and  N2_8 
REMARK    4  A    between atoms: N2_8  and  C5_10 
REMARK       I    between atoms: C8_13  and  N3_15 
REMARK    5  A    between atoms: C12_19  and  C13_20 
REMARK       I    between atoms: C13_20  and  N4_22 
REMARK    6  A    between atoms: N4_22  and  C14_24 
REMARK    7  A    between atoms: C14_24  and  C15_25 
ROOT
HETATM    1  C8  UNL     1       6.818   6.565  21.640  1.00  0.00     0.247 C 
HETATM    2  O2  UNL     1       7.618   5.679  21.296  1.00  0.00    -0.271 OA
HETATM    3  N3  UNL     1       5.500   6.315  21.957  1.00  0.00    -0.337 N 
HETATM    4  C9  UNL     1       4.603   7.431  22.381  1.00  0.00     0.127 C 
HETATM    5  C10 UNL     1       3.961   6.776  23.612  1.00  0.00     0.022 C 
HETATM    6  C11 UNL     1       4.157   5.304  23.477  1.00  0.00     0.037 C 
HETATM    7  C12 UNL     1       4.653   5.208  21.996  1.00  0.00     0.179 C 
ENDROOT
BRANCH   7   8
HETATM    8  C13 UNL     1       5.096   3.856  21.725  1.00  0.00     0.240 C 
HETATM    9  O3  UNL     1       5.207   2.882  22.500  1.00  0.00    -0.271 OA
HETATM   10  N4  UNL     1       5.464   3.592  20.345  1.00  0.00    -0.359 N 
ATOM     11  H4  UNL     1       5.402   4.330  19.644  1.00  0.00     0.162 HD
BRANCH  10  12
HETATM   12  C14 UNL     1       5.921   2.270  19.976  1.00  0.00     0.132 C 
BRANCH  12  13
HETATM   13  C15 UNL     1       7.045   2.291  19.001  1.00  0.00    -0.023 C 
HETATM   14  C16 UNL     1       7.553   3.659  18.681  1.00  0.00     0.015 C 
HETATM   15  C17 UNL     1       8.699   3.517  17.697  1.00  0.00    -0.013 C 
HETATM   16  C18 UNL     1       8.269   2.825  16.420  1.00  0.00     0.009 C 
HETATM   17  C22 UNL     1       9.823   2.713  18.309  1.00  0.00     0.009 C 
HETATM   18  C19 UNL     1       7.771   1.440  16.758  1.00  0.00    -0.013 C 
HETATM   19  C20 UNL     1       8.863   0.615  17.371  1.00  0.00     0.009 C 
HETATM   20  C24 UNL     1       6.633   1.595  17.730  1.00  0.00     0.015 C 
HETATM   21  C21 UNL     1       9.316   1.314  18.639  1.00  0.00    -0.013 C 
HETATM   22  C23 UNL     1       8.180   1.454  19.603  1.00  0.00     0.015 C 
ENDBRANCH  12  13
ENDBRANCH  10  12
ENDBRANCH   7   8
BRANCH   1  23
HETATM   23  C3  UNL     1       7.412   7.956  21.684  1.00  0.00     0.201 C 
BRANCH  23  24
HETATM   24  C2  UNL     1       7.741   8.301  20.257  1.00  0.00    -0.003 C 
HETATM   25  C1  UNL     1       8.670   9.184  19.951  1.00  0.00     0.009 C 
ENDBRANCH  23  24
BRANCH  23  26
HETATM   26  N1  UNL     1       8.664   7.930  22.410  1.00  0.00    -0.327 N 
HETATM   27  C4  UNL     1       8.749   8.227  23.799  1.00  0.00     0.317 C 
HETATM   28  O1  UNL     1       7.687   8.528  24.433  1.00  0.00    -0.247 OA
HETATM   29  N2  UNL     1       9.957   8.205  24.517  1.00  0.00    -0.339 N 
ATOM     30  H2  UNL     1      10.821   7.966  24.031  1.00  0.00     0.164 HD
ATOM     31  H1  UNL     1       9.517   7.689  21.907  1.00  0.00     0.165 HD
BRANCH  29  32
HETATM   32  C5  UNL     1      10.002   8.512  25.923  1.00  0.00     0.078 C 
HETATM   33  C6  UNL     1      11.376   8.980  26.289  1.00  0.00     0.032 C 
HETATM   34  C7  UNL     1       9.661   7.231  26.671  1.00  0.00     0.032 C 
ENDBRANCH  29  32
ENDBRANCH  23  26
ENDBRANCH   1  23
TORSDOF 7
ENDMDL
MODEL 5
REMARK VINA RESULT: -9.427781959      1.071      1.131
REMARK  7 active torsions:
REMARK  status: ('A' for Active; 'I' for Inactive)
REMARK    1  A    between atoms: C2_2  and  C3_3 
REMARK    2  A    between atoms: C3_3  and  N1_4 
REMARK    3  A    between atoms: C3_3  and  C8_13 
REMARK       I    between atoms: N1_4  and  C4_6 
REMARK       I    between atoms: C4_6  and  N2_8 
REMARK    4  A    between atoms: N2_8  and  C5_10 
REMARK       I    between atoms: C8_13  and  N3_15 
REMARK    5  A    between atoms: C12_19  and  C13_20 
REMARK       I    between atoms: C13_20  and  N4_22 
REMARK    6  A    between atoms: N4_22  and  C14_24 
REMARK    7  A    between atoms: C14_24  and  C15_25 
ROOT
HETATM    1  C8  UNL     1       6.779   6.741  21.757  1.00  0.00     0.247 C 
HETATM    2  O2  UNL     1       7.600   5.824  21.588  1.00  0.00    -0.271 OA
HETATM    3  N3  UNL     1       5.426   6.525  21.915  1.00  0.00    -0.337 N 
HETATM    4  C9  UNL     1       4.501   7.677  22.134  1.00  0.00     0.127 C 
HETATM    5  C10 UNL     1       3.691   7.121  23.313  1.00  0.00     0.022 C 
HETATM    6  C11 UNL     1       3.877   5.642  23.313  1.00  0.00     0.037 C 
HETATM    7  C12 UNL     1       4.562   5.431  21.921  1.00  0.00     0.179 C 
ENDROOT
BRANCH   7   8
HETATM    8  C13 UNL     1       5.012   4.059  21.811  1.00  0.00     0.240 C 
HETATM    9  O3  UNL     1       4.943   3.127  22.640  1.00  0.00    -0.271 OA
HETATM   10  N4  UNL     1       5.635   3.715  20.545  1.00  0.00    -0.359 N 
ATOM     11  H4  UNL     1       5.731   4.415  19.809  1.00  0.00     0.162 HD
BRANCH  10  12
HETATM   12  C14 UNL     1       6.119   2.366  20.340  1.00  0.00     0.132 C 
BRANCH  12  13
HETATM   13  C15 UNL     1       7.056   2.251  19.188  1.00  0.00    -0.023 C 
HETATM   14  C16 UNL     1       6.421   1.760  17.929  1.00  0.00     0.015 C 
HETATM   15  C17 UNL     1       7.488   1.715  16.852  1.00  0.00    -0.013 C 
HETATM   16  C18 UNL     1       8.638   0.803  17.228  1.00  0.00     0.009 C 
HETATM   17  C22 UNL     1       8.049   3.098  16.606  1.00  0.00     0.009 C 
HETATM   18  C19 UNL     1       9.276   1.319  18.495  1.00  0.00    -0.013 C 
HETATM   19  C20 UNL     1       9.842   2.693  18.286  1.00  0.00     0.009 C 
HETATM   20  C24 UNL     1       8.210   1.355  19.555  1.00  0.00     0.015 C 
HETATM   21  C21 UNL     1       8.700   3.608  17.885  1.00  0.00    -0.013 C 
HETATM   22  C23 UNL     1       7.650   3.645  18.951  1.00  0.00     0.015 C 
ENDBRANCH  12  13
ENDBRANCH  10  12
ENDBRANCH   7   8
BRANCH   1  23
HETATM   23  C3  UNL     1       7.386   8.126  21.778  1.00  0.00     0.201 C 
BRANCH  23  24
HETATM   24  C2  UNL     1       7.686   8.458  20.342  1.00  0.00    -0.003 C 
HETATM   25  C1  UNL     1       8.737   9.176  19.998  1.00  0.00     0.009 C 
ENDBRANCH  23  24
BRANCH  23  26
HETATM   26  N1  UNL     1       8.654   8.093  22.476  1.00  0.00    -0.327 N 
HETATM   27  C4  UNL     1       8.761   8.307  23.879  1.00  0.00     0.317 C 
HETATM   28  O1  UNL     1       7.705   8.537  24.551  1.00  0.00    -0.247 OA
HETATM   29  N2  UNL     1       9.984   8.277  24.570  1.00  0.00    -0.339 N 
ATOM     30  H2  UNL     1      10.845   8.094  24.053  1.00  0.00     0.164 HD
ATOM     31  H1  UNL     1       9.503   7.909  21.942  1.00  0.00     0.165 HD
BRANCH  29  32
HETATM   32  C5  UNL     1      10.052   8.499  25.990  1.00  0.00     0.078 C 
HETATM   33  C6  UNL     1      11.444   8.900  26.369  1.00  0.00     0.032 C 
HETATM   34  C7  UNL     1       9.675   7.188  26.665  1.00  0.00     0.032 C 
ENDBRANCH  29  32
ENDBRANCH  23  26
ENDBRANCH   1  23
TORSDOF 7
ENDMDL
