MODEL 1
REMARK VINA RESULT: -5.622584804      0.000      0.000
REMARK  2 active torsions:
REMARK  status: ('A' for Active; 'I' for Inactive)
REMARK    1  A    between atoms: C2_2  and  C3_3 
REMARK    2  A    between atoms: C4_4  and  C5_5 
ROOT
HETATM    1  C5  UNL     1       9.569  58.411  64.536  1.00  0.00     0.004 C 
HETATM    2  C6  UNL     1      10.368  57.581  63.943  1.00  0.00    -0.070 C 
HETATM    3  C7  UNL     1      11.705  58.056  63.429  1.00  0.00     0.044 C 
HETATM    4  C8  UNL     1      11.911  57.269  62.137  1.00  0.00     0.028 C 
HETATM    5  C9  UNL     1      10.589  56.990  61.459  1.00  0.00     0.011 C 
HETATM    6  C10 UNL     1       9.917  55.857  62.217  1.00  0.00     0.015 C 
HETATM    7  C11 UNL     1      10.121  56.140  63.691  1.00  0.00     0.053 C 
HETATM    8  C12 UNL     1      11.319  55.394  64.217  1.00  0.00     0.069 C 
HETATM    9  N1  UNL     1      12.365  55.173  63.352  1.00  0.00    -0.381 N 
ATOM     10  H1  UNL     1      12.895  54.307  63.452  1.00  0.00     0.164 HD
HETATM   11  C13 UNL     1      12.742  56.054  62.357  1.00  0.00     0.065 C 
ENDROOT
BRANCH   1  12
HETATM   12  C4  UNL     1       8.262  58.104  65.078  1.00  0.00     0.000 C 
HETATM   13  C3  UNL     1       7.134  58.438  64.480  1.00  0.00    -0.001 C 
BRANCH  13  14
HETATM   14  C2  UNL     1       5.827  58.136  65.013  1.00  0.00    -0.010 C 
HETATM   15  C1  UNL     1       5.614  57.763  66.243  1.00  0.00     0.011 C 
ENDBRANCH  13  14
ENDBRANCH   1  12
TORSDOF 2
ENDMDL
MODEL 2
REMARK VINA RESULT: -5.333053207      1.265      1.838
REMARK  2 active torsions:
REMARK  status: ('A' for Active; 'I' for Inactive)
REMARK    1  A    between atoms: C2_2  and  C3_3 
REMARK    2  A    between atoms: C4_4  and  C5_5 
ROOT
HETATM    1  C5  UNL     1       7.894  58.703  63.545  1.00  0.00     0.004 C 
HETATM    2  C6  UNL     1       8.941  58.141  63.027  1.00  0.00    -0.070 C 
HETATM    3  C7  UNL     1       9.398  58.527  61.642  1.00  0.00     0.044 C 
HETATM    4  C8  UNL     1       9.913  57.222  61.040  1.00  0.00     0.028 C 
HETATM    5  C9  UNL     1       9.139  56.039  61.574  1.00  0.00     0.011 C 
HETATM    6  C10 UNL     1       9.642  55.762  62.981  1.00  0.00     0.015 C 
HETATM    7  C11 UNL     1       9.796  57.107  63.660  1.00  0.00     0.053 C 
HETATM    8  C12 UNL     1      11.217  57.596  63.559  1.00  0.00     0.069 C 
HETATM    9  N1  UNL     1      11.938  57.241  62.444  1.00  0.00    -0.381 N 
ATOM     10  H1  UNL     1      12.939  57.079  62.552  1.00  0.00     0.164 HD
HETATM   11  C13 UNL     1      11.388  57.091  61.186  1.00  0.00     0.065 C 
ENDROOT
BRANCH   1  12
HETATM   12  C4  UNL     1       7.338  58.437  64.856  1.00  0.00     0.000 C 
HETATM   13  C3  UNL     1       6.069  58.139  65.055  1.00  0.00    -0.001 C 
BRANCH  13  14
HETATM   14  C2  UNL     1       5.506  57.872  66.359  1.00  0.00    -0.010 C 
HETATM   15  C1  UNL     1       4.347  58.316  66.752  1.00  0.00     0.011 C 
ENDBRANCH  13  14
ENDBRANCH   1  12
TORSDOF 2
ENDMDL
MODEL 3
REMARK VINA RESULT: -4.113019256      2.027      5.393
REMARK  2 active torsions:
REMARK  status: ('A' for Active; 'I' for Inactive)
REMARK    1  A    between atoms: C2_2  and  C3_3 
REMARK    2  A    between atoms: C4_4  and  C5_5 
ROOT
HETATM    1  C5  UNL     1       9.251  57.139  61.860  1.00  0.00     0.004 C 
HETATM    2  C6  UNL     1       8.687  57.558  62.948  1.00  0.00    -0.070 C 
HETATM    3  C7  UNL     1       7.185  57.517  63.084  1.00  0.00     0.044 C 
HETATM    4  C8  UNL     1       6.845  58.776  63.879  1.00  0.00     0.028 C 
HETATM    5  C9  UNL     1       7.820  59.889  63.567  1.00  0.00     0.011 C 
HETATM    6  C10 UNL     1       9.111  59.588  64.311  1.00  0.00     0.015 C 
HETATM    7  C11 UNL     1       9.370  58.105  64.147  1.00  0.00     0.053 C 
HETATM    8  C12 UNL     1       8.847  57.338  65.333  1.00  0.00     0.069 C 
HETATM    9  N1  UNL     1       7.735  57.831  65.974  1.00  0.00    -0.381 N 
ATOM     10  H1  UNL     1       7.666  57.701  66.983  1.00  0.00     0.164 HD
HETATM   11  C13 UNL     1       6.705  58.490  65.332  1.00  0.00     0.065 C 
ENDROOT
BRANCH   1  12
HETATM   12  C4  UNL     1      10.674  57.117  61.585  1.00  0.00     0.000 C 
HETATM   13  C3  UNL     1      11.552  56.525  62.372  1.00  0.00    -0.001 C 
BRANCH  13  14
HETATM   14  C2  UNL     1      12.971  56.498  62.107  1.00  0.00    -0.010 C 
HETATM   15  C1  UNL     1      13.484  56.469  60.910  1.00  0.00     0.011 C 
ENDBRANCH  13  14
ENDBRANCH   1  12
TORSDOF 2
ENDMDL
MODEL 4
REMARK VINA RESULT: -4.097524415      8.856     10.140
REMARK  2 active torsions:
REMARK  status: ('A' for Active; 'I' for Inactive)
REMARK    1  A    between atoms: C2_2  and  C3_3 
REMARK    2  A    between atoms: C4_4  and  C5_5 
ROOT
HETATM    1  C5  UNL     1       3.046  57.863  55.854  1.00  0.00     0.004 C 
HETATM    2  C6  UNL     1       3.290  58.906  56.583  1.00  0.00    -0.070 C 
HETATM    3  C7  UNL     1       3.255  60.282  55.967  1.00  0.00     0.044 C 
HETATM    4  C8  UNL     1       4.371  61.042  56.681  1.00  0.00     0.028 C 
HETATM    5  C9  UNL     1       5.502  60.111  57.055  1.00  0.00     0.011 C 
HETATM    6  C10 UNL     1       5.058  59.319  58.274  1.00  0.00     0.015 C 
HETATM    7  C11 UNL     1       3.618  58.919  58.030  1.00  0.00     0.053 C 
HETATM    8  C12 UNL     1       2.675  59.897  58.681  1.00  0.00     0.069 C 
HETATM    9  N1  UNL     1       3.075  61.209  58.770  1.00  0.00    -0.381 N 
ATOM     10  H1  UNL     1       2.782  61.745  59.587  1.00  0.00     0.164 HD
HETATM   11  C13 UNL     1       3.851  61.844  57.821  1.00  0.00     0.065 C 
ENDROOT
BRANCH   1  12
HETATM   12  C4  UNL     1       3.043  56.485  56.303  1.00  0.00     0.000 C 
HETATM   13  C3  UNL     1       1.939  55.816  56.576  1.00  0.00    -0.001 C 
BRANCH  13  14
HETATM   14  C2  UNL     1       1.927  54.443  57.024  1.00  0.00    -0.010 C 
HETATM   15  C1  UNL     1       1.477  54.064  58.186  1.00  0.00     0.011 C 
ENDBRANCH  13  14
ENDBRANCH   1  12
TORSDOF 2
ENDMDL
MODEL 5
REMARK VINA RESULT: -4.042646584      8.232      9.716
REMARK  2 active torsions:
REMARK  status: ('A' for Active; 'I' for Inactive)
REMARK    1  A    between atoms: C2_2  and  C3_3 
REMARK    2  A    between atoms: C4_4  and  C5_5 
ROOT
HETATM    1  C5  UNL     1       4.127  59.257  59.315  1.00  0.00     0.004 C 
HETATM    2  C6  UNL     1       3.722  60.038  58.365  1.00  0.00    -0.070 C 
HETATM    3  C7  UNL     1       4.668  60.435  57.259  1.00  0.00     0.044 C 
HETATM    4  C8  UNL     1       4.291  61.880  56.942  1.00  0.00     0.028 C 
HETATM    5  C9  UNL     1       3.802  62.594  58.181  1.00  0.00     0.011 C 
HETATM    6  C10 UNL     1       2.381  62.125  58.449  1.00  0.00     0.015 C 
HETATM    7  C11 UNL     1       2.368  60.628  58.219  1.00  0.00     0.053 C 
HETATM    8  C12 UNL     1       1.903  60.307  56.822  1.00  0.00     0.069 C 
HETATM    9  N1  UNL     1       2.198  61.209  55.827  1.00  0.00    -0.381 N 
ATOM     10  H1  UNL     1       1.523  61.325  55.070  1.00  0.00     0.164 HD
HETATM   11  C13 UNL     1       3.352  61.966  55.790  1.00  0.00     0.065 C 
ENDROOT
BRANCH   1  12
HETATM   12  C4  UNL     1       3.338  58.793  60.439  1.00  0.00     0.000 C 
HETATM   13  C3  UNL     1       2.594  57.704  60.398  1.00  0.00    -0.001 C 
BRANCH  13  14
HETATM   14  C2  UNL     1       1.804  57.235  61.512  1.00  0.00    -0.010 C 
HETATM   15  C1  UNL     1       1.477  57.976  62.532  1.00  0.00     0.011 C 
ENDBRANCH  13  14
ENDBRANCH   1  12
TORSDOF 2
ENDMDL
