MODEL 1
REMARK VINA RESULT: -5.686088077      0.000      0.000
REMARK  2 active torsions:
REMARK  status: ('A' for Active; 'I' for Inactive)
REMARK    1  A    between atoms: C2_2  and  C3_3 
REMARK    2  A    between atoms: C2_2  and  C7_9 
ROOT
HETATM    1  C7  UNL     1      11.052  56.846  63.296  1.00  0.00     0.199 C 
HETATM    2  N2  UNL     1      10.676  57.012  64.688  1.00  0.00    -0.066 N 
ATOM      3  H21 UNL     1       9.691  56.811  64.858  1.00  0.00     0.278 HD
ATOM      4  H22 UNL     1      10.668  57.990  64.981  1.00  0.00     0.278 HD
HETATM    5  C8  UNL     1      11.558  56.198  65.486  1.00  0.00     0.186 C 
HETATM    6  C9  UNL     1      11.063  54.775  65.405  1.00  0.00     0.033 C 
HETATM    7  C10 UNL     1      11.218  54.487  63.917  1.00  0.00     0.009 C 
HETATM    8  C11 UNL     1      11.966  55.671  63.338  1.00  0.00     0.019 C 
HETATM    9  C12 UNL     1      12.795  56.071  64.577  1.00  0.00     0.039 C 
ENDROOT
BRANCH   1  10
HETATM   10  C2  UNL     1       9.889  56.715  62.379  1.00  0.00     0.058 C 
HETATM   11  C1  UNL     1      10.335  57.176  61.000  1.00  0.00     0.018 C 
BRANCH  10  12
HETATM   12  C3  UNL     1       8.816  57.647  62.892  1.00  0.00    -0.012 C 
HETATM   13  N1  UNL     1       8.288  57.624  64.042  1.00  0.00    -0.396 N 
HETATM   14  C4  UNL     1       7.296  58.655  64.198  1.00  0.00     0.119 C 
ATOM     15  H1  UNL     1       8.536  56.956  64.772  1.00  0.00     0.159 HD
HETATM   16  C5  UNL     1       6.888  58.933  62.747  1.00  0.00     0.025 C 
HETATM   17  C6  UNL     1       8.234  58.742  62.082  1.00  0.00     0.054 C 
ENDBRANCH  10  12
ENDBRANCH   1  10
TORSDOF 2
ENDMDL
MODEL 2
REMARK VINA RESULT: -5.572574326      1.290      2.104
REMARK  2 active torsions:
REMARK  status: ('A' for Active; 'I' for Inactive)
REMARK    1  A    between atoms: C2_2  and  C3_3 
REMARK    2  A    between atoms: C2_2  and  C7_9 
ROOT
HETATM    1  C7  UNL     1       9.807  57.823  63.778  1.00  0.00     0.199 C 
HETATM    2  N2  UNL     1      10.021  56.995  64.951  1.00  0.00    -0.066 N 
ATOM      3  H21 UNL     1       9.268  56.325  65.104  1.00  0.00     0.278 HD
ATOM      4  H22 UNL     1       9.921  57.514  65.824  1.00  0.00     0.278 HD
HETATM    5  C8  UNL     1      11.310  56.366  64.820  1.00  0.00     0.186 C 
HETATM    6  C9  UNL     1      11.154  55.194  63.884  1.00  0.00     0.033 C 
HETATM    7  C10 UNL     1      10.732  55.892  62.596  1.00  0.00     0.009 C 
HETATM    8  C11 UNL     1      10.889  57.377  62.857  1.00  0.00     0.019 C 
HETATM    9  C12 UNL     1      12.049  57.329  63.873  1.00  0.00     0.039 C 
ENDROOT
BRANCH   1  10
HETATM   10  C2  UNL     1       8.427  57.732  63.231  1.00  0.00     0.058 C 
HETATM   11  C1  UNL     1       8.276  58.819  62.178  1.00  0.00     0.018 C 
BRANCH  10  12
HETATM   12  C3  UNL     1       7.480  58.011  64.374  1.00  0.00    -0.012 C 
HETATM   13  N1  UNL     1       7.770  58.016  65.606  1.00  0.00    -0.396 N 
HETATM   14  C4  UNL     1       6.628  58.321  66.426  1.00  0.00     0.119 C 
ATOM     15  H1  UNL     1       8.702  57.827  65.974  1.00  0.00     0.159 HD
HETATM   16  C5  UNL     1       5.461  57.917  65.517  1.00  0.00     0.025 C 
HETATM   17  C6  UNL     1       6.046  58.329  64.184  1.00  0.00     0.054 C 
ENDBRANCH  10  12
ENDBRANCH   1  10
TORSDOF 2
ENDMDL
MODEL 3
REMARK VINA RESULT: -5.567419770      1.570      4.637
REMARK  2 active torsions:
REMARK  status: ('A' for Active; 'I' for Inactive)
REMARK    1  A    between atoms: C2_2  and  C3_3 
REMARK    2  A    between atoms: C2_2  and  C7_9 
ROOT
HETATM    1  C7  UNL     1       9.350  57.869  63.314  1.00  0.00     0.199 C 
HETATM    2  N2  UNL     1       8.042  57.671  62.717  1.00  0.00    -0.066 N 
ATOM      3  H21 UNL     1       7.714  56.708  62.792  1.00  0.00     0.278 HD
ATOM      4  H22 UNL     1       8.060  57.730  61.699  1.00  0.00     0.278 HD
HETATM    5  C8  UNL     1       7.134  58.617  63.315  1.00  0.00     0.186 C 
HETATM    6  C9  UNL     1       6.726  58.071  64.661  1.00  0.00     0.033 C 
HETATM    7  C10 UNL     1       8.065  58.033  65.388  1.00  0.00     0.009 C 
HETATM    8  C11 UNL     1       9.052  58.742  64.483  1.00  0.00     0.019 C 
HETATM    9  C12 UNL     1       8.089  59.729  63.790  1.00  0.00     0.039 C 
ENDROOT
BRANCH   1  10
HETATM   10  C2  UNL     1      10.054  56.598  63.633  1.00  0.00     0.058 C 
HETATM   11  C1  UNL     1      10.585  56.709  65.054  1.00  0.00     0.018 C 
BRANCH  10  12
HETATM   12  C3  UNL     1      11.216  56.485  62.675  1.00  0.00    -0.012 C 
HETATM   13  N1  UNL     1      12.350  55.978  62.925  1.00  0.00    -0.396 N 
HETATM   14  C4  UNL     1      13.226  56.034  61.785  1.00  0.00     0.119 C 
ATOM     15  H1  UNL     1      12.610  55.577  63.825  1.00  0.00     0.159 HD
HETATM   16  C5  UNL     1      12.634  57.197  60.979  1.00  0.00     0.025 C 
HETATM   17  C6  UNL     1      11.168  56.969  61.276  1.00  0.00     0.054 C 
ENDBRANCH  10  12
ENDBRANCH   1  10
TORSDOF 2
ENDMDL
MODEL 4
REMARK VINA RESULT: -5.537531998      1.071      4.588
REMARK  2 active torsions:
REMARK  status: ('A' for Active; 'I' for Inactive)
REMARK    1  A    between atoms: C2_2  and  C3_3 
REMARK    2  A    between atoms: C2_2  and  C7_9 
ROOT
HETATM    1  C7  UNL     1       8.762  57.334  62.800  1.00  0.00     0.199 C 
HETATM    2  N2  UNL     1       8.921  57.679  64.201  1.00  0.00    -0.066 N 
ATOM      3  H21 UNL     1       9.826  58.104  64.403  1.00  0.00     0.278 HD
ATOM      4  H22 UNL     1       9.018  56.859  64.801  1.00  0.00     0.278 HD
HETATM    5  C8  UNL     1       7.814  58.520  64.579  1.00  0.00     0.186 C 
HETATM    6  C9  UNL     1       8.110  59.915  64.087  1.00  0.00     0.033 C 
HETATM    7  C10 UNL     1       8.165  59.696  62.579  1.00  0.00     0.009 C 
HETATM    8  C11 UNL     1       7.698  58.272  62.347  1.00  0.00     0.019 C 
HETATM    9  C12 UNL     1       6.740  58.127  63.548  1.00  0.00     0.039 C 
ENDROOT
BRANCH   1  10
HETATM   10  C2  UNL     1      10.031  57.391  62.027  1.00  0.00     0.058 C 
HETATM   11  C1  UNL     1       9.778  56.739  60.677  1.00  0.00     0.018 C 
BRANCH  10  12
HETATM   12  C3  UNL     1      11.049  56.576  62.790  1.00  0.00    -0.012 C 
HETATM   13  N1  UNL     1      10.879  55.413  63.262  1.00  0.00    -0.396 N 
HETATM   14  C4  UNL     1      12.056  54.928  63.933  1.00  0.00     0.119 C 
ATOM     15  H1  UNL     1      10.012  54.882  63.176  1.00  0.00     0.159 HD
HETATM   16  C5  UNL     1      12.775  56.230  64.304  1.00  0.00     0.025 C 
HETATM   17  C6  UNL     1      12.420  57.053  63.085  1.00  0.00     0.054 C 
ENDBRANCH  10  12
ENDBRANCH   1  10
TORSDOF 2
ENDMDL
MODEL 5
REMARK VINA RESULT: -5.395278664      1.033      4.681
REMARK  2 active torsions:
REMARK  status: ('A' for Active; 'I' for Inactive)
REMARK    1  A    between atoms: C2_2  and  C3_3 
REMARK    2  A    between atoms: C2_2  and  C7_9 
ROOT
HETATM    1  C7  UNL     1       8.937  57.373  62.964  1.00  0.00     0.199 C 
HETATM    2  N2  UNL     1       8.846  57.797  64.349  1.00  0.00    -0.066 N 
ATOM      3  H21 UNL     1       9.666  58.318  64.658  1.00  0.00     0.278 HD
ATOM      4  H22 UNL     1       8.922  57.019  65.005  1.00  0.00     0.278 HD
HETATM    5  C8  UNL     1       7.621  58.541  64.504  1.00  0.00     0.186 C 
HETATM    6  C9  UNL     1       7.863  59.933  63.977  1.00  0.00     0.033 C 
HETATM    7  C10 UNL     1       8.171  59.651  62.512  1.00  0.00     0.009 C 
HETATM    8  C11 UNL     1       7.876  58.179  62.300  1.00  0.00     0.019 C 
HETATM    9  C12 UNL     1       6.760  57.996  63.350  1.00  0.00     0.039 C 
ENDROOT
BRANCH   1  10
HETATM   10  C2  UNL     1      10.301  57.519  62.388  1.00  0.00     0.058 C 
HETATM   11  C1  UNL     1      10.284  56.898  61.000  1.00  0.00     0.018 C 
BRANCH  10  12
HETATM   12  C3  UNL     1      11.240  56.733  63.273  1.00  0.00    -0.012 C 
HETATM   13  N1  UNL     1      12.294  57.167  63.824  1.00  0.00    -0.396 N 
HETATM   14  C4  UNL     1      12.952  56.151  64.600  1.00  0.00     0.119 C 
ATOM     15  H1  UNL     1      12.635  58.123  63.729  1.00  0.00     0.159 HD
HETATM   16  C5  UNL     1      12.438  54.862  63.948  1.00  0.00     0.025 C 
HETATM   17  C6  UNL     1      11.030  55.308  63.620  1.00  0.00     0.054 C 
ENDBRANCH  10  12
ENDBRANCH   1  10
TORSDOF 2
ENDMDL
