MODEL 1
REMARK VINA RESULT: -5.461677216      0.000      0.000
REMARK  3 active torsions:
REMARK  status: ('A' for Active; 'I' for Inactive)
REMARK    1  A    between atoms: C2_2  and  C4_4 
REMARK    2  A    between atoms: C4_4  and  N1_5 
REMARK    3  A    between atoms: C4_4  and  C5_9 
ROOT
HETATM    1  C5  UNL     1       9.680  57.153  63.629  1.00  0.00     0.021 C 
HETATM    2  C6  UNL     1      10.096  56.504  62.279  1.00  0.00     0.012 C 
HETATM    3  C7  UNL     1      11.561  56.426  62.482  1.00  0.00    -0.006 C 
HETATM    4  C8  UNL     1      11.888  57.788  63.108  1.00  0.00     0.011 C 
HETATM    5  C9  UNL     1      11.017  57.267  64.238  1.00  0.00     0.000 C 
HETATM    6  C10 UNL     1      11.662  55.903  63.892  1.00  0.00    -0.040 C 
HETATM    7  C11 UNL     1      10.832  54.720  64.234  1.00  0.00     0.015 C 
HETATM    8  C12 UNL     1      13.100  55.809  64.315  1.00  0.00     0.015 C 
ENDROOT
BRANCH   1   9
HETATM    9  C4  UNL     1       8.952  58.437  63.343  1.00  0.00     0.191 C 
BRANCH   9  10
HETATM   10  C2  UNL     1       7.870  58.742  64.309  1.00  0.00     0.008 C 
HETATM   11  C1  UNL     1       8.234  58.030  65.630  1.00  0.00     0.011 C 
HETATM   12  C3  UNL     1       6.502  58.233  63.955  1.00  0.00     0.011 C 
ENDBRANCH   9  10
BRANCH   9  13
HETATM   13  N1  UNL     1       8.376  58.324  62.000  1.00  0.00    -0.074 N 
ATOM     14  H13 UNL     1       7.358  58.259  62.018  1.00  0.00     0.274 HD
ATOM     15  H12 UNL     1       8.455  59.192  61.469  1.00  0.00     0.274 HD
ATOM     16  H11 UNL     1       8.806  57.534  61.519  1.00  0.00     0.274 HD
ENDBRANCH   9  13
ENDBRANCH   1   9
TORSDOF 3
ENDMDL
MODEL 2
REMARK VINA RESULT: -5.256144320      0.636      1.101
REMARK  3 active torsions:
REMARK  status: ('A' for Active; 'I' for Inactive)
REMARK    1  A    between atoms: C2_2  and  C4_4 
REMARK    2  A    between atoms: C4_4  and  N1_5 
REMARK    3  A    between atoms: C4_4  and  C5_9 
ROOT
HETATM    1  C5  UNL     1       9.796  56.817  63.378  1.00  0.00     0.021 C 
HETATM    2  C6  UNL     1      10.595  56.432  62.101  1.00  0.00     0.012 C 
HETATM    3  C7  UNL     1      11.975  56.580  62.617  1.00  0.00    -0.006 C 
HETATM    4  C8  UNL     1      11.896  57.884  63.423  1.00  0.00     0.011 C 
HETATM    5  C9  UNL     1      10.933  57.076  64.278  1.00  0.00     0.000 C 
HETATM    6  C10 UNL     1      11.889  55.901  63.961  1.00  0.00    -0.040 C 
HETATM    7  C11 UNL     1      11.255  54.558  63.998  1.00  0.00     0.015 C 
HETATM    8  C12 UNL     1      13.203  56.000  64.683  1.00  0.00     0.015 C 
ENDROOT
BRANCH   1   9
HETATM    9  C4  UNL     1       8.904  57.983  63.056  1.00  0.00     0.191 C 
BRANCH   9  10
HETATM   10  C2  UNL     1       7.584  57.933  63.727  1.00  0.00     0.008 C 
HETATM   11  C1  UNL     1       6.688  58.982  63.033  1.00  0.00     0.011 C 
HETATM   12  C3  UNL     1       7.565  58.305  65.183  1.00  0.00     0.011 C 
ENDBRANCH   9  10
BRANCH   9  13
HETATM   13  N1  UNL     1       8.703  57.993  61.604  1.00  0.00    -0.074 N 
ATOM     14  H13 UNL     1       8.987  57.116  61.167  1.00  0.00     0.274 HD
ATOM     15  H12 UNL     1       7.715  57.967  61.349  1.00  0.00     0.274 HD
ATOM     16  H11 UNL     1       9.185  58.800  61.207  1.00  0.00     0.274 HD
ENDBRANCH   9  13
ENDBRANCH   1   9
TORSDOF 3
ENDMDL
MODEL 3
REMARK VINA RESULT: -5.239874535      1.810      4.560
REMARK  3 active torsions:
REMARK  status: ('A' for Active; 'I' for Inactive)
REMARK    1  A    between atoms: C2_2  and  C4_4 
REMARK    2  A    between atoms: C4_4  and  N1_5 
REMARK    3  A    between atoms: C4_4  and  C5_9 
ROOT
HETATM    1  C5  UNL     1       9.487  57.738  63.994  1.00  0.00     0.021 C 
HETATM    2  C6  UNL     1       9.260  59.188  64.507  1.00  0.00     0.012 C 
HETATM    3  C7  UNL     1       7.958  59.478  63.865  1.00  0.00    -0.006 C 
HETATM    4  C8  UNL     1       8.145  58.908  62.452  1.00  0.00     0.011 C 
HETATM    5  C9  UNL     1       8.254  57.591  63.202  1.00  0.00     0.000 C 
HETATM    6  C10 UNL     1       7.182  58.213  64.129  1.00  0.00    -0.040 C 
HETATM    7  C11 UNL     1       7.188  57.696  65.521  1.00  0.00     0.015 C 
HETATM    8  C12 UNL     1       5.824  58.289  63.489  1.00  0.00     0.015 C 
ENDROOT
BRANCH   1   9
HETATM    9  C4  UNL     1      10.788  57.690  63.243  1.00  0.00     0.191 C 
BRANCH   9  10
HETATM   10  C2  UNL     1      10.833  56.652  62.186  1.00  0.00     0.008 C 
HETATM   11  C1  UNL     1      12.282  56.118  62.143  1.00  0.00     0.011 C 
HETATM   12  C3  UNL     1      10.547  57.119  60.787  1.00  0.00     0.011 C 
ENDBRANCH   9  10
BRANCH   9  13
HETATM   13  N1  UNL     1      11.849  57.424  64.219  1.00  0.00    -0.074 N 
ATOM     14  H13 UNL     1      11.664  56.588  64.775  1.00  0.00     0.274 HD
ATOM     15  H12 UNL     1      12.715  57.114  63.778  1.00  0.00     0.274 HD
ATOM     16  H11 UNL     1      11.983  58.253  64.799  1.00  0.00     0.274 HD
ENDBRANCH   9  13
ENDBRANCH   1   9
TORSDOF 3
ENDMDL
MODEL 4
REMARK VINA RESULT: -5.224745722      1.472      4.515
REMARK  3 active torsions:
REMARK  status: ('A' for Active; 'I' for Inactive)
REMARK    1  A    between atoms: C2_2  and  C4_4 
REMARK    2  A    between atoms: C4_4  and  N1_5 
REMARK    3  A    between atoms: C4_4  and  C5_9 
ROOT
HETATM    1  C5  UNL     1       9.401  57.296  64.078  1.00  0.00     0.021 C 
HETATM    2  C6  UNL     1       9.512  58.824  64.344  1.00  0.00     0.012 C 
HETATM    3  C7  UNL     1       8.336  59.296  63.578  1.00  0.00    -0.006 C 
HETATM    4  C8  UNL     1       8.421  58.471  62.286  1.00  0.00     0.011 C 
HETATM    5  C9  UNL     1       8.191  57.308  63.237  1.00  0.00     0.000 C 
HETATM    6  C10 UNL     1       7.272  58.306  63.981  1.00  0.00    -0.040 C 
HETATM    7  C11 UNL     1       7.115  58.039  65.434  1.00  0.00     0.015 C 
HETATM    8  C12 UNL     1       5.991  58.585  63.248  1.00  0.00     0.015 C 
ENDROOT
BRANCH   1   9
HETATM    9  C4  UNL     1      10.673  56.825  63.432  1.00  0.00     0.191 C 
BRANCH   9  10
HETATM   10  C2  UNL     1      11.115  55.484  63.883  1.00  0.00     0.008 C 
HETATM   11  C1  UNL     1      11.007  55.470  65.424  1.00  0.00     0.011 C 
HETATM   12  C3  UNL     1      12.543  55.122  63.587  1.00  0.00     0.011 C 
ENDBRANCH   9  10
BRANCH   9  13
HETATM   13  N1  UNL     1      11.716  57.804  63.753  1.00  0.00    -0.074 N 
ATOM     14  H13 UNL     1      11.338  58.741  63.897  1.00  0.00     0.274 HD
ATOM     15  H12 UNL     1      12.108  57.664  64.684  1.00  0.00     0.274 HD
ATOM     16  H11 UNL     1      12.429  57.781  63.024  1.00  0.00     0.274 HD
ENDBRANCH   9  13
ENDBRANCH   1   9
TORSDOF 3
ENDMDL
MODEL 5
REMARK VINA RESULT: -5.127686477      1.753      4.591
REMARK  3 active torsions:
REMARK  status: ('A' for Active; 'I' for Inactive)
REMARK    1  A    between atoms: C2_2  and  C4_4 
REMARK    2  A    between atoms: C4_4  and  N1_5 
REMARK    3  A    between atoms: C4_4  and  C5_9 
ROOT
HETATM    1  C5  UNL     1       9.059  57.499  64.509  1.00  0.00     0.021 C 
HETATM    2  C6  UNL     1       9.034  59.043  64.689  1.00  0.00     0.012 C 
HETATM    3  C7  UNL     1       8.264  59.421  63.482  1.00  0.00    -0.006 C 
HETATM    4  C8  UNL     1       8.878  58.526  62.396  1.00  0.00     0.011 C 
HETATM    5  C9  UNL     1       8.296  57.413  63.252  1.00  0.00     0.000 C 
HETATM    6  C10 UNL     1       7.141  58.415  63.489  1.00  0.00    -0.040 C 
HETATM    7  C11 UNL     1       6.411  58.229  64.769  1.00  0.00     0.015 C 
HETATM    8  C12 UNL     1       6.265  58.599  62.283  1.00  0.00     0.015 C 
ENDROOT
BRANCH   1   9
HETATM    9  C4  UNL     1      10.490  57.041  64.468  1.00  0.00     0.191 C 
BRANCH   9  10
HETATM   10  C2  UNL     1      10.801  56.140  63.333  1.00  0.00     0.008 C 
HETATM   11  C1  UNL     1      11.279  54.803  63.940  1.00  0.00     0.011 C 
HETATM   12  C3  UNL     1      11.915  56.578  62.425  1.00  0.00     0.011 C 
ENDBRANCH   9  10
BRANCH   9  13
HETATM   13  N1  UNL     1      10.762  56.338  65.725  1.00  0.00    -0.074 N 
ATOM     14  H13 UNL     1       9.995  56.426  66.393  1.00  0.00     0.274 HD
ATOM     15  H12 UNL     1      10.739  55.323  65.615  1.00  0.00     0.274 HD
ATOM     16  H11 UNL     1      11.649  56.667  66.106  1.00  0.00     0.274 HD
ENDBRANCH   9  13
ENDBRANCH   1   9
TORSDOF 3
ENDMDL
