MODEL 1
REMARK VINA RESULT: -7.597604530      0.000      0.000
REMARK  7 active torsions:
REMARK  status: ('A' for Active; 'I' for Inactive)
REMARK    1  A    between atoms: N1_2  and  C1_4 
REMARK    2  A    between atoms: C4_7  and  N2_8 
REMARK    3  A    between atoms: N2_8  and  C5_10 
REMARK    4  A    between atoms: C6_12  and  C7_13 
REMARK    5  A    between atoms: C7_13  and  O4_14 
REMARK    6  A    between atoms: C8_19  and  O5_20 
REMARK    7  A    between atoms: C10_23  and  N4_24 
ROOT
HETATM    1  N2  UNL     1      40.135  59.639 176.278  1.00  0.00    -0.360 N 
ATOM      2  H2  UNL     1      39.393  60.324 176.141  1.00  0.00     0.162 HD
ENDROOT
BRANCH   1   3
HETATM    3  C4  UNL     1      41.087  59.539 175.242  1.00  0.00     0.032 A 
HETATM    4  C3  UNL     1      41.533  60.685 174.635  1.00  0.00     0.032 A 
HETATM    5  C2  UNL     1      42.444  60.671 173.631  1.00  0.00     0.041 A 
HETATM    6  C1  UNL     1      42.988  59.454 173.151  1.00  0.00     0.136 A 
HETATM    7  C10 UNL     1      42.562  58.305 173.735  1.00  0.00     0.138 A 
HETATM    8  C9  UNL     1      41.614  58.364 174.776  1.00  0.00     0.067 A 
BRANCH   6   9
HETATM    9  N1  UNL     1      43.969  59.572 172.122  1.00  0.00    -0.113 N 
HETATM   10  O1  UNL     1      43.710  60.382 171.156  1.00  0.00    -0.532 OA
HETATM   11  O2  UNL     1      45.135  58.916 172.080  1.00  0.00    -0.532 OA
ENDBRANCH   6   9
BRANCH   7  12
HETATM   12  N4  UNL     1      43.029  57.025 173.410  1.00  0.00    -0.113 N 
HETATM   13  O6  UNL     1      42.273  56.335 172.621  1.00  0.00    -0.532 OA
HETATM   14  O7  UNL     1      44.131  56.360 173.780  1.00  0.00    -0.532 OA
ENDBRANCH   7  12
ENDBRANCH   1   3
BRANCH   1  15
HETATM   15  C5  UNL     1      40.086  58.906 177.482  1.00  0.00     0.280 C 
HETATM   16  O3  UNL     1      39.283  57.765 177.467  1.00  0.00    -0.328 OA
HETATM   17  C6  UNL     1      39.388  57.324 178.783  1.00  0.00     0.349 C 
HETATM   18  N3  UNL     1      39.543  58.488 179.637  1.00  0.00    -0.016 N 
HETATM   19  C8  UNL     1      39.489  59.615 178.677  1.00  0.00     0.371 C 
ATOM     20  H32 UNL     1      38.871  58.548 180.402  1.00  0.00     0.283 HD
ATOM     21  H31 UNL     1      40.372  58.473 180.231  1.00  0.00     0.283 HD
BRANCH  17  22
HETATM   22  C7  UNL     1      40.568  56.384 178.953  1.00  0.00     0.225 C 
BRANCH  22  23
HETATM   23  O4  UNL     1      41.528  56.936 179.785  1.00  0.00    -0.397 OA
ATOM     24  H4  UNL     1      41.793  56.319 180.457  1.00  0.00     0.209 HD
ENDBRANCH  22  23
ENDBRANCH  17  22
BRANCH  19  25
HETATM   25  O5  UNL     1      38.147  59.906 178.541  1.00  0.00    -0.366 OA
ATOM     26  H5  UNL     1      37.736  60.209 179.343  1.00  0.00     0.212 HD
ENDBRANCH  19  25
ENDBRANCH   1  15
TORSDOF 7
ENDMDL
MODEL 2
REMARK VINA RESULT: -7.449320378      4.014      8.146
REMARK  7 active torsions:
REMARK  status: ('A' for Active; 'I' for Inactive)
REMARK    1  A    between atoms: N1_2  and  C1_4 
REMARK    2  A    between atoms: C4_7  and  N2_8 
REMARK    3  A    between atoms: N2_8  and  C5_10 
REMARK    4  A    between atoms: C6_12  and  C7_13 
REMARK    5  A    between atoms: C7_13  and  O4_14 
REMARK    6  A    between atoms: C8_19  and  O5_20 
REMARK    7  A    between atoms: C10_23  and  N4_24 
ROOT
HETATM    1  N2  UNL     1      41.284  62.044 170.186  1.00  0.00    -0.360 N 
ATOM      2  H2  UNL     1      40.331  62.402 170.248  1.00  0.00     0.162 HD
ENDROOT
BRANCH   1   3
HETATM    3  C4  UNL     1      41.586  60.943 171.014  1.00  0.00     0.032 A 
HETATM    4  C3  UNL     1      40.562  60.164 171.487  1.00  0.00     0.032 A 
HETATM    5  C2  UNL     1      40.771  59.091 172.289  1.00  0.00     0.041 A 
HETATM    6  C1  UNL     1      42.079  58.717 172.685  1.00  0.00     0.136 A 
HETATM    7  C10 UNL     1      43.112  59.472 172.230  1.00  0.00     0.138 A 
HETATM    8  C9  UNL     1      42.849  60.579 171.398  1.00  0.00     0.067 A 
BRANCH   6   9
HETATM    9  N1  UNL     1      42.175  57.545 173.494  1.00  0.00    -0.113 N 
HETATM   10  O1  UNL     1      42.433  56.438 172.892  1.00  0.00    -0.532 OA
HETATM   11  O2  UNL     1      42.024  57.503 174.823  1.00  0.00    -0.532 OA
ENDBRANCH   6   9
BRANCH   7  12
HETATM   12  N4  UNL     1      44.464  59.215 172.491  1.00  0.00    -0.113 N 
HETATM   13  O6  UNL     1      44.892  59.588 173.652  1.00  0.00    -0.532 OA
HETATM   14  O7  UNL     1      45.422  58.652 171.744  1.00  0.00    -0.532 OA
ENDBRANCH   7  12
ENDBRANCH   1   3
BRANCH   1  15
HETATM   15  C5  UNL     1      42.138  62.710 169.283  1.00  0.00     0.280 C 
HETATM   16  O3  UNL     1      42.218  64.095 169.429  1.00  0.00    -0.328 OA
HETATM   17  C6  UNL     1      43.057  64.446 168.376  1.00  0.00     0.349 C 
HETATM   18  N3  UNL     1      42.824  63.516 167.285  1.00  0.00    -0.016 N 
HETATM   19  C8  UNL     1      41.761  62.634 167.821  1.00  0.00     0.371 C 
ATOM     20  H32 UNL     1      42.602  63.956 166.391  1.00  0.00     0.283 HD
ATOM     21  H31 UNL     1      43.657  63.028 166.956  1.00  0.00     0.283 HD
BRANCH  17  22
HETATM   22  C7  UNL     1      44.515  64.406 168.801  1.00  0.00     0.225 C 
BRANCH  22  23
HETATM   23  O4  UNL     1      44.827  65.488 169.607  1.00  0.00    -0.397 OA
ATOM     24  H4  UNL     1      45.156  65.201 170.451  1.00  0.00     0.209 HD
ENDBRANCH  22  23
ENDBRANCH  17  22
BRANCH  19  25
HETATM   25  O5  UNL     1      40.576  63.275 167.515  1.00  0.00    -0.366 OA
ATOM     26  H5  UNL     1      39.809  62.866 167.898  1.00  0.00     0.212 HD
ENDBRANCH  19  25
ENDBRANCH   1  15
TORSDOF 7
ENDMDL
MODEL 3
REMARK VINA RESULT: -7.439864665      1.064      1.293
REMARK  7 active torsions:
REMARK  status: ('A' for Active; 'I' for Inactive)
REMARK    1  A    between atoms: N1_2  and  C1_4 
REMARK    2  A    between atoms: C4_7  and  N2_8 
REMARK    3  A    between atoms: N2_8  and  C5_10 
REMARK    4  A    between atoms: C6_12  and  C7_13 
REMARK    5  A    between atoms: C7_13  and  O4_14 
REMARK    6  A    between atoms: C8_19  and  O5_20 
REMARK    7  A    between atoms: C10_23  and  N4_24 
ROOT
HETATM    1  N2  UNL     1      39.578  59.478 176.208  1.00  0.00    -0.360 N 
ATOM      2  H2  UNL     1      38.715  59.923 175.899  1.00  0.00     0.162 HD
ENDROOT
BRANCH   1   3
HETATM    3  C4  UNL     1      40.636  59.464 175.274  1.00  0.00     0.032 A 
HETATM    4  C3  UNL     1      41.089  60.652 174.763  1.00  0.00     0.032 A 
HETATM    5  C2  UNL     1      42.099  60.721 173.861  1.00  0.00     0.041 A 
HETATM    6  C1  UNL     1      42.745  59.549 173.394  1.00  0.00     0.136 A 
HETATM    7  C10 UNL     1      42.315  58.359 173.886  1.00  0.00     0.138 A 
HETATM    8  C9  UNL     1      41.262  58.333 174.822  1.00  0.00     0.067 A 
BRANCH   6   9
HETATM    9  N1  UNL     1      43.821  59.753 172.480  1.00  0.00    -0.113 N 
HETATM   10  O1  UNL     1      43.636  60.610 171.538  1.00  0.00    -0.532 OA
HETATM   11  O2  UNL     1      45.007  59.133 172.523  1.00  0.00    -0.532 OA
ENDBRANCH   6   9
BRANCH   7  12
HETATM   12  N4  UNL     1      42.872  57.115 173.563  1.00  0.00    -0.113 N 
HETATM   13  O6  UNL     1      42.313  56.487 172.581  1.00  0.00    -0.532 OA
HETATM   14  O7  UNL     1      43.892  56.431 174.098  1.00  0.00    -0.532 OA
ENDBRANCH   7  12
ENDBRANCH   1   3
BRANCH   1  15
HETATM   15  C5  UNL     1      39.570  58.952 177.516  1.00  0.00     0.280 C 
HETATM   16  O3  UNL     1      40.697  58.217 177.884  1.00  0.00    -0.328 OA
HETATM   17  C6  UNL     1      40.357  57.790 179.163  1.00  0.00     0.349 C 
HETATM   18  N3  UNL     1      38.917  57.599 179.206  1.00  0.00    -0.016 N 
HETATM   19  C8  UNL     1      38.496  57.934 177.826  1.00  0.00     0.371 C 
ATOM     20  H32 UNL     1      38.619  56.678 179.530  1.00  0.00     0.283 HD
ATOM     21  H31 UNL     1      38.439  58.125 179.937  1.00  0.00     0.283 HD
BRANCH  17  22
HETATM   22  C7  UNL     1      40.785  58.802 180.211  1.00  0.00     0.225 C 
BRANCH  22  23
HETATM   23  O4  UNL     1      41.942  58.392 180.854  1.00  0.00    -0.397 OA
ATOM     24  H4  UNL     1      41.858  58.483 181.796  1.00  0.00     0.209 HD
ENDBRANCH  22  23
ENDBRANCH  17  22
BRANCH  19  25
HETATM   25  O5  UNL     1      38.622  56.757 177.117  1.00  0.00    -0.366 OA
ATOM     26  H5  UNL     1      37.804  56.437 176.754  1.00  0.00     0.212 HD
ENDBRANCH  19  25
ENDBRANCH   1  15
TORSDOF 7
ENDMDL
MODEL 4
REMARK VINA RESULT: -7.299434446      4.677      8.889
REMARK  7 active torsions:
REMARK  status: ('A' for Active; 'I' for Inactive)
REMARK    1  A    between atoms: N1_2  and  C1_4 
REMARK    2  A    between atoms: C4_7  and  N2_8 
REMARK    3  A    between atoms: N2_8  and  C5_10 
REMARK    4  A    between atoms: C6_12  and  C7_13 
REMARK    5  A    between atoms: C7_13  and  O4_14 
REMARK    6  A    between atoms: C8_19  and  O5_20 
REMARK    7  A    between atoms: C10_23  and  N4_24 
ROOT
HETATM    1  N2  UNL     1      42.073  61.719 168.758  1.00  0.00    -0.360 N 
ATOM      2  H2  UNL     1      42.051  61.001 168.034  1.00  0.00     0.162 HD
ENDROOT
BRANCH   1   3
HETATM    3  C4  UNL     1      42.083  61.255 170.090  1.00  0.00     0.032 A 
HETATM    4  C3  UNL     1      40.948  61.384 170.849  1.00  0.00     0.032 A 
HETATM    5  C2  UNL     1      40.880  60.965 172.136  1.00  0.00     0.041 A 
HETATM    6  C1  UNL     1      41.994  60.363 172.771  1.00  0.00     0.136 A 
HETATM    7  C10 UNL     1      43.131  60.223 172.041  1.00  0.00     0.138 A 
HETATM    8  C9  UNL     1      43.158  60.673 170.706  1.00  0.00     0.067 A 
BRANCH   6   9
HETATM    9  N1  UNL     1      41.786  59.924 174.112  1.00  0.00    -0.113 N 
HETATM   10  O1  UNL     1      41.819  60.821 175.034  1.00  0.00    -0.532 OA
HETATM   11  O2  UNL     1      41.555  58.661 174.490  1.00  0.00    -0.532 OA
ENDBRANCH   6   9
BRANCH   7  12
HETATM   12  N4  UNL     1      44.304  59.613 172.502  1.00  0.00    -0.113 N 
HETATM   13  O6  UNL     1      44.926  58.871 171.644  1.00  0.00    -0.532 OA
HETATM   14  O7  UNL     1      44.913  59.643 173.694  1.00  0.00    -0.532 OA
ENDBRANCH   7  12
ENDBRANCH   1   3
BRANCH   1  15
HETATM   15  C5  UNL     1      42.091  63.054 168.305  1.00  0.00     0.280 C 
HETATM   16  O3  UNL     1      42.669  63.265 167.054  1.00  0.00    -0.328 OA
HETATM   17  C6  UNL     1      42.598  64.650 166.934  1.00  0.00     0.349 C 
HETATM   18  N3  UNL     1      42.728  65.224 168.262  1.00  0.00    -0.016 N 
HETATM   19  C8  UNL     1      42.904  64.031 169.124  1.00  0.00     0.371 C 
ATOM     20  H32 UNL     1      43.462  65.926 168.352  1.00  0.00     0.283 HD
ATOM     21  H31 UNL     1      41.963  65.839 168.537  1.00  0.00     0.283 HD
BRANCH  17  22
HETATM   22  C7  UNL     1      41.285  65.078 166.301  1.00  0.00     0.225 C 
BRANCH  22  23
HETATM   23  O4  UNL     1      41.384  66.351 165.765  1.00  0.00    -0.397 OA
ATOM     24  H4  UNL     1      42.000  66.370 165.042  1.00  0.00     0.209 HD
ENDBRANCH  22  23
ENDBRANCH  17  22
BRANCH  19  25
HETATM   25  O5  UNL     1      44.261  63.777 169.111  1.00  0.00    -0.366 OA
ATOM     26  H5  UNL     1      44.574  63.402 168.296  1.00  0.00     0.212 HD
ENDBRANCH  19  25
ENDBRANCH   1  15
TORSDOF 7
ENDMDL
MODEL 5
REMARK VINA RESULT: -7.237613886      4.124      5.787
REMARK  7 active torsions:
REMARK  status: ('A' for Active; 'I' for Inactive)
REMARK    1  A    between atoms: N1_2  and  C1_4 
REMARK    2  A    between atoms: C4_7  and  N2_8 
REMARK    3  A    between atoms: N2_8  and  C5_10 
REMARK    4  A    between atoms: C6_12  and  C7_13 
REMARK    5  A    between atoms: C7_13  and  O4_14 
REMARK    6  A    between atoms: C8_19  and  O5_20 
REMARK    7  A    between atoms: C10_23  and  N4_24 
ROOT
HETATM    1  N2  UNL     1      39.033  61.127 172.180  1.00  0.00    -0.360 N 
ATOM      2  H2  UNL     1      38.855  61.982 172.706  1.00  0.00     0.162 HD
ENDROOT
BRANCH   1   3
HETATM    3  C4  UNL     1      40.336  60.596 172.282  1.00  0.00     0.032 A 
HETATM    4  C3  UNL     1      41.402  61.368 171.898  1.00  0.00     0.032 A 
HETATM    5  C2  UNL     1      42.683  60.929 171.965  1.00  0.00     0.041 A 
HETATM    6  C1  UNL     1      42.988  59.630 172.442  1.00  0.00     0.136 A 
HETATM    7  C10 UNL     1      41.950  58.845 172.829  1.00  0.00     0.138 A 
HETATM    8  C9  UNL     1      40.634  59.342 172.743  1.00  0.00     0.067 A 
BRANCH   6   9
HETATM    9  N1  UNL     1      44.374  59.299 172.505  1.00  0.00    -0.113 N 
HETATM   10  O1  UNL     1      44.988  59.556 173.607  1.00  0.00    -0.532 OA
HETATM   11  O2  UNL     1      45.087  58.740 171.519  1.00  0.00    -0.532 OA
ENDBRANCH   6   9
BRANCH   7  12
HETATM   12  N4  UNL     1      42.081  57.557 173.362  1.00  0.00    -0.113 N 
HETATM   13  O6  UNL     1      42.255  56.608 172.501  1.00  0.00    -0.532 OA
HETATM   14  O7  UNL     1      42.047  57.108 174.624  1.00  0.00    -0.532 OA
ENDBRANCH   7  12
ENDBRANCH   1   3
BRANCH   1  15
HETATM   15  C5  UNL     1      37.946  60.618 171.440  1.00  0.00     0.280 C 
HETATM   16  O3  UNL     1      37.936  59.237 171.243  1.00  0.00    -0.328 OA
HETATM   17  C6  UNL     1      36.811  59.070 170.442  1.00  0.00     0.349 C 
HETATM   18  N3  UNL     1      36.672  60.251 169.608  1.00  0.00    -0.016 N 
HETATM   19  C8  UNL     1      37.837  61.076 170.003  1.00  0.00     0.371 C 
ATOM     20  H32 UNL     1      36.604  60.061 168.608  1.00  0.00     0.283 HD
ATOM     21  H31 UNL     1      35.771  60.722 169.684  1.00  0.00     0.283 HD
BRANCH  17  22
HETATM   22  C7  UNL     1      35.564  58.868 171.284  1.00  0.00     0.225 C 
BRANCH  22  23
HETATM   23  O4  UNL     1      35.491  57.570 171.762  1.00  0.00    -0.397 OA
ATOM     24  H4  UNL     1      35.630  57.544 172.701  1.00  0.00     0.209 HD
ENDBRANCH  22  23
ENDBRANCH  17  22
BRANCH  19  25
HETATM   25  O5  UNL     1      38.872  60.643 169.199  1.00  0.00    -0.366 OA
ATOM     26  H5  UNL     1      39.479  61.330 168.949  1.00  0.00     0.212 HD
ENDBRANCH  19  25
ENDBRANCH   1  15
TORSDOF 7
ENDMDL
