MODEL 1
REMARK VINA RESULT: -8.475466879      0.000      0.000
REMARK  6 active torsions:
REMARK  status: ('A' for Active; 'I' for Inactive)
REMARK    1  A    between atoms: C2_3  and  C3_4 
REMARK    2  A    between atoms: N2_5  and  N3_7 
REMARK    3  A    between atoms: N3_7  and  C4_9 
REMARK    4  A    between atoms: C6_19  and  C7_20 
REMARK    5  A    between atoms: C10_26  and  N9_27 
REMARK    6  A    between atoms: N9_27  and  N10_29 
ROOT
HETATM    1  N1  UNL     1      40.538  61.943 167.886  1.00  0.00    -0.191 NA
HETATM    2  C1  UNL     1      41.436  62.600 168.252  1.00  0.00     0.101 C 
HETATM    3  C2  UNL     1      42.547  63.380 168.679  1.00  0.00     0.062 C 
HETATM    4  C6  UNL     1      43.033  63.282 169.886  1.00  0.00     0.037 C 
ENDROOT
BRANCH   3   5
HETATM    5  C3  UNL     1      43.173  64.326 167.728  1.00  0.00     0.130 C 
HETATM    6  N2  UNL     1      42.601  64.927 166.794  1.00  0.00    -0.296 N 
ATOM      7  H2  UNL     1      43.227  65.534 166.263  1.00  0.00     0.186 HD
BRANCH   6   8
HETATM    8  N3  UNL     1      41.324  64.944 166.335  1.00  0.00    -0.131 N 
ATOM      9  H3  UNL     1      40.730  64.123 166.450  1.00  0.00     0.205 HD
BRANCH   8  10
HETATM   10  C4  UNL     1      40.812  66.105 165.693  1.00  0.00     0.713 A 
HETATM   11  N4  UNL     1      41.545  67.154 165.601  1.00  0.00    -0.116 N 
HETATM   12  N5  UNL     1      41.077  68.333 164.971  1.00  0.00    -0.228 N 
ATOM     13  H4  UNL     1      42.488  67.137 165.990  1.00  0.00     0.207 HD
HETATM   14  N6  UNL     1      39.790  68.339 164.445  1.00  0.00    -0.281 N 
ATOM     15  H5  UNL     1      41.672  69.159 164.904  1.00  0.00     0.209 HD
HETATM   16  C5  UNL     1      38.986  67.175 164.553  1.00  0.00     0.216 A 
ATOM     17  H6  UNL     1      39.426  69.175 163.985  1.00  0.00     0.189 HD
HETATM   18  N7  UNL     1      39.495  66.145 165.144  1.00  0.00    -0.184 N 
ATOM     19  H7  UNL     1      38.919  65.307 165.222  1.00  0.00     0.185 HD
ENDBRANCH   8  10
ENDBRANCH   6   8
ENDBRANCH   3   5
BRANCH   4  20
HETATM   20  C7  UNL     1      42.536  62.406 170.934  1.00  0.00    -0.017 A 
HETATM   21  C8  UNL     1      41.544  62.837 171.785  1.00  0.00     0.102 A 
HETATM   22  N8  UNL     1      41.105  61.973 172.727  1.00  0.00    -0.331 N 
HETATM   23  C9  UNL     1      41.599  60.726 172.858  1.00  0.00     0.273 A 
ATOM     24  H8  UNL     1      40.369  62.277 173.364  1.00  0.00     0.168 HD
HETATM   25  O1  UNL     1      41.167  59.927 173.756  1.00  0.00    -0.266 OA
HETATM   26  C10 UNL     1      42.588  60.255 172.033  1.00  0.00     0.118 A 
HETATM   27  C11 UNL     1      43.057  61.107 171.064  1.00  0.00     0.049 A 
BRANCH  26  28
HETATM   28  N9  UNL     1      43.107  58.920 172.187  1.00  0.00    -0.281 N 
ATOM     29  H9  UNL     1      42.471  58.124 172.248  1.00  0.00     0.188 HD
BRANCH  28  30
HETATM   30  N10 UNL     1      44.472  58.725 172.253  1.00  0.00    -0.249 N 
HETATM   31  N11 UNL     1      45.062  58.265 171.240  1.00  0.00    -0.331 N 
ATOM     32 2H11 UNL     1      44.529  58.046 170.398  1.00  0.00     0.178 HD
ATOM     33 1H11 UNL     1      46.071  58.121 171.288  1.00  0.00     0.178 HD
ATOM     34  H10 UNL     1      44.991  58.949 173.102  1.00  0.00     0.207 HD
ENDBRANCH  28  30
ENDBRANCH  26  28
ENDBRANCH   4  20
TORSDOF 6
ENDMDL
MODEL 2
REMARK VINA RESULT: -8.334377710      3.257      5.666
REMARK  6 active torsions:
REMARK  status: ('A' for Active; 'I' for Inactive)
REMARK    1  A    between atoms: C2_3  and  C3_4 
REMARK    2  A    between atoms: N2_5  and  N3_7 
REMARK    3  A    between atoms: N3_7  and  C4_9 
REMARK    4  A    between atoms: C6_19  and  C7_20 
REMARK    5  A    between atoms: C10_26  and  N9_27 
REMARK    6  A    between atoms: N9_27  and  N10_29 
ROOT
HETATM    1  N1  UNL     1      41.957  57.167 172.710  1.00  0.00    -0.191 NA
HETATM    2  C1  UNL     1      42.124  58.319 172.576  1.00  0.00     0.101 C 
HETATM    3  C2  UNL     1      42.354  59.716 172.432  1.00  0.00     0.062 C 
HETATM    4  C6  UNL     1      41.660  60.600 173.096  1.00  0.00     0.037 C 
ENDROOT
BRANCH   3   5
HETATM    5  C3  UNL     1      43.411  60.181 171.507  1.00  0.00     0.130 C 
HETATM    6  N2  UNL     1      43.239  60.752 170.409  1.00  0.00    -0.296 N 
ATOM      7  H2  UNL     1      44.113  60.987 169.937  1.00  0.00     0.186 HD
BRANCH   6   8
HETATM    8  N3  UNL     1      42.137  61.126 169.711  1.00  0.00    -0.131 N 
ATOM      9  H3  UNL     1      41.283  60.572 169.773  1.00  0.00     0.205 HD
BRANCH   8  10
HETATM   10  C4  UNL     1      42.170  62.289 168.894  1.00  0.00     0.713 A 
HETATM   11  N4  UNL     1      41.226  62.499 168.051  1.00  0.00    -0.116 N 
HETATM   12  N5  UNL     1      41.218  63.643 167.216  1.00  0.00    -0.228 N 
ATOM     13  H4  UNL     1      40.464  61.825 167.980  1.00  0.00     0.207 HD
HETATM   14  N6  UNL     1      42.264  64.552 167.324  1.00  0.00    -0.281 N 
ATOM     15  H5  UNL     1      40.460  63.797 166.551  1.00  0.00     0.209 HD
HETATM   16  C5  UNL     1      43.305  64.311 168.259  1.00  0.00     0.216 A 
ATOM     17  H6  UNL     1      42.284  65.386 166.736  1.00  0.00     0.189 HD
HETATM   18  N7  UNL     1      43.230  63.242 168.979  1.00  0.00    -0.184 N 
ATOM     19  H7  UNL     1      43.976  63.067 169.652  1.00  0.00     0.185 HD
ENDBRANCH   8  10
ENDBRANCH   6   8
ENDBRANCH   3   5
BRANCH   4  20
HETATM   20  C7  UNL     1      40.592  60.309 174.038  1.00  0.00    -0.017 A 
HETATM   21  C8  UNL     1      39.278  60.358 173.631  1.00  0.00     0.102 A 
HETATM   22  N8  UNL     1      38.327  60.057 174.544  1.00  0.00    -0.331 N 
HETATM   23  C9  UNL     1      38.619  59.718 175.815  1.00  0.00     0.273 A 
ATOM     24  H8  UNL     1      37.349  60.087 174.258  1.00  0.00     0.168 HD
HETATM   25  O1  UNL     1      37.703  59.437 176.658  1.00  0.00    -0.266 OA
HETATM   26  C10 UNL     1      39.914  59.658 176.263  1.00  0.00     0.118 A 
HETATM   27  C11 UNL     1      40.906  59.957 175.362  1.00  0.00     0.049 A 
BRANCH  26  28
HETATM   28  N9  UNL     1      40.209  59.297 177.626  1.00  0.00    -0.281 N 
ATOM     29  H9  UNL     1      40.541  58.358 177.849  1.00  0.00     0.188 HD
BRANCH  28  30
HETATM   30  N10 UNL     1      40.040  60.231 178.628  1.00  0.00    -0.249 N 
HETATM   31  N11 UNL     1      40.821  60.199 179.616  1.00  0.00    -0.331 N 
ATOM     32 2H11 UNL     1      41.556  59.493 179.660  1.00  0.00     0.178 HD
ATOM     33 1H11 UNL     1      40.696  60.890 180.357  1.00  0.00     0.178 HD
ATOM     34  H10 UNL     1      39.300  60.930 178.570  1.00  0.00     0.207 HD
ENDBRANCH  28  30
ENDBRANCH  26  28
ENDBRANCH   4  20
TORSDOF 6
ENDMDL
MODEL 3
REMARK VINA RESULT: -8.173573420      4.235      7.271
REMARK  6 active torsions:
REMARK  status: ('A' for Active; 'I' for Inactive)
REMARK    1  A    between atoms: C2_3  and  C3_4 
REMARK    2  A    between atoms: N2_5  and  N3_7 
REMARK    3  A    between atoms: N3_7  and  C4_9 
REMARK    4  A    between atoms: C6_19  and  C7_20 
REMARK    5  A    between atoms: C10_26  and  N9_27 
REMARK    6  A    between atoms: N9_27  and  N10_29 
ROOT
HETATM    1  N1  UNL     1      41.066  61.443 168.566  1.00  0.00    -0.191 NA
HETATM    2  C1  UNL     1      40.223  61.350 169.375  1.00  0.00     0.101 C 
HETATM    3  C2  UNL     1      39.195  61.270 170.355  1.00  0.00     0.062 C 
HETATM    4  C6  UNL     1      39.462  61.079 171.619  1.00  0.00     0.037 C 
ENDROOT
BRANCH   3   5
HETATM    5  C3  UNL     1      37.783  61.409 169.934  1.00  0.00     0.130 C 
HETATM    6  N2  UNL     1      36.963  60.481 169.766  1.00  0.00    -0.296 N 
ATOM      7  H2  UNL     1      36.041  60.807 169.475  1.00  0.00     0.186 HD
BRANCH   6   8
HETATM    8  N3  UNL     1      37.038  59.132 169.890  1.00  0.00    -0.131 N 
ATOM      9  H3  UNL     1      37.667  58.600 169.288  1.00  0.00     0.205 HD
BRANCH   8  10
HETATM   10  C4  UNL     1      36.243  58.458 170.858  1.00  0.00     0.713 A 
HETATM   11  N4  UNL     1      36.167  57.178 170.835  1.00  0.00    -0.116 N 
HETATM   12  N5  UNL     1      35.388  56.465 171.778  1.00  0.00    -0.228 N 
ATOM     13  H4  UNL     1      36.680  56.661 170.121  1.00  0.00     0.207 HD
HETATM   14  N6  UNL     1      34.693  57.183 172.746  1.00  0.00    -0.281 N 
ATOM     15  H5  UNL     1      35.337  55.446 171.749  1.00  0.00     0.209 HD
HETATM   16  C5  UNL     1      34.783  58.600 172.762  1.00  0.00     0.216 A 
ATOM     17  H6  UNL     1      34.124  56.696 173.439  1.00  0.00     0.189 HD
HETATM   18  N7  UNL     1      35.518  59.165 171.863  1.00  0.00    -0.184 N 
ATOM     19  H7  UNL     1      35.585  60.183 171.873  1.00  0.00     0.185 HD
ENDBRANCH   8  10
ENDBRANCH   6   8
ENDBRANCH   3   5
BRANCH   4  20
HETATM   20  C7  UNL     1      40.788  60.923 172.193  1.00  0.00    -0.017 A 
HETATM   21  C8  UNL     1      41.469  62.019 172.673  1.00  0.00     0.102 A 
HETATM   22  N8  UNL     1      42.689  61.813 173.215  1.00  0.00    -0.331 N 
HETATM   23  C9  UNL     1      43.252  60.591 173.300  1.00  0.00     0.273 A 
ATOM     24  H8  UNL     1      43.206  62.615 173.576  1.00  0.00     0.168 HD
HETATM   25  O1  UNL     1      44.406  60.422 173.818  1.00  0.00    -0.266 OA
HETATM   26  C10 UNL     1      42.610  59.472 172.834  1.00  0.00     0.118 A 
HETATM   27  C11 UNL     1      41.367  59.645 172.277  1.00  0.00     0.049 A 
BRANCH  26  28
HETATM   28  N9  UNL     1      43.225  58.172 172.929  1.00  0.00    -0.281 N 
ATOM     29  H9  UNL     1      43.083  57.595 173.759  1.00  0.00     0.188 HD
BRANCH  28  30
HETATM   30  N10 UNL     1      44.009  57.714 171.890  1.00  0.00    -0.249 N 
HETATM   31  N11 UNL     1      44.930  58.459 171.459  1.00  0.00    -0.331 N 
ATOM     32 2H11 UNL     1      45.079  59.375 171.880  1.00  0.00     0.178 HD
ATOM     33 1H11 UNL     1      45.509  58.120 170.691  1.00  0.00     0.178 HD
ATOM     34  H10 UNL     1      43.846  56.795 171.480  1.00  0.00     0.207 HD
ENDBRANCH  28  30
ENDBRANCH  26  28
ENDBRANCH   4  20
TORSDOF 6
ENDMDL
MODEL 4
REMARK VINA RESULT: -8.017328238      3.413      8.960
REMARK  6 active torsions:
REMARK  status: ('A' for Active; 'I' for Inactive)
REMARK    1  A    between atoms: C2_3  and  C3_4 
REMARK    2  A    between atoms: N2_5  and  N3_7 
REMARK    3  A    between atoms: N3_7  and  C4_9 
REMARK    4  A    between atoms: C6_19  and  C7_20 
REMARK    5  A    between atoms: C10_26  and  N9_27 
REMARK    6  A    between atoms: N9_27  and  N10_29 
ROOT
HETATM    1  N1  UNL     1      44.201  59.499 171.571  1.00  0.00    -0.191 NA
HETATM    2  C1  UNL     1      43.499  60.189 172.207  1.00  0.00     0.101 C 
HETATM    3  C2  UNL     1      42.628  61.001 172.987  1.00  0.00     0.062 C 
HETATM    4  C6  UNL     1      41.759  61.804 172.437  1.00  0.00     0.037 C 
ENDROOT
BRANCH   3   5
HETATM    5  C3  UNL     1      42.707  60.932 174.463  1.00  0.00     0.130 C 
HETATM    6  N2  UNL     1      41.912  60.338 175.222  1.00  0.00    -0.296 N 
ATOM      7  H2  UNL     1      42.160  60.420 176.209  1.00  0.00     0.186 HD
BRANCH   6   8
HETATM    8  N3  UNL     1      40.788  59.605 175.013  1.00  0.00    -0.131 N 
ATOM      9  H3  UNL     1      40.710  59.020 174.182  1.00  0.00     0.205 HD
BRANCH   8  10
HETATM   10  C4  UNL     1      39.721  59.653 175.951  1.00  0.00     0.713 A 
HETATM   11  N4  UNL     1      39.981  59.692 177.207  1.00  0.00    -0.116 N 
HETATM   12  N5  UNL     1      38.950  59.741 178.176  1.00  0.00    -0.228 N 
ATOM     13  H4  UNL     1      40.954  59.688 177.513  1.00  0.00     0.207 HD
HETATM   14  N6  UNL     1      37.629  59.746 177.743  1.00  0.00    -0.281 N 
ATOM     15  H5  UNL     1      39.173  59.772 179.172  1.00  0.00     0.209 HD
HETATM   16  C5  UNL     1      37.351  59.702 176.351  1.00  0.00     0.216 A 
ATOM     17  H6  UNL     1      36.866  59.781 178.419  1.00  0.00     0.189 HD
HETATM   18  N7  UNL     1      38.354  59.659 175.539  1.00  0.00    -0.184 N 
ATOM     19  H7  UNL     1      38.157  59.628 174.539  1.00  0.00     0.185 HD
ENDBRANCH   8  10
ENDBRANCH   6   8
ENDBRANCH   3   5
BRANCH   4  20
HETATM   20  C7  UNL     1      41.556  61.988 171.009  1.00  0.00    -0.017 A 
HETATM   21  C8  UNL     1      40.526  61.341 170.366  1.00  0.00     0.102 A 
HETATM   22  N8  UNL     1      40.372  61.566 169.043  1.00  0.00    -0.331 N 
HETATM   23  C9  UNL     1      41.180  62.388 168.344  1.00  0.00     0.273 A 
ATOM     24  H8  UNL     1      39.612  61.094 168.552  1.00  0.00     0.168 HD
HETATM   25  O1  UNL     1      41.012  62.585 167.094  1.00  0.00    -0.266 OA
HETATM   26  C10 UNL     1      42.218  63.053 168.944  1.00  0.00     0.118 A 
HETATM   27  C11 UNL     1      42.404  62.848 170.289  1.00  0.00     0.049 A 
BRANCH  26  28
HETATM   28  N9  UNL     1      43.075  63.927 168.183  1.00  0.00    -0.281 N 
ATOM     29  H9  UNL     1      44.052  63.677 168.022  1.00  0.00     0.188 HD
BRANCH  28  30
HETATM   30  N10 UNL     1      42.566  65.104 167.675  1.00  0.00    -0.249 N 
HETATM   31  N11 UNL     1      42.195  65.127 166.471  1.00  0.00    -0.331 N 
ATOM     32 2H11 UNL     1      42.277  64.287 165.899  1.00  0.00     0.178 HD
ATOM     33 1H11 UNL     1      41.818  65.997 166.096  1.00  0.00     0.178 HD
ATOM     34  H10 UNL     1      42.491  65.936 168.260  1.00  0.00     0.207 HD
ENDBRANCH  28  30
ENDBRANCH  26  28
ENDBRANCH   4  20
TORSDOF 6
ENDMDL
MODEL 5
REMARK VINA RESULT: -7.987099065      4.372      7.316
REMARK  6 active torsions:
REMARK  status: ('A' for Active; 'I' for Inactive)
REMARK    1  A    between atoms: C2_3  and  C3_4 
REMARK    2  A    between atoms: N2_5  and  N3_7 
REMARK    3  A    between atoms: N3_7  and  C4_9 
REMARK    4  A    between atoms: C6_19  and  C7_20 
REMARK    5  A    between atoms: C10_26  and  N9_27 
REMARK    6  A    between atoms: N9_27  and  N10_29 
ROOT
HETATM    1  N1  UNL     1      41.062  61.346 168.650  1.00  0.00    -0.191 NA
HETATM    2  C1  UNL     1      40.324  61.290 169.559  1.00  0.00     0.101 C 
HETATM    3  C2  UNL     1      39.427  61.255 170.662  1.00  0.00     0.062 C 
HETATM    4  C6  UNL     1      39.826  60.938 171.864  1.00  0.00     0.037 C 
ENDROOT
BRANCH   3   5
HETATM    5  C3  UNL     1      38.002  61.589 170.445  1.00  0.00     0.130 C 
HETATM    6  N2  UNL     1      37.084  60.786 170.174  1.00  0.00    -0.296 N 
ATOM      7  H2  UNL     1      36.174  61.236 170.067  1.00  0.00     0.186 HD
BRANCH   6   8
HETATM    8  N3  UNL     1      37.039  59.442 169.991  1.00  0.00    -0.131 N 
ATOM      9  H3  UNL     1      37.576  59.012 169.238  1.00  0.00     0.205 HD
BRANCH   8  10
HETATM   10  C4  UNL     1      36.246  58.631 170.849  1.00  0.00     0.713 A 
HETATM   11  N4  UNL     1      36.306  57.353 170.747  1.00  0.00    -0.116 N 
HETATM   12  N5  UNL     1      35.535  56.506 171.580  1.00  0.00    -0.228 N 
ATOM     13  H4  UNL     1      36.923  56.938 170.050  1.00  0.00     0.207 HD
HETATM   14  N6  UNL     1      34.697  57.087 172.526  1.00  0.00    -0.281 N 
ATOM     15  H5  UNL     1      35.592  55.492 171.488  1.00  0.00     0.209 HD
HETATM   16  C5  UNL     1      34.638  58.502 172.631  1.00  0.00     0.216 A 
ATOM     17  H6  UNL     1      34.130  56.502 173.140  1.00  0.00     0.189 HD
HETATM   18  N7  UNL     1      35.377  59.195 171.830  1.00  0.00    -0.184 N 
ATOM     19  H7  UNL     1      35.337  60.212 171.904  1.00  0.00     0.185 HD
ENDBRANCH   8  10
ENDBRANCH   6   8
ENDBRANCH   3   5
BRANCH   4  20
HETATM   20  C7  UNL     1      41.185  60.586 172.243  1.00  0.00    -0.017 A 
HETATM   21  C8  UNL     1      42.061  61.560 172.664  1.00  0.00     0.102 A 
HETATM   22  N8  UNL     1      43.305  61.172 173.025  1.00  0.00    -0.331 N 
HETATM   23  C9  UNL     1      43.707  59.886 172.985  1.00  0.00     0.273 A 
ATOM     24  H8  UNL     1      43.966  61.882 173.340  1.00  0.00     0.168 HD
HETATM   25  O1  UNL     1      44.887  59.545 173.332  1.00  0.00    -0.266 OA
HETATM   26  C10 UNL     1      42.868  58.884 172.572  1.00  0.00     0.118 A 
HETATM   27  C11 UNL     1      41.596  59.242 172.199  1.00  0.00     0.049 A 
BRANCH  26  28
HETATM   28  N9  UNL     1      43.313  57.514 172.533  1.00  0.00    -0.281 N 
ATOM     29  H9  UNL     1      43.282  56.988 171.659  1.00  0.00     0.188 HD
BRANCH  28  30
HETATM   30  N10 UNL     1      43.782  56.920 173.686  1.00  0.00    -0.249 N 
HETATM   31  N11 UNL     1      42.969  56.283 174.407  1.00  0.00    -0.331 N 
ATOM     32 2H11 UNL     1      41.990  56.217 174.130  1.00  0.00     0.178 HD
ATOM     33 1H11 UNL     1      43.316  55.843 175.259  1.00  0.00     0.178 HD
ATOM     34  H10 UNL     1      44.765  56.995 173.949  1.00  0.00     0.207 HD
ENDBRANCH  28  30
ENDBRANCH  26  28
ENDBRANCH   4  20
TORSDOF 6
ENDMDL
