MODEL 1
REMARK VINA RESULT: -6.281612569      0.000      0.000
REMARK  10 active torsions:
REMARK  status: ('A' for Active; 'I' for Inactive)
REMARK    1  A    between atoms: N1_1  and  C1_5 
REMARK    2  A    between atoms: C1_5  and  O1_6 
REMARK    3  A    between atoms: O1_6  and  C2_7 
REMARK       I    between atoms: C2_7  and  N2_9 
REMARK    4  A    between atoms: N2_9  and  N3_10 
REMARK    5  A    between atoms: N2_9  and  C3_14 
REMARK    6  A    between atoms: N3_10  and  O3_12 
REMARK    7  A    between atoms: C4_16  and  C5_17 
REMARK    8  A    between atoms: C5_17  and  S1_18 
REMARK    9  A    between atoms: C6_20  and  O5_21 
REMARK   10  A    between atoms: C7_23  and  O6_24 
ROOT
HETATM    1  C2  UNL     1      42.354  58.494 173.682  1.00  0.00     0.387 C 
HETATM    2  O2  UNL     1      42.577  57.277 173.972  1.00  0.00    -0.236 OA
HETATM    3  N2  UNL     1      43.078  59.152 172.654  1.00  0.00    -0.184 N 
ENDROOT
BRANCH   3   4
HETATM    4  N3  UNL     1      44.047  58.432 171.965  1.00  0.00    -0.201 N 
ATOM      5  H3  UNL     1      43.762  57.561 171.518  1.00  0.00     0.216 HD
BRANCH   4   6
HETATM    6  O3  UNL     1      45.234  58.777 171.854  1.00  0.00    -0.274 OA
ATOM      7  H3  UNL     1      45.735  59.215 172.533  1.00  0.00     0.246 HD
ENDBRANCH   4   6
ENDBRANCH   3   4
BRANCH   3   8
HETATM    8  C3  UNL     1      42.789  60.502 172.372  1.00  0.00     0.283 C 
HETATM    9  O4  UNL     1      43.561  61.047 171.326  1.00  0.00    -0.353 OA
HETATM   10  C4  UNL     1      43.047  62.344 171.210  1.00  0.00     0.165 C 
HETATM   11  C6  UNL     1      41.565  62.220 171.443  1.00  0.00     0.181 C 
HETATM   12  C7  UNL     1      41.414  60.761 171.818  1.00  0.00     0.200 C 
BRANCH  10  13
HETATM   13  C5  UNL     1      43.316  62.933 169.858  1.00  0.00     0.121 C 
BRANCH  13  14
HETATM   14  S1  UNL     1      41.996  62.861 168.690  1.00  0.00    -0.083 SA
HETATM   15  S2  UNL     1      41.990  64.170 167.111  1.00  0.00    -0.013 SA
ENDBRANCH  13  14
ENDBRANCH  10  13
BRANCH  11  16
HETATM   16  O5  UNL     1      41.226  62.983 172.548  1.00  0.00    -0.390 OA
ATOM     17  H5  UNL     1      40.312  63.232 172.476  1.00  0.00     0.210 HD
ENDBRANCH  11  16
BRANCH  12  18
HETATM   18  O6  UNL     1      41.283  59.992 170.662  1.00  0.00    -0.388 OA
ATOM     19  H6  UNL     1      40.993  60.573 169.969  1.00  0.00     0.210 HD
ENDBRANCH  12  18
ENDBRANCH   3   8
BRANCH   1  20
HETATM   20  O1  UNL     1      41.373  59.123 174.425  1.00  0.00    -0.275 OA
BRANCH  20  21
HETATM   21  C1  UNL     1      40.816  58.565 175.595  1.00  0.00     0.409 C 
BRANCH  21  22
HETATM   22  N1  UNL     1      40.472  59.706 176.458  1.00  0.00    -0.058 N 
ATOM     23  H13 UNL     1      41.237  60.370 176.580  1.00  0.00     0.276 HD
ATOM     24  H12 UNL     1      39.813  60.357 176.030  1.00  0.00     0.276 HD
ATOM     25  H11 UNL     1      40.138  59.301 177.332  1.00  0.00     0.276 HD
ENDBRANCH  21  22
ENDBRANCH  20  21
ENDBRANCH   1  20
TORSDOF 10
ENDMDL
MODEL 2
REMARK VINA RESULT: -6.182312375      1.952      2.230
REMARK  10 active torsions:
REMARK  status: ('A' for Active; 'I' for Inactive)
REMARK    1  A    between atoms: N1_1  and  C1_5 
REMARK    2  A    between atoms: C1_5  and  O1_6 
REMARK    3  A    between atoms: O1_6  and  C2_7 
REMARK       I    between atoms: C2_7  and  N2_9 
REMARK    4  A    between atoms: N2_9  and  N3_10 
REMARK    5  A    between atoms: N2_9  and  C3_14 
REMARK    6  A    between atoms: N3_10  and  O3_12 
REMARK    7  A    between atoms: C4_16  and  C5_17 
REMARK    8  A    between atoms: C5_17  and  S1_18 
REMARK    9  A    between atoms: C6_20  and  O5_21 
REMARK   10  A    between atoms: C7_23  and  O6_24 
ROOT
HETATM    1  C2  UNL     1      43.067  57.001 173.914  1.00  0.00     0.387 C 
HETATM    2  O2  UNL     1      43.777  55.966 173.720  1.00  0.00    -0.236 OA
HETATM    3  N2  UNL     1      43.273  58.187 173.162  1.00  0.00    -0.184 N 
ENDROOT
BRANCH   3   4
HETATM    4  N3  UNL     1      44.277  58.194 172.201  1.00  0.00    -0.201 N 
ATOM      5  H3  UNL     1      44.269  57.452 171.501  1.00  0.00     0.216 HD
BRANCH   4   6
HETATM    6  O3  UNL     1      45.182  59.041 172.133  1.00  0.00    -0.274 OA
ATOM      7  H3  UNL     1      46.030  58.894 171.732  1.00  0.00     0.246 HD
ENDBRANCH   4   6
ENDBRANCH   3   4
BRANCH   3   8
HETATM    8  C3  UNL     1      42.455  59.307 173.415  1.00  0.00     0.283 C 
HETATM    9  O4  UNL     1      42.897  60.492 172.794  1.00  0.00    -0.353 OA
HETATM   10  C4  UNL     1      41.903  61.412 173.146  1.00  0.00     0.165 C 
HETATM   11  C6  UNL     1      40.606  60.648 173.108  1.00  0.00     0.181 C 
HETATM   12  C7  UNL     1      41.068  59.233 172.835  1.00  0.00     0.200 C 
BRANCH  10  13
HETATM   13  C5  UNL     1      41.853  62.573 172.198  1.00  0.00     0.121 C 
BRANCH  13  14
HETATM   14  S1  UNL     1      42.711  62.380 170.670  1.00  0.00    -0.083 SA
HETATM   15  S2  UNL     1      41.683  61.707 169.027  1.00  0.00    -0.013 SA
ENDBRANCH  13  14
ENDBRANCH  10  13
BRANCH  11  16
HETATM   16  O5  UNL     1      40.039  60.677 174.372  1.00  0.00    -0.390 OA
ATOM     17  H5  UNL     1      39.155  61.017 174.299  1.00  0.00     0.210 HD
ENDBRANCH  11  16
BRANCH  12  18
HETATM   18  O6  UNL     1      41.206  59.042 171.461  1.00  0.00    -0.388 OA
ATOM     19  H6  UNL     1      40.448  59.436 171.045  1.00  0.00     0.210 HD
ENDBRANCH  12  18
ENDBRANCH   3   8
BRANCH   1  20
HETATM   20  O1  UNL     1      42.097  56.896 174.891  1.00  0.00    -0.275 OA
BRANCH  20  21
HETATM   21  C1  UNL     1      42.125  55.911 175.902  1.00  0.00     0.409 C 
BRANCH  21  22
HETATM   22  N1  UNL     1      41.010  56.233 176.805  1.00  0.00    -0.058 N 
ATOM     23  H13 UNL     1      41.183  57.049 177.392  1.00  0.00     0.276 HD
ATOM     24  H12 UNL     1      40.188  56.601 176.325  1.00  0.00     0.276 HD
ATOM     25  H11 UNL     1      40.826  55.380 177.334  1.00  0.00     0.276 HD
ENDBRANCH  21  22
ENDBRANCH  20  21
ENDBRANCH   1  20
TORSDOF 10
ENDMDL
MODEL 3
REMARK VINA RESULT: -6.050708801      4.101      6.159
REMARK  10 active torsions:
REMARK  status: ('A' for Active; 'I' for Inactive)
REMARK    1  A    between atoms: N1_1  and  C1_5 
REMARK    2  A    between atoms: C1_5  and  O1_6 
REMARK    3  A    between atoms: O1_6  and  C2_7 
REMARK       I    between atoms: C2_7  and  N2_9 
REMARK    4  A    between atoms: N2_9  and  N3_10 
REMARK    5  A    between atoms: N2_9  and  C3_14 
REMARK    6  A    between atoms: N3_10  and  O3_12 
REMARK    7  A    between atoms: C4_16  and  C5_17 
REMARK    8  A    between atoms: C5_17  and  S1_18 
REMARK    9  A    between atoms: C6_20  and  O5_21 
REMARK   10  A    between atoms: C7_23  and  O6_24 
ROOT
HETATM    1  C2  UNL     1      41.916  62.212 169.281  1.00  0.00     0.387 C 
HETATM    2  O2  UNL     1      41.870  62.180 168.013  1.00  0.00    -0.236 OA
HETATM    3  N2  UNL     1      41.191  61.281 170.069  1.00  0.00    -0.184 N 
ENDROOT
BRANCH   3   4
HETATM    4  N3  UNL     1      40.420  60.325 169.419  1.00  0.00    -0.201 N 
ATOM      5  H3  UNL     1      40.446  59.370 169.778  1.00  0.00     0.216 HD
BRANCH   4   6
HETATM    6  O3  UNL     1      39.701  60.551 168.432  1.00  0.00    -0.274 OA
ATOM      7  H3  UNL     1      39.191  59.893 167.975  1.00  0.00     0.246 HD
ENDBRANCH   4   6
ENDBRANCH   3   4
BRANCH   3   8
HETATM    8  C3  UNL     1      41.279  61.359 171.474  1.00  0.00     0.283 C 
HETATM    9  O4  UNL     1      40.108  60.954 172.146  1.00  0.00    -0.353 OA
HETATM   10  C4  UNL     1      40.473  61.066 173.492  1.00  0.00     0.165 C 
HETATM   11  C6  UNL     1      41.911  60.625 173.565  1.00  0.00     0.181 C 
HETATM   12  C7  UNL     1      42.262  60.412 172.108  1.00  0.00     0.200 C 
BRANCH  10  13
HETATM   13  C5  UNL     1      39.619  60.209 174.377  1.00  0.00     0.121 C 
BRANCH  13  14
HETATM   14  S1  UNL     1      40.460  59.236 175.583  1.00  0.00    -0.083 SA
HETATM   15  S2  UNL     1      39.714  59.151 177.492  1.00  0.00    -0.013 SA
ENDBRANCH  13  14
ENDBRANCH  10  13
BRANCH  11  16
HETATM   16  O5  UNL     1      42.673  61.680 174.039  1.00  0.00    -0.390 OA
ATOM     17  H5  UNL     1      43.417  61.801 173.460  1.00  0.00     0.210 HD
ENDBRANCH  11  16
BRANCH  12  18
HETATM   18  O6  UNL     1      41.899  59.122 171.722  1.00  0.00    -0.388 OA
ATOM     19  H6  UNL     1      42.627  58.550 171.935  1.00  0.00     0.210 HD
ENDBRANCH  12  18
ENDBRANCH   3   8
BRANCH   1  20
HETATM   20  O1  UNL     1      42.709  63.200 169.834  1.00  0.00    -0.275 OA
BRANCH  20  21
HETATM   21  C1  UNL     1      43.631  63.957 169.081  1.00  0.00     0.409 C 
BRANCH  21  22
HETATM   22  N1  UNL     1      42.847  65.031 168.451  1.00  0.00    -0.058 N 
ATOM     23  H13 UNL     1      42.026  64.694 167.947  1.00  0.00     0.276 HD
ATOM     24  H12 UNL     1      42.348  65.618 169.119  1.00  0.00     0.276 HD
ATOM     25  H11 UNL     1      43.503  65.546 167.864  1.00  0.00     0.276 HD
ENDBRANCH  21  22
ENDBRANCH  20  21
ENDBRANCH   1  20
TORSDOF 10
ENDMDL
MODEL 4
REMARK VINA RESULT: -6.033793219      3.797      5.997
REMARK  10 active torsions:
REMARK  status: ('A' for Active; 'I' for Inactive)
REMARK    1  A    between atoms: N1_1  and  C1_5 
REMARK    2  A    between atoms: C1_5  and  O1_6 
REMARK    3  A    between atoms: O1_6  and  C2_7 
REMARK       I    between atoms: C2_7  and  N2_9 
REMARK    4  A    between atoms: N2_9  and  N3_10 
REMARK    5  A    between atoms: N2_9  and  C3_14 
REMARK    6  A    between atoms: N3_10  and  O3_12 
REMARK    7  A    between atoms: C4_16  and  C5_17 
REMARK    8  A    between atoms: C5_17  and  S1_18 
REMARK    9  A    between atoms: C6_20  and  O5_21 
REMARK   10  A    between atoms: C7_23  and  O6_24 
ROOT
HETATM    1  C2  UNL     1      41.970  62.471 169.150  1.00  0.00     0.387 C 
HETATM    2  O2  UNL     1      41.834  62.583 167.892  1.00  0.00    -0.236 OA
HETATM    3  N2  UNL     1      41.384  61.392 169.861  1.00  0.00    -0.184 N 
ENDROOT
BRANCH   3   4
HETATM    4  N3  UNL     1      40.652  60.450 169.147  1.00  0.00    -0.201 N 
ATOM      5  H3  UNL     1      40.914  59.470 169.249  1.00  0.00     0.216 HD
BRANCH   4   6
HETATM    6  O3  UNL     1      39.702  60.719 168.395  1.00  0.00    -0.274 OA
ATOM      7  H3  UNL     1      39.121  60.075 168.009  1.00  0.00     0.246 HD
ENDBRANCH   4   6
ENDBRANCH   3   4
BRANCH   3   8
HETATM    8  C3  UNL     1      41.567  61.314 171.257  1.00  0.00     0.283 C 
HETATM    9  O4  UNL     1      41.106  60.111 171.829  1.00  0.00    -0.353 OA
HETATM   10  C4  UNL     1      41.453  60.261 173.176  1.00  0.00     0.165 C 
HETATM   11  C6  UNL     1      42.785  60.964 173.181  1.00  0.00     0.181 C 
HETATM   12  C7  UNL     1      43.000  61.267 171.714  1.00  0.00     0.200 C 
BRANCH  10  13
HETATM   13  C5  UNL     1      41.558  58.940 173.877  1.00  0.00     0.121 C 
BRANCH  13  14
HETATM   14  S1  UNL     1      42.297  57.621 172.970  1.00  0.00    -0.083 SA
HETATM   15  S2  UNL     1      43.391  56.208 173.977  1.00  0.00    -0.013 SA
ENDBRANCH  13  14
ENDBRANCH  10  13
BRANCH  11  16
HETATM   16  O5  UNL     1      42.646  62.168 173.852  1.00  0.00    -0.390 OA
ATOM     17  H5  UNL     1      42.935  62.869 173.279  1.00  0.00     0.210 HD
ENDBRANCH  11  16
BRANCH  12  18
HETATM   18  O6  UNL     1      43.595  60.171 171.091  1.00  0.00    -0.388 OA
ATOM     19  H6  UNL     1      44.349  60.495 170.612  1.00  0.00     0.210 HD
ENDBRANCH  12  18
ENDBRANCH   3   8
BRANCH   1  20
HETATM   20  O1  UNL     1      42.713  63.457 169.769  1.00  0.00    -0.275 OA
BRANCH  20  21
HETATM   21  C1  UNL     1      43.781  64.129 169.136  1.00  0.00     0.409 C 
BRANCH  21  22
HETATM   22  N1  UNL     1      43.186  65.314 168.500  1.00  0.00    -0.058 N 
ATOM     23  H13 UNL     1      43.203  65.282 167.480  1.00  0.00     0.276 HD
ATOM     24  H12 UNL     1      42.173  65.369 168.603  1.00  0.00     0.276 HD
ATOM     25  H11 UNL     1      43.681  66.116 168.891  1.00  0.00     0.276 HD
ENDBRANCH  21  22
ENDBRANCH  20  21
ENDBRANCH   1  20
TORSDOF 10
ENDMDL
MODEL 5
REMARK VINA RESULT: -6.024898809      1.278      1.361
REMARK  10 active torsions:
REMARK  status: ('A' for Active; 'I' for Inactive)
REMARK    1  A    between atoms: N1_1  and  C1_5 
REMARK    2  A    between atoms: C1_5  and  O1_6 
REMARK    3  A    between atoms: O1_6  and  C2_7 
REMARK       I    between atoms: C2_7  and  N2_9 
REMARK    4  A    between atoms: N2_9  and  N3_10 
REMARK    5  A    between atoms: N2_9  and  C3_14 
REMARK    6  A    between atoms: N3_10  and  O3_12 
REMARK    7  A    between atoms: C4_16  and  C5_17 
REMARK    8  A    between atoms: C5_17  and  S1_18 
REMARK    9  A    between atoms: C6_20  and  O5_21 
REMARK   10  A    between atoms: C7_23  and  O6_24 
ROOT
HETATM    1  C2  UNL     1      41.548  58.861 174.777  1.00  0.00     0.387 C 
HETATM    2  O2  UNL     1      41.693  57.710 175.293  1.00  0.00    -0.236 OA
HETATM    3  N2  UNL     1      42.054  59.159 173.486  1.00  0.00    -0.184 N 
ENDROOT
BRANCH   3   4
HETATM    4  N3  UNL     1      42.718  58.156 172.789  1.00  0.00    -0.201 N 
ATOM      5  H3  UNL     1      43.734  58.216 172.725  1.00  0.00     0.216 HD
BRANCH   4   6
HETATM    6  O3  UNL     1      42.161  57.193 172.238  1.00  0.00    -0.274 OA
ATOM      7  H3  UNL     1      42.154  56.307 172.580  1.00  0.00     0.246 HD
ENDBRANCH   4   6
ENDBRANCH   3   4
BRANCH   3   8
HETATM    8  C3  UNL     1      41.865  60.453 172.959  1.00  0.00     0.283 C 
HETATM    9  O4  UNL     1      42.885  60.869 172.080  1.00  0.00    -0.353 OA
HETATM   10  C4  UNL     1      42.435  62.127 171.663  1.00  0.00     0.165 C 
HETATM   11  C6  UNL     1      40.941  62.004 171.527  1.00  0.00     0.181 C 
HETATM   12  C7  UNL     1      40.680  60.606 172.044  1.00  0.00     0.200 C 
BRANCH  10  13
HETATM   13  C5  UNL     1      43.047  62.535 170.357  1.00  0.00     0.121 C 
BRANCH  13  14
HETATM   14  S1  UNL     1      41.986  62.514 168.948  1.00  0.00    -0.083 SA
HETATM   15  S2  UNL     1      42.195  63.971 167.520  1.00  0.00    -0.013 SA
ENDBRANCH  13  14
ENDBRANCH  10  13
BRANCH  11  16
HETATM   16  O5  UNL     1      40.342  62.901 172.396  1.00  0.00    -0.390 OA
ATOM     17  H5  UNL     1      40.297  63.750 171.971  1.00  0.00     0.210 HD
ENDBRANCH  11  16
BRANCH  12  18
HETATM   18  O6  UNL     1      40.837  59.685 171.008  1.00  0.00    -0.388 OA
ATOM     19  H6  UNL     1      40.612  58.830 171.356  1.00  0.00     0.210 HD
ENDBRANCH  12  18
ENDBRANCH   3   8
BRANCH   1  20
HETATM   20  O1  UNL     1      40.876  59.790 175.548  1.00  0.00    -0.275 OA
BRANCH  20  21
HETATM   21  C1  UNL     1      39.771  59.460 176.362  1.00  0.00     0.409 C 
BRANCH  21  22
HETATM   22  N1  UNL     1      40.302  59.346 177.729  1.00  0.00    -0.058 N 
ATOM     23  H13 UNL     1      41.129  58.752 177.797  1.00  0.00     0.276 HD
ATOM     24  H12 UNL     1      40.738  60.202 178.071  1.00  0.00     0.276 HD
ATOM     25  H11 UNL     1      39.521  59.027 178.303  1.00  0.00     0.276 HD
ENDBRANCH  21  22
ENDBRANCH  20  21
ENDBRANCH   1  20
TORSDOF 10
ENDMDL
