MODEL 1
REMARK VINA RESULT: -8.601145140      0.000      0.000
REMARK  7 active torsions:
REMARK  status: ('A' for Active; 'I' for Inactive)
REMARK    1  A    between atoms: N1_1  and  C1_4 
REMARK    2  A    between atoms: C2_9  and  C3_10 
REMARK       I    between atoms: C3_10  and  N4_12 
REMARK    3  A    between atoms: N4_12  and  N5_14 
REMARK    4  A    between atoms: N5_14  and  C4_16 
REMARK    5  A    between atoms: C7_19  and  N6_20 
REMARK    6  A    between atoms: C9_24  and  N7_25 
REMARK    7  A    between atoms: N7_25  and  O4_29 
ROOT
HETATM    1  N5  UNL     1      41.052  59.850 171.034  1.00  0.00    -0.295 N 
ATOM      2  H5  UNL     1      40.796  59.031 170.483  1.00  0.00     0.187 HD
ENDROOT
BRANCH   1   3
HETATM    3  N4  UNL     1      41.583  60.871 170.304  1.00  0.00    -0.262 N 
HETATM    4  C3  UNL     1      41.051  61.293 169.048  1.00  0.00     0.312 C 
HETATM    5  O1  UNL     1      40.053  60.660 168.623  1.00  0.00    -0.262 OA
ATOM      6  H4  UNL     1      42.399  61.358 170.674  1.00  0.00     0.190 HD
BRANCH   4   7
HETATM    7  C2  UNL     1      41.631  62.395 168.292  1.00  0.00     0.236 A 
HETATM    8  N3  UNL     1      42.873  62.877 168.317  1.00  0.00    -0.272 N 
HETATM    9  N2  UNL     1      42.906  63.864 167.461  1.00  0.00    -0.263 N 
ATOM     10  H3  UNL     1      43.647  62.540 168.890  1.00  0.00     0.189 HD
HETATM   11  C1  UNL     1      41.715  64.035 166.878  1.00  0.00     0.238 A 
ATOM     12  H2  UNL     1      43.732  64.429 167.264  1.00  0.00     0.190 HD
HETATM   13  O5  UNL     1      40.952  63.104 167.422  1.00  0.00    -0.254 OA
BRANCH  11  14
HETATM   14  N1  UNL     1      41.351  64.888 165.997  1.00  0.00    -0.364 N 
ATOM     15  H12 UNL     1      40.973  64.676 165.075  1.00  0.00     0.159 HD
ATOM     16  H11 UNL     1      41.362  65.907 166.034  1.00  0.00     0.159 HD
ENDBRANCH  11  14
ENDBRANCH   4   7
ENDBRANCH   1   3
BRANCH   1  17
HETATM   17  C4  UNL     1      40.795  59.722 172.411  1.00  0.00     0.079 A 
HETATM   18  C5  UNL     1      39.670  60.361 172.957  1.00  0.00     0.036 A 
HETATM   19  C6  UNL     1      39.359  60.324 174.288  1.00  0.00     0.038 A 
HETATM   20  C7  UNL     1      40.152  59.642 175.183  1.00  0.00     0.105 A 
HETATM   21  C8  UNL     1      41.252  59.014 174.669  1.00  0.00     0.072 A 
HETATM   22  C9  UNL     1      41.578  59.048 173.307  1.00  0.00     0.111 A 
BRANCH  20  23
HETATM   23  N6  UNL     1      39.810  59.610 176.569  1.00  0.00    -0.116 N 
HETATM   24  O2  UNL     1      38.679  59.916 176.990  1.00  0.00    -0.532 OA
HETATM   25  O3  UNL     1      40.760  59.236 177.482  1.00  0.00    -0.532 OA
ENDBRANCH  20  23
BRANCH  22  26
HETATM   26  N7  UNL     1      42.766  58.369 172.928  1.00  0.00    -0.168 N 
HETATM   27  N8  UNL     1      43.877  58.839 173.281  1.00  0.00    -0.319 N 
ATOM     28  H82 UNL     1      43.950  59.679 173.856  1.00  0.00     0.179 HD
ATOM     29  H81 UNL     1      44.730  58.351 173.009  1.00  0.00     0.179 HD
BRANCH  26  30
HETATM   30  O4  UNL     1      42.669  57.251 172.161  1.00  0.00    -0.268 OA
ATOM     31  H4  UNL     1      43.334  57.085 171.504  1.00  0.00     0.247 HD
ENDBRANCH  26  30
ENDBRANCH  22  26
ENDBRANCH   1  17
TORSDOF 7
ENDMDL
MODEL 2
REMARK VINA RESULT: -8.367617265      1.197      1.246
REMARK  7 active torsions:
REMARK  status: ('A' for Active; 'I' for Inactive)
REMARK    1  A    between atoms: N1_1  and  C1_4 
REMARK    2  A    between atoms: C2_9  and  C3_10 
REMARK       I    between atoms: C3_10  and  N4_12 
REMARK    3  A    between atoms: N4_12  and  N5_14 
REMARK    4  A    between atoms: N5_14  and  C4_16 
REMARK    5  A    between atoms: C7_19  and  N6_20 
REMARK    6  A    between atoms: C9_24  and  N7_25 
REMARK    7  A    between atoms: N7_25  and  O4_29 
ROOT
HETATM    1  N5  UNL     1      42.665  60.315 171.007  1.00  0.00    -0.295 N 
ATOM      2  H5  UNL     1      43.087  59.514 170.537  1.00  0.00     0.187 HD
ENDROOT
BRANCH   1   3
HETATM    3  N4  UNL     1      42.797  61.492 170.333  1.00  0.00    -0.262 N 
HETATM    4  C3  UNL     1      41.978  61.851 169.219  1.00  0.00     0.312 C 
HETATM    5  O1  UNL     1      41.114  61.012 168.868  1.00  0.00    -0.262 OA
ATOM      6  H4  UNL     1      43.515  62.148 170.640  1.00  0.00     0.190 HD
BRANCH   4   7
HETATM    7  C2  UNL     1      42.133  63.121 168.523  1.00  0.00     0.236 A 
HETATM    8  N3  UNL     1      42.800  64.214 168.894  1.00  0.00    -0.272 N 
HETATM    9  N2  UNL     1      42.646  65.087 167.934  1.00  0.00    -0.263 N 
ATOM     10  H3  UNL     1      43.327  64.344 169.757  1.00  0.00     0.189 HD
HETATM   11  C1  UNL     1      41.897  64.588 166.945  1.00  0.00     0.238 A 
ATOM     12  H2  UNL     1      43.045  66.026 167.938  1.00  0.00     0.190 HD
HETATM   13  O5  UNL     1      41.599  63.366 167.350  1.00  0.00    -0.254 OA
BRANCH  11  14
HETATM   14  N1  UNL     1      41.527  65.129 165.847  1.00  0.00    -0.364 N 
ATOM     15  H12 UNL     1      42.106  65.264 165.018  1.00  0.00     0.159 HD
ATOM     16  H11 UNL     1      40.621  65.517 165.584  1.00  0.00     0.159 HD
ENDBRANCH  11  14
ENDBRANCH   4   7
ENDBRANCH   1   3
BRANCH   1  17
HETATM   17  C4  UNL     1      42.051  60.006 172.234  1.00  0.00     0.079 A 
HETATM   18  C5  UNL     1      40.824  60.609 172.553  1.00  0.00     0.036 A 
HETATM   19  C6  UNL     1      40.169  60.398 173.735  1.00  0.00     0.038 A 
HETATM   20  C7  UNL     1      40.693  59.564 174.697  1.00  0.00     0.105 A 
HETATM   21  C8  UNL     1      41.888  58.968 174.403  1.00  0.00     0.072 A 
HETATM   22  C9  UNL     1      42.564  59.180 173.194  1.00  0.00     0.111 A 
BRANCH  20  23
HETATM   23  N6  UNL     1      39.996  59.352 175.925  1.00  0.00    -0.116 N 
HETATM   24  O2  UNL     1      38.793  59.031 175.968  1.00  0.00    -0.532 OA
HETATM   25  O3  UNL     1      40.665  59.512 177.109  1.00  0.00    -0.532 OA
ENDBRANCH  20  23
BRANCH  22  26
HETATM   26  N7  UNL     1      43.808  58.511 173.046  1.00  0.00    -0.168 N 
HETATM   27  N8  UNL     1      43.890  57.296 173.354  1.00  0.00    -0.319 N 
ATOM     28  H82 UNL     1      43.081  56.767 173.681  1.00  0.00     0.179 HD
ATOM     29  H81 UNL     1      44.783  56.816 173.247  1.00  0.00     0.179 HD
BRANCH  26  30
HETATM   30  O4  UNL     1      44.886  59.216 172.609  1.00  0.00    -0.268 OA
ATOM     31  H4  UNL     1      44.758  59.898 171.960  1.00  0.00     0.247 HD
ENDBRANCH  26  30
ENDBRANCH  22  26
ENDBRANCH   1  17
TORSDOF 7
ENDMDL
MODEL 3
REMARK VINA RESULT: -8.351932487      1.336      1.336
REMARK  7 active torsions:
REMARK  status: ('A' for Active; 'I' for Inactive)
REMARK    1  A    between atoms: N1_1  and  C1_4 
REMARK    2  A    between atoms: C2_9  and  C3_10 
REMARK       I    between atoms: C3_10  and  N4_12 
REMARK    3  A    between atoms: N4_12  and  N5_14 
REMARK    4  A    between atoms: N5_14  and  C4_16 
REMARK    5  A    between atoms: C7_19  and  N6_20 
REMARK    6  A    between atoms: C9_24  and  N7_25 
REMARK    7  A    between atoms: N7_25  and  O4_29 
ROOT
HETATM    1  N5  UNL     1      41.273  59.957 170.901  1.00  0.00    -0.295 N 
ATOM      2  H5  UNL     1      41.314  59.069 170.402  1.00  0.00     0.187 HD
ENDROOT
BRANCH   1   3
HETATM    3  N4  UNL     1      41.525  61.047 170.123  1.00  0.00    -0.262 N 
HETATM    4  C3  UNL     1      42.694  61.855 170.264  1.00  0.00     0.312 C 
HETATM    5  O1  UNL     1      43.500  61.519 171.166  1.00  0.00    -0.262 OA
ATOM      6  H4  UNL     1      40.845  61.298 169.405  1.00  0.00     0.190 HD
BRANCH   4   7
HETATM    7  C2  UNL     1      42.945  63.009 169.412  1.00  0.00     0.236 A 
HETATM    8  N3  UNL     1      43.955  63.878 169.438  1.00  0.00    -0.272 N 
HETATM    9  N2  UNL     1      43.736  64.732 168.473  1.00  0.00    -0.263 N 
ATOM     10  H3  UNL     1      44.744  63.876 170.084  1.00  0.00     0.189 HD
HETATM   11  C1  UNL     1      42.608  64.439 167.818  1.00  0.00     0.238 A 
ATOM     12  H2  UNL     1      44.346  65.519 168.250  1.00  0.00     0.190 HD
HETATM   13  O5  UNL     1      42.148  63.364 168.431  1.00  0.00    -0.254 OA
BRANCH  11  14
HETATM   14  N1  UNL     1      42.062  65.033 166.826  1.00  0.00    -0.364 N 
ATOM     15  H12 UNL     1      42.538  65.363 165.986  1.00  0.00     0.159 HD
ATOM     16  H11 UNL     1      41.086  65.286 166.675  1.00  0.00     0.159 HD
ENDBRANCH  11  14
ENDBRANCH   4   7
ENDBRANCH   1   3
BRANCH   1  17
HETATM   17  C4  UNL     1      40.968  59.837 172.269  1.00  0.00     0.079 A 
HETATM   18  C5  UNL     1      39.806  60.449 172.764  1.00  0.00     0.036 A 
HETATM   19  C6  UNL     1      39.445  60.418 174.083  1.00  0.00     0.038 A 
HETATM   20  C7  UNL     1      40.223  59.769 175.016  1.00  0.00     0.105 A 
HETATM   21  C8  UNL     1      41.359  59.168 174.551  1.00  0.00     0.072 A 
HETATM   22  C9  UNL     1      41.735  59.196 173.201  1.00  0.00     0.111 A 
BRANCH  20  23
HETATM   23  N6  UNL     1      39.830  59.742 176.388  1.00  0.00    -0.116 N 
HETATM   24  O2  UNL     1      38.685  60.053 176.766  1.00  0.00    -0.532 OA
HETATM   25  O3  UNL     1      40.745  59.368 177.337  1.00  0.00    -0.532 OA
ENDBRANCH  20  23
BRANCH  22  26
HETATM   26  N7  UNL     1      42.956  58.548 172.876  1.00  0.00    -0.168 N 
HETATM   27  N8  UNL     1      44.041  59.075 173.229  1.00  0.00    -0.319 N 
ATOM     28  H82 UNL     1      44.070  59.941 173.768  1.00  0.00     0.179 HD
ATOM     29  H81 UNL     1      44.917  58.609 172.995  1.00  0.00     0.179 HD
BRANCH  26  30
HETATM   30  O4  UNL     1      42.917  57.394 172.157  1.00  0.00    -0.268 OA
ATOM     31  H4  UNL     1      43.673  57.152 171.635  1.00  0.00     0.247 HD
ENDBRANCH  26  30
ENDBRANCH  22  26
ENDBRANCH   1  17
TORSDOF 7
ENDMDL
MODEL 4
REMARK VINA RESULT: -8.090716137      1.607      2.424
REMARK  7 active torsions:
REMARK  status: ('A' for Active; 'I' for Inactive)
REMARK    1  A    between atoms: N1_1  and  C1_4 
REMARK    2  A    between atoms: C2_9  and  C3_10 
REMARK       I    between atoms: C3_10  and  N4_12 
REMARK    3  A    between atoms: N4_12  and  N5_14 
REMARK    4  A    between atoms: N5_14  and  C4_16 
REMARK    5  A    between atoms: C7_19  and  N6_20 
REMARK    6  A    between atoms: C9_24  and  N7_25 
REMARK    7  A    between atoms: N7_25  and  O4_29 
ROOT
HETATM    1  N5  UNL     1      41.200  59.933 171.011  1.00  0.00    -0.295 N 
ATOM      2  H5  UNL     1      40.842  59.185 170.418  1.00  0.00     0.187 HD
ENDROOT
BRANCH   1   3
HETATM    3  N4  UNL     1      41.724  60.988 170.326  1.00  0.00    -0.262 N 
HETATM    4  C3  UNL     1      41.226  61.422 169.059  1.00  0.00     0.312 C 
HETATM    5  O1  UNL     1      40.267  60.768 168.583  1.00  0.00    -0.262 OA
ATOM      6  H4  UNL     1      42.509  61.492 170.738  1.00  0.00     0.190 HD
BRANCH   4   7
HETATM    7  C2  UNL     1      41.797  62.560 168.353  1.00  0.00     0.236 A 
HETATM    8  N3  UNL     1      42.995  63.128 168.491  1.00  0.00    -0.272 N 
HETATM    9  N2  UNL     1      43.041  64.113 167.633  1.00  0.00    -0.263 N 
ATOM     10  H3  UNL     1      43.731  62.849 169.139  1.00  0.00     0.189 HD
HETATM   11  C1  UNL     1      41.902  64.198 166.937  1.00  0.00     0.238 A 
ATOM     12  H2  UNL     1      43.840  64.734 167.510  1.00  0.00     0.190 HD
HETATM   13  O5  UNL     1      41.157  63.217 167.414  1.00  0.00    -0.254 OA
BRANCH  11  14
HETATM   14  N1  UNL     1      41.566  65.020 166.017  1.00  0.00    -0.364 N 
ATOM     15  H12 UNL     1      40.866  64.860 165.293  1.00  0.00     0.159 HD
ATOM     16  H11 UNL     1      41.910  65.961 165.828  1.00  0.00     0.159 HD
ENDBRANCH  11  14
ENDBRANCH   4   7
ENDBRANCH   1   3
BRANCH   1  17
HETATM   17  C4  UNL     1      41.065  59.690 172.391  1.00  0.00     0.079 A 
HETATM   18  C5  UNL     1      41.784  58.632 172.970  1.00  0.00     0.036 A 
HETATM   19  C6  UNL     1      41.690  58.298 174.293  1.00  0.00     0.038 A 
HETATM   20  C7  UNL     1      40.866  58.998 175.145  1.00  0.00     0.105 A 
HETATM   21  C8  UNL     1      40.158  60.032 174.597  1.00  0.00     0.072 A 
HETATM   22  C9  UNL     1      40.249  60.379 173.243  1.00  0.00     0.111 A 
BRANCH  20  23
HETATM   23  N6  UNL     1      40.782  58.638 176.524  1.00  0.00    -0.116 N 
HETATM   24  O2  UNL     1      40.628  59.479 177.430  1.00  0.00    -0.532 OA
HETATM   25  O3  UNL     1      40.881  57.318 176.877  1.00  0.00    -0.532 OA
ENDBRANCH  20  23
BRANCH  22  26
HETATM   26  N7  UNL     1      39.432  61.460 172.816  1.00  0.00    -0.168 N 
HETATM   27  N8  UNL     1      38.184  61.357 172.910  1.00  0.00    -0.319 N 
ATOM     28  H82 UNL     1      37.739  60.531 173.310  1.00  0.00     0.179 HD
ATOM     29  H81 UNL     1      37.598  62.134 172.604  1.00  0.00     0.179 HD
BRANCH  26  30
HETATM   30  O4  UNL     1      40.025  62.562 172.282  1.00  0.00    -0.268 OA
ATOM     31  H4  UNL     1      39.632  62.972 171.521  1.00  0.00     0.247 HD
ENDBRANCH  26  30
ENDBRANCH  22  26
ENDBRANCH   1  17
TORSDOF 7
ENDMDL
MODEL 5
REMARK VINA RESULT: -7.880661147      2.691      8.099
REMARK  7 active torsions:
REMARK  status: ('A' for Active; 'I' for Inactive)
REMARK    1  A    between atoms: N1_1  and  C1_4 
REMARK    2  A    between atoms: C2_9  and  C3_10 
REMARK       I    between atoms: C3_10  and  N4_12 
REMARK    3  A    between atoms: N4_12  and  N5_14 
REMARK    4  A    between atoms: N5_14  and  C4_16 
REMARK    5  A    between atoms: C7_19  and  N6_20 
REMARK    6  A    between atoms: C9_24  and  N7_25 
REMARK    7  A    between atoms: N7_25  and  O4_29 
ROOT
HETATM    1  N5  UNL     1      41.875  60.454 174.675  1.00  0.00    -0.295 N 
ATOM      2  H5  UNL     1      42.035  61.141 175.411  1.00  0.00     0.187 HD
ENDROOT
BRANCH   1   3
HETATM    3  N4  UNL     1      41.527  59.218 175.131  1.00  0.00    -0.262 N 
HETATM    4  C3  UNL     1      40.607  59.011 176.204  1.00  0.00     0.312 C 
HETATM    5  O1  UNL     1      40.127  60.042 176.734  1.00  0.00    -0.262 OA
ATOM      6  H4  UNL     1      41.943  58.402 174.683  1.00  0.00     0.190 HD
BRANCH   4   7
HETATM    7  C2  UNL     1      40.244  57.678 176.664  1.00  0.00     0.236 A 
HETATM    8  N3  UNL     1      39.062  57.216 177.073  1.00  0.00    -0.272 N 
HETATM    9  N2  UNL     1      39.240  55.959 177.381  1.00  0.00    -0.263 N 
ATOM     10  H3  UNL     1      38.190  57.742 177.133  1.00  0.00     0.189 HD
HETATM   11  C1  UNL     1      40.510  55.590 177.180  1.00  0.00     0.238 A 
ATOM     12  H2  UNL     1      38.507  55.340 177.729  1.00  0.00     0.190 HD
HETATM   13  O5  UNL     1      41.099  56.685 176.736  1.00  0.00    -0.254 OA
BRANCH  11  14
HETATM   14  N1  UNL     1      41.069  54.454 177.363  1.00  0.00    -0.364 N 
ATOM     15  H12 UNL     1      41.786  54.035 176.773  1.00  0.00     0.159 HD
ATOM     16  H11 UNL     1      40.921  53.767 178.102  1.00  0.00     0.159 HD
ENDBRANCH  11  14
ENDBRANCH   4   7
ENDBRANCH   1   3
BRANCH   1  17
HETATM   17  C4  UNL     1      42.053  60.953 173.372  1.00  0.00     0.079 A 
HETATM   18  C5  UNL     1      41.224  61.991 172.920  1.00  0.00     0.036 A 
HETATM   19  C6  UNL     1      41.298  62.516 171.659  1.00  0.00     0.038 A 
HETATM   20  C7  UNL     1      42.212  62.039 170.745  1.00  0.00     0.105 A 
HETATM   21  C8  UNL     1      43.027  61.027 171.169  1.00  0.00     0.072 A 
HETATM   22  C9  UNL     1      42.957  60.485 172.459  1.00  0.00     0.111 A 
BRANCH  20  23
HETATM   23  N6  UNL     1      42.279  62.600 169.434  1.00  0.00    -0.116 N 
HETATM   24  O2  UNL     1      42.681  63.758 169.217  1.00  0.00    -0.532 OA
HETATM   25  O3  UNL     1      41.880  61.844 168.363  1.00  0.00    -0.532 OA
ENDBRANCH  20  23
BRANCH  22  26
HETATM   26  N7  UNL     1      43.852  59.420 172.742  1.00  0.00    -0.168 N 
HETATM   27  N8  UNL     1      43.658  58.299 172.208  1.00  0.00    -0.319 N 
ATOM     28  H82 UNL     1      42.892  58.139 171.554  1.00  0.00     0.179 HD
ATOM     29  H81 UNL     1      44.302  57.535 172.412  1.00  0.00     0.179 HD
BRANCH  26  30
HETATM   30  O4  UNL     1      44.873  59.634 173.614  1.00  0.00    -0.268 OA
ATOM     31  H4  UNL     1      44.671  59.915 174.499  1.00  0.00     0.247 HD
ENDBRANCH  26  30
ENDBRANCH  22  26
ENDBRANCH   1  17
TORSDOF 7
ENDMDL
