MODEL 1
REMARK VINA RESULT: -7.887185044      0.000      0.000
REMARK  7 active torsions:
REMARK  status: ('A' for Active; 'I' for Inactive)
REMARK    1  A    between atoms: N1_1  and  N2_4 
REMARK    2  A    between atoms: N3_6  and  N4_8 
REMARK       I    between atoms: N4_8  and  C1_10 
REMARK       I    between atoms: C1_10  and  N6_15 
REMARK    3  A    between atoms: N5_11  and  O1_13 
REMARK    4  A    between atoms: N6_15  and  N7_17 
REMARK    5  A    between atoms: C2_19  and  C3_20 
REMARK    6  A    between atoms: C5_22  and  N8_23 
REMARK    7  A    between atoms: C7_27  and  N9_28 
ROOT
HETATM    1  N4  UNL     1      42.751  63.036 168.083  1.00  0.00    -0.113 N 
ATOM      2  H4  UNL     1      43.412  62.468 167.553  1.00  0.00     0.207 HD
HETATM    3  C1  UNL     1      41.818  62.412 168.986  1.00  0.00     0.732 C 
HETATM    4  N5  UNL     1      40.850  61.686 168.544  1.00  0.00    -0.096 N 
ATOM      5  H5  UNL     1      40.748  61.556 167.537  1.00  0.00     0.213 HD
HETATM    6  N6  UNL     1      41.944  62.583 170.379  1.00  0.00    -0.129 N 
ATOM      7  H6  UNL     1      42.131  63.504 170.776  1.00  0.00     0.205 HD
ENDROOT
BRANCH   6   8
HETATM    8  N7  UNL     1      41.808  61.476 171.198  1.00  0.00    -0.297 N 
HETATM    9  C2  UNL     1      41.887  61.628 172.467  1.00  0.00     0.119 C 
ATOM     10  H7  UNL     1      41.648  60.553 170.797  1.00  0.00     0.186 HD
BRANCH   9  11
HETATM   11  C3  UNL     1      41.743  60.452 173.328  1.00  0.00    -0.015 A 
HETATM   12  C4  UNL     1      42.322  59.263 173.002  1.00  0.00     0.049 A 
HETATM   13  C5  UNL     1      42.161  58.168 173.847  1.00  0.00     0.106 A 
HETATM   14  C6  UNL     1      41.421  58.287 175.005  1.00  0.00     0.072 A 
HETATM   15  C7  UNL     1      40.828  59.483 175.351  1.00  0.00     0.106 A 
HETATM   16  C8  UNL     1      40.998  60.543 174.508  1.00  0.00     0.049 A 
BRANCH  13  17
HETATM   17  N8  UNL     1      42.774  56.936 173.490  1.00  0.00    -0.116 N 
HETATM   18  O2  UNL     1      42.271  56.196 172.625  1.00  0.00    -0.532 OA
HETATM   19  O3  UNL     1      43.939  56.538 174.099  1.00  0.00    -0.532 OA
ENDBRANCH  13  17
BRANCH  15  20
HETATM   20  N9  UNL     1      40.072  59.567 176.553  1.00  0.00    -0.116 N 
HETATM   21  O4  UNL     1      38.877  59.917 176.578  1.00  0.00    -0.532 OA
HETATM   22  O5  UNL     1      40.647  59.255 177.760  1.00  0.00    -0.532 OA
ENDBRANCH  15  20
ENDBRANCH   9  11
ENDBRANCH   6   8
BRANCH   1  23
HETATM   23  N3  UNL     1      42.742  64.421 167.940  1.00  0.00    -0.214 N 
HETATM   24  N2  UNL     1      43.667  65.167 168.425  1.00  0.00    -0.234 N 
ATOM     25  H2  UNL     1      43.630  66.178 168.299  1.00  0.00     0.209 HD
ATOM     26  H3  UNL     1      41.973  64.859 167.432  1.00  0.00     0.210 HD
BRANCH  24  27
HETATM   27  N1  UNL     1      44.713  64.587 169.118  1.00  0.00    -0.330 N 
ATOM     28  H12 UNL     1      44.836  64.800 170.108  1.00  0.00     0.178 HD
ATOM     29  H11 UNL     1      45.347  63.955 168.629  1.00  0.00     0.178 HD
ENDBRANCH  24  27
ENDBRANCH   1  23
BRANCH   4  30
HETATM   30  O1  UNL     1      39.965  61.091 169.376  1.00  0.00    -0.276 OA
ATOM     31  H1  UNL     1      39.756  60.166 169.310  1.00  0.00     0.245 HD
ENDBRANCH   4  30
TORSDOF 7
ENDMDL
MODEL 2
REMARK VINA RESULT: -7.858507583      0.084      3.130
REMARK  7 active torsions:
REMARK  status: ('A' for Active; 'I' for Inactive)
REMARK    1  A    between atoms: N1_1  and  N2_4 
REMARK    2  A    between atoms: N3_6  and  N4_8 
REMARK       I    between atoms: N4_8  and  C1_10 
REMARK       I    between atoms: C1_10  and  N6_15 
REMARK    3  A    between atoms: N5_11  and  O1_13 
REMARK    4  A    between atoms: N6_15  and  N7_17 
REMARK    5  A    between atoms: C2_19  and  C3_20 
REMARK    6  A    between atoms: C5_22  and  N8_23 
REMARK    7  A    between atoms: C7_27  and  N9_28 
ROOT
HETATM    1  N4  UNL     1      42.768  63.001 168.129  1.00  0.00    -0.113 N 
ATOM      2  H4  UNL     1      43.431  62.432 167.602  1.00  0.00     0.207 HD
HETATM    3  C1  UNL     1      41.848  62.380 169.047  1.00  0.00     0.732 C 
HETATM    4  N5  UNL     1      40.883  61.639 168.622  1.00  0.00    -0.096 N 
ATOM      5  H5  UNL     1      40.776  61.494 167.618  1.00  0.00     0.213 HD
HETATM    6  N6  UNL     1      41.981  62.572 170.437  1.00  0.00    -0.129 N 
ATOM      7  H6  UNL     1      42.163  63.500 170.819  1.00  0.00     0.205 HD
ENDROOT
BRANCH   6   8
HETATM    8  N7  UNL     1      41.862  61.475 171.272  1.00  0.00    -0.297 N 
HETATM    9  C2  UNL     1      41.727  61.663 172.531  1.00  0.00     0.119 C 
ATOM     10  H7  UNL     1      41.881  60.530 170.889  1.00  0.00     0.186 HD
BRANCH   9  11
HETATM   11  C3  UNL     1      41.602  60.498 173.409  1.00  0.00    -0.015 A 
HETATM   12  C4  UNL     1      40.895  60.563 174.572  1.00  0.00     0.049 A 
HETATM   13  C5  UNL     1      40.799  59.433 175.380  1.00  0.00     0.106 A 
HETATM   14  C6  UNL     1      41.416  58.258 175.005  1.00  0.00     0.072 A 
HETATM   15  C7  UNL     1      42.134  58.174 173.832  1.00  0.00     0.106 A 
HETATM   16  C8  UNL     1      42.215  59.294 173.055  1.00  0.00     0.049 A 
BRANCH  13  17
HETATM   17  N8  UNL     1      40.057  59.521 176.589  1.00  0.00    -0.116 N 
HETATM   18  O2  UNL     1      38.858  59.857 176.583  1.00  0.00    -0.532 OA
HETATM   19  O3  UNL     1      40.654  59.235 177.792  1.00  0.00    -0.532 OA
ENDBRANCH  13  17
BRANCH  15  20
HETATM   20  N9  UNL     1      42.756  56.943 173.479  1.00  0.00    -0.116 N 
HETATM   21  O4  UNL     1      42.277  56.160 172.637  1.00  0.00    -0.532 OA
HETATM   22  O5  UNL     1      43.938  56.566 174.068  1.00  0.00    -0.532 OA
ENDBRANCH  15  20
ENDBRANCH   9  11
ENDBRANCH   6   8
BRANCH   1  23
HETATM   23  N3  UNL     1      42.746  64.383 167.968  1.00  0.00    -0.214 N 
HETATM   24  N2  UNL     1      43.673  65.143 168.423  1.00  0.00    -0.234 N 
ATOM     25  H2  UNL     1      43.626  66.153 168.285  1.00  0.00     0.209 HD
ATOM     26  H3  UNL     1      41.963  64.808 167.469  1.00  0.00     0.210 HD
BRANCH  24  27
HETATM   27  N1  UNL     1      44.738  64.581 169.103  1.00  0.00    -0.330 N 
ATOM     28  H12 UNL     1      45.533  65.167 169.361  1.00  0.00     0.178 HD
ATOM     29  H11 UNL     1      44.714  63.589 169.338  1.00  0.00     0.178 HD
ENDBRANCH  24  27
ENDBRANCH   1  23
BRANCH   4  30
HETATM   30  O1  UNL     1      40.010  61.048 169.468  1.00  0.00    -0.276 OA
ATOM     31  H1  UNL     1      39.647  61.506 170.218  1.00  0.00     0.245 HD
ENDBRANCH   4  30
TORSDOF 7
ENDMDL
MODEL 3
REMARK VINA RESULT: -7.853553157      2.560      3.357
REMARK  7 active torsions:
REMARK  status: ('A' for Active; 'I' for Inactive)
REMARK    1  A    between atoms: N1_1  and  N2_4 
REMARK    2  A    between atoms: N3_6  and  N4_8 
REMARK       I    between atoms: N4_8  and  C1_10 
REMARK       I    between atoms: C1_10  and  N6_15 
REMARK    3  A    between atoms: N5_11  and  O1_13 
REMARK    4  A    between atoms: N6_15  and  N7_17 
REMARK    5  A    between atoms: C2_19  and  C3_20 
REMARK    6  A    between atoms: C5_22  and  N8_23 
REMARK    7  A    between atoms: C7_27  and  N9_28 
ROOT
HETATM    1  N4  UNL     1      41.865  65.369 167.179  1.00  0.00    -0.113 N 
ATOM      2  H4  UNL     1      41.365  66.037 167.767  1.00  0.00     0.207 HD
HETATM    3  C1  UNL     1      42.759  64.408 167.771  1.00  0.00     0.732 C 
HETATM    4  N5  UNL     1      43.871  64.777 168.308  1.00  0.00    -0.096 N 
ATOM      5  H5  UNL     1      44.115  65.768 168.309  1.00  0.00     0.213 HD
HETATM    6  N6  UNL     1      42.438  63.036 167.776  1.00  0.00    -0.129 N 
ATOM      7  H6  UNL     1      42.069  62.585 166.939  1.00  0.00     0.205 HD
ENDROOT
BRANCH   6   8
HETATM    8  N7  UNL     1      42.631  62.314 168.940  1.00  0.00    -0.297 N 
HETATM    9  C2  UNL     1      41.623  62.053 169.686  1.00  0.00     0.119 C 
ATOM     10  H7  UNL     1      43.563  61.993 169.201  1.00  0.00     0.186 HD
BRANCH   9  11
HETATM   11  C3  UNL     1      41.835  61.288 170.917  1.00  0.00    -0.015 A 
HETATM   12  C4  UNL     1      43.056  60.769 171.223  1.00  0.00     0.049 A 
HETATM   13  C5  UNL     1      43.217  60.047 172.403  1.00  0.00     0.106 A 
HETATM   14  C6  UNL     1      42.148  59.860 173.254  1.00  0.00     0.072 A 
HETATM   15  C7  UNL     1      40.905  60.379 172.960  1.00  0.00     0.106 A 
HETATM   16  C8  UNL     1      40.770  61.083 171.798  1.00  0.00     0.049 A 
BRANCH  13  17
HETATM   17  N8  UNL     1      44.499  59.514 172.706  1.00  0.00    -0.116 N 
HETATM   18  O2  UNL     1      44.992  59.632 173.844  1.00  0.00    -0.532 OA
HETATM   19  O3  UNL     1      45.222  58.854 171.743  1.00  0.00    -0.532 OA
ENDBRANCH  13  17
BRANCH  15  20
HETATM   20  N9  UNL     1      39.826  60.165 173.863  1.00  0.00    -0.116 N 
HETATM   21  O4  UNL     1      38.641  60.080 173.491  1.00  0.00    -0.532 OA
HETATM   22  O5  UNL     1      40.060  60.042 175.210  1.00  0.00    -0.532 OA
ENDBRANCH  15  20
ENDBRANCH   9  11
ENDBRANCH   6   8
BRANCH   1  23
HETATM   23  N3  UNL     1      41.687  65.379 165.798  1.00  0.00    -0.214 N 
HETATM   24  N2  UNL     1      41.438  66.454 165.146  1.00  0.00    -0.234 N 
ATOM     25  H2  UNL     1      41.316  66.425 164.133  1.00  0.00     0.209 HD
ATOM     26  H3  UNL     1      41.758  64.498 165.287  1.00  0.00     0.210 HD
BRANCH  24  27
HETATM   27  N1  UNL     1      41.338  67.653 165.826  1.00  0.00    -0.330 N 
ATOM     28  H12 UNL     1      41.068  67.649 166.810  1.00  0.00     0.178 HD
ATOM     29  H11 UNL     1      41.535  68.525 165.335  1.00  0.00     0.178 HD
ENDBRANCH  24  27
ENDBRANCH   1  23
BRANCH   4  30
HETATM   30  O1  UNL     1      44.723  63.890 168.869  1.00  0.00    -0.276 OA
ATOM     31  H1  UNL     1      44.908  63.048 168.469  1.00  0.00     0.245 HD
ENDBRANCH   4  30
TORSDOF 7
ENDMDL
MODEL 4
REMARK VINA RESULT: -7.851159703      2.574      4.325
REMARK  7 active torsions:
REMARK  status: ('A' for Active; 'I' for Inactive)
REMARK    1  A    between atoms: N1_1  and  N2_4 
REMARK    2  A    between atoms: N3_6  and  N4_8 
REMARK       I    between atoms: N4_8  and  C1_10 
REMARK       I    between atoms: C1_10  and  N6_15 
REMARK    3  A    between atoms: N5_11  and  O1_13 
REMARK    4  A    between atoms: N6_15  and  N7_17 
REMARK    5  A    between atoms: C2_19  and  C3_20 
REMARK    6  A    between atoms: C5_22  and  N8_23 
REMARK    7  A    between atoms: C7_27  and  N9_28 
ROOT
HETATM    1  N4  UNL     1      41.978  65.392 167.179  1.00  0.00    -0.113 N 
ATOM      2  H4  UNL     1      41.447  66.050 167.750  1.00  0.00     0.207 HD
HETATM    3  C1  UNL     1      42.844  64.424 167.802  1.00  0.00     0.732 C 
HETATM    4  N5  UNL     1      43.926  64.788 168.400  1.00  0.00    -0.096 N 
ATOM      5  H5  UNL     1      44.166  65.780 168.428  1.00  0.00     0.213 HD
HETATM    6  N6  UNL     1      42.527  63.052 167.770  1.00  0.00    -0.129 N 
ATOM      7  H6  UNL     1      42.203  62.613 166.908  1.00  0.00     0.205 HD
ENDROOT
BRANCH   6   8
HETATM    8  N7  UNL     1      42.663  62.313 168.931  1.00  0.00    -0.297 N 
HETATM    9  C2  UNL     1      41.633  62.113 169.666  1.00  0.00     0.119 C 
ATOM     10  H7  UNL     1      43.570  61.932 169.198  1.00  0.00     0.186 HD
BRANCH   9  11
HETATM   11  C3  UNL     1      41.784  61.330 170.894  1.00  0.00    -0.015 A 
HETATM   12  C4  UNL     1      40.728  61.112 171.726  1.00  0.00     0.049 A 
HETATM   13  C5  UNL     1      40.913  60.362 172.885  1.00  0.00     0.106 A 
HETATM   14  C6  UNL     1      42.155  59.846 173.188  1.00  0.00     0.072 A 
HETATM   15  C7  UNL     1      43.235  60.056 172.357  1.00  0.00     0.106 A 
HETATM   16  C8  UNL     1      43.031  60.794 171.226  1.00  0.00     0.049 A 
BRANCH  13  17
HETATM   17  N8  UNL     1      39.799  60.145 173.741  1.00  0.00    -0.116 N 
HETATM   18  O2  UNL     1      38.643  60.071 173.284  1.00  0.00    -0.532 OA
HETATM   19  O3  UNL     1      39.979  60.012 175.096  1.00  0.00    -0.532 OA
ENDBRANCH  13  17
BRANCH  15  20
HETATM   20  N9  UNL     1      44.501  59.507 172.702  1.00  0.00    -0.116 N 
HETATM   21  O4  UNL     1      44.993  59.605 173.842  1.00  0.00    -0.532 OA
HETATM   22  O5  UNL     1      45.245  58.830 171.767  1.00  0.00    -0.532 OA
ENDBRANCH  15  20
ENDBRANCH   9  11
ENDBRANCH   6   8
BRANCH   1  23
HETATM   23  N3  UNL     1      41.872  65.422 165.791  1.00  0.00    -0.214 N 
HETATM   24  N2  UNL     1      41.568  66.490 165.148  1.00  0.00    -0.234 N 
ATOM     25  H2  UNL     1      41.500  66.476 164.131  1.00  0.00     0.209 HD
ATOM     26  H3  UNL     1      42.041  64.564 165.266  1.00  0.00     0.210 HD
BRANCH  24  27
HETATM   27  N1  UNL     1      41.332  67.659 165.848  1.00  0.00    -0.330 N 
ATOM     28  H12 UNL     1      42.082  68.066 166.408  1.00  0.00     0.178 HD
ATOM     29  H11 UNL     1      40.414  68.098 165.794  1.00  0.00     0.178 HD
ENDBRANCH  24  27
ENDBRANCH   1  23
BRANCH   4  30
HETATM   30  O1  UNL     1      44.751  63.895 168.991  1.00  0.00    -0.276 OA
ATOM     31  H1  UNL     1      44.423  63.102 169.399  1.00  0.00     0.245 HD
ENDBRANCH   4  30
TORSDOF 7
ENDMDL
MODEL 5
REMARK VINA RESULT: -7.089266214      2.684      7.703
REMARK  7 active torsions:
REMARK  status: ('A' for Active; 'I' for Inactive)
REMARK    1  A    between atoms: N1_1  and  N2_4 
REMARK    2  A    between atoms: N3_6  and  N4_8 
REMARK       I    between atoms: N4_8  and  C1_10 
REMARK       I    between atoms: C1_10  and  N6_15 
REMARK    3  A    between atoms: N5_11  and  O1_13 
REMARK    4  A    between atoms: N6_15  and  N7_17 
REMARK    5  A    between atoms: C2_19  and  C3_20 
REMARK    6  A    between atoms: C5_22  and  N8_23 
REMARK    7  A    between atoms: C7_27  and  N9_28 
ROOT
HETATM    1  N4  UNL     1      37.689  57.779 176.697  1.00  0.00    -0.113 N 
ATOM      2  H4  UNL     1      37.822  56.780 176.534  1.00  0.00     0.207 HD
HETATM    3  C1  UNL     1      38.774  58.701 176.477  1.00  0.00     0.732 C 
HETATM    4  N5  UNL     1      39.808  58.706 177.245  1.00  0.00    -0.096 N 
ATOM      5  H5  UNL     1      39.853  58.044 178.020  1.00  0.00     0.213 HD
HETATM    6  N6  UNL     1      38.726  59.623 175.413  1.00  0.00    -0.129 N 
ATOM      7  H6  UNL     1      37.875  60.152 175.220  1.00  0.00     0.205 HD
ENDROOT
BRANCH   6   8
HETATM    8  N7  UNL     1      39.857  59.796 174.635  1.00  0.00    -0.297 N 
HETATM    9  C2  UNL     1      39.736  60.302 173.464  1.00  0.00     0.119 C 
ATOM     10  H7  UNL     1      40.774  59.525 174.988  1.00  0.00     0.186 HD
BRANCH   9  11
HETATM   11  C3  UNL     1      40.936  60.482 172.646  1.00  0.00    -0.015 A 
HETATM   12  C4  UNL     1      42.125  59.921 173.003  1.00  0.00     0.049 A 
HETATM   13  C5  UNL     1      43.244  60.116 172.198  1.00  0.00     0.106 A 
HETATM   14  C6  UNL     1      43.149  60.872 171.048  1.00  0.00     0.072 A 
HETATM   15  C7  UNL     1      41.954  61.447 170.671  1.00  0.00     0.106 A 
HETATM   16  C8  UNL     1      40.870  61.243 171.475  1.00  0.00     0.049 A 
BRANCH  13  17
HETATM   17  N8  UNL     1      44.475  59.521 172.587  1.00  0.00    -0.116 N 
HETATM   18  O2  UNL     1      44.891  59.613 173.756  1.00  0.00    -0.532 OA
HETATM   19  O3  UNL     1      45.233  58.831 171.672  1.00  0.00    -0.532 OA
ENDBRANCH  13  17
BRANCH  15  20
HETATM   20  N9  UNL     1      41.896  62.220 169.478  1.00  0.00    -0.116 N 
HETATM   21  O4  UNL     1      42.322  63.388 169.407  1.00  0.00    -0.532 OA
HETATM   22  O5  UNL     1      41.354  61.692 168.332  1.00  0.00    -0.532 OA
ENDBRANCH  15  20
ENDBRANCH   9  11
ENDBRANCH   6   8
BRANCH   1  23
HETATM   23  N3  UNL     1      36.459  58.261 177.135  1.00  0.00    -0.214 N 
HETATM   24  N2  UNL     1      35.352  57.918 176.585  1.00  0.00    -0.234 N 
ATOM     25  H2  UNL     1      34.468  58.289 176.933  1.00  0.00     0.209 HD
ATOM     26  H3  UNL     1      36.436  58.910 177.922  1.00  0.00     0.210 HD
BRANCH  24  27
HETATM   27  N1  UNL     1      35.368  57.041 175.517  1.00  0.00    -0.330 N 
ATOM     28  H12 UNL     1      36.247  56.599 175.245  1.00  0.00     0.178 HD
ATOM     29  H11 UNL     1      34.502  56.847 175.015  1.00  0.00     0.178 HD
ENDBRANCH  24  27
ENDBRANCH   1  23
BRANCH   4  30
HETATM   30  O1  UNL     1      40.836  59.564 177.054  1.00  0.00    -0.276 OA
ATOM     31  H1  UNL     1      41.337  59.576 176.247  1.00  0.00     0.245 HD
ENDBRANCH   4  30
TORSDOF 7
ENDMDL
