MODEL 1
REMARK VINA RESULT: -4.592181851      0.000      0.000
REMARK  4 active torsions:
REMARK  status: ('A' for Active; 'I' for Inactive)
REMARK    1  A    between atoms: N1_1  and  N2_4 
REMARK    2  A    between atoms: C1_6  and  C2_7 
REMARK    3  A    between atoms: C2_7  and  N3_8 
REMARK    4  A    between atoms: C2_7  and  C3_12 
ROOT
HETATM    1  C2  UNL     1      24.062  -1.984   1.331  1.00  0.00     0.229 C 
ENDROOT
BRANCH   1   2
HETATM    2  C1  UNL     1      25.492  -1.918   1.693  1.00  0.00     0.112 C 
HETATM    3  N2  UNL     1      26.323  -2.662   1.081  1.00  0.00    -0.320 N 
ATOM      4  H2  UNL     1      25.963  -3.283   0.356  1.00  0.00     0.185 HD
BRANCH   3   5
HETATM    5  N1  UNL     1      27.696  -2.683   1.338  1.00  0.00    -0.346 N 
ATOM      6  H12 UNL     1      28.173  -1.783   1.364  1.00  0.00     0.176 HD
ATOM      7  H11 UNL     1      28.236  -3.533   1.499  1.00  0.00     0.176 HD
ENDBRANCH   3   5
ENDBRANCH   1   2
BRANCH   1   8
HETATM    8  N3  UNL     1      23.947  -2.162  -0.081  1.00  0.00    -0.070 N 
ATOM      9  H33 UNL     1      24.854  -2.161  -0.548  1.00  0.00     0.275 HD
ATOM     10  H32 UNL     1      23.660  -3.108  -0.331  1.00  0.00     0.275 HD
ATOM     11  H31 UNL     1      23.316  -1.453  -0.455  1.00  0.00     0.275 HD
ENDBRANCH   1   8
BRANCH   1  12
HETATM   12  C3  UNL     1      23.386  -0.764   1.858  1.00  0.00     0.045 C 
HETATM   13  C4  UNL     1      22.132  -0.379   1.158  1.00  0.00     0.128 C 
HETATM   14  N4  UNL     1      21.476   0.452   2.151  1.00  0.00    -0.381 N 
HETATM   15  C5  UNL     1      21.866   0.158   3.341  1.00  0.00     0.089 C 
ATOM     16  H4  UNL     1      20.793   1.178   1.932  1.00  0.00     0.160 HD
HETATM   17  N5  UNL     1      21.478   0.726   4.587  1.00  0.00    -0.088 NA
HETATM   18  C6  UNL     1      22.877  -0.958   3.286  1.00  0.00     0.081 C 
ENDBRANCH   1  12
TORSDOF 4
ENDMDL
MODEL 2
REMARK VINA RESULT: -4.364168679      3.782      6.266
REMARK  4 active torsions:
REMARK  status: ('A' for Active; 'I' for Inactive)
REMARK    1  A    between atoms: N1_1  and  N2_4 
REMARK    2  A    between atoms: C1_6  and  C2_7 
REMARK    3  A    between atoms: C2_7  and  N3_8 
REMARK    4  A    between atoms: C2_7  and  C3_12 
ROOT
HETATM    1  C2  UNL     1      21.823  -2.394   6.786  1.00  0.00     0.229 C 
ENDROOT
BRANCH   1   2
HETATM    2  C1  UNL     1      20.890  -2.137   7.901  1.00  0.00     0.112 C 
HETATM    3  N2  UNL     1      20.604  -3.081   8.703  1.00  0.00    -0.320 N 
ATOM      4  H2  UNL     1      21.034  -3.991   8.540  1.00  0.00     0.185 HD
BRANCH   3   5
HETATM    5  N1  UNL     1      19.737  -2.952   9.791  1.00  0.00    -0.346 N 
ATOM      6  H12 UNL     1      20.043  -2.349  10.554  1.00  0.00     0.176 HD
ATOM      7  H11 UNL     1      18.832  -3.419   9.862  1.00  0.00     0.176 HD
ENDBRANCH   3   5
ENDBRANCH   1   2
BRANCH   1   8
HETATM    8  N3  UNL     1      23.149  -2.060   7.201  1.00  0.00    -0.070 N 
ATOM      9  H33 UNL     1      23.168  -1.255   7.827  1.00  0.00     0.275 HD
ATOM     10  H32 UNL     1      23.539  -2.749   7.843  1.00  0.00     0.275 HD
ATOM     11  H31 UNL     1      23.732  -1.924   6.375  1.00  0.00     0.275 HD
ENDBRANCH   1   8
BRANCH   1  12
HETATM   12  C3  UNL     1      21.344  -1.646   5.588  1.00  0.00     0.045 C 
HETATM   13  C4  UNL     1      20.459  -0.486   5.873  1.00  0.00     0.128 C 
HETATM   14  N4  UNL     1      20.586   0.296   4.658  1.00  0.00    -0.381 N 
HETATM   15  C5  UNL     1      21.700   0.056   4.059  1.00  0.00     0.089 C 
ATOM     16  H4  UNL     1      19.883   0.953   4.321  1.00  0.00     0.160 HD
HETATM   17  N5  UNL     1      22.213   0.602   2.851  1.00  0.00    -0.088 NA
HETATM   18  C6  UNL     1      22.489  -0.964   4.839  1.00  0.00     0.081 C 
ENDBRANCH   1  12
TORSDOF 4
ENDMDL
MODEL 3
REMARK VINA RESULT: -4.323986012      1.789      3.201
REMARK  4 active torsions:
REMARK  status: ('A' for Active; 'I' for Inactive)
REMARK    1  A    between atoms: N1_1  and  N2_4 
REMARK    2  A    between atoms: C1_6  and  C2_7 
REMARK    3  A    between atoms: C2_7  and  N3_8 
REMARK    4  A    between atoms: C2_7  and  C3_12 
ROOT
HETATM    1  C2  UNL     1      23.770  -0.809   2.081  1.00  0.00     0.229 C 
ENDROOT
BRANCH   1   2
HETATM    2  C1  UNL     1      23.092  -0.791   0.769  1.00  0.00     0.112 C 
HETATM    3  N2  UNL     1      22.234  -1.690   0.501  1.00  0.00    -0.320 N 
ATOM      4  H2  UNL     1      22.048  -2.398   1.211  1.00  0.00     0.185 HD
BRANCH   3   5
HETATM    5  N1  UNL     1      21.532  -1.771  -0.705  1.00  0.00    -0.346 N 
ATOM      6  H12 UNL     1      21.317  -0.890  -1.172  1.00  0.00     0.176 HD
ATOM      7  H11 UNL     1      21.229  -2.645  -1.134  1.00  0.00     0.176 HD
ENDBRANCH   3   5
ENDBRANCH   1   2
BRANCH   1   8
HETATM    8  N3  UNL     1      24.863  -1.727   2.026  1.00  0.00    -0.070 N 
ATOM      9  H33 UNL     1      24.609  -2.654   2.367  1.00  0.00     0.275 HD
ATOM     10  H32 UNL     1      25.104  -1.988   1.071  1.00  0.00     0.275 HD
ATOM     11  H31 UNL     1      25.656  -1.331   2.532  1.00  0.00     0.275 HD
ENDBRANCH   1   8
BRANCH   1  12
HETATM   12  C3  UNL     1      22.758  -1.115   3.132  1.00  0.00     0.045 C 
HETATM   13  C4  UNL     1      23.310  -1.434   4.474  1.00  0.00     0.128 C 
HETATM   14  N4  UNL     1      22.173  -1.176   5.338  1.00  0.00    -0.381 N 
HETATM   15  C5  UNL     1      21.361  -0.333   4.804  1.00  0.00     0.089 C 
ATOM     16  H4  UNL     1      22.035  -1.608   6.251  1.00  0.00     0.160 HD
HETATM   17  N5  UNL     1      20.136   0.187   5.309  1.00  0.00    -0.088 NA
HETATM   18  C6  UNL     1      21.881   0.096   3.456  1.00  0.00     0.081 C 
ENDBRANCH   1  12
TORSDOF 4
ENDMDL
MODEL 4
REMARK VINA RESULT: -4.285745615      1.809      4.723
REMARK  4 active torsions:
REMARK  status: ('A' for Active; 'I' for Inactive)
REMARK    1  A    between atoms: N1_1  and  N2_4 
REMARK    2  A    between atoms: C1_6  and  C2_7 
REMARK    3  A    between atoms: C2_7  and  N3_8 
REMARK    4  A    between atoms: C2_7  and  C3_12 
ROOT
HETATM    1  C2  UNL     1      22.124  -0.078   4.140  1.00  0.00     0.229 C 
ENDROOT
BRANCH   1   2
HETATM    2  C1  UNL     1      22.411  -1.208   5.047  1.00  0.00     0.112 C 
HETATM    3  N2  UNL     1      21.621  -1.443   6.016  1.00  0.00    -0.320 N 
ATOM      4  H2  UNL     1      20.811  -0.833   6.129  1.00  0.00     0.185 HD
BRANCH   3   5
HETATM    5  N1  UNL     1      21.792  -2.482   6.934  1.00  0.00    -0.346 N 
ATOM      6  H12 UNL     1      21.678  -2.249   7.920  1.00  0.00     0.176 HD
ATOM      7  H11 UNL     1      22.021  -3.443   6.677  1.00  0.00     0.176 HD
ENDBRANCH   3   5
ENDBRANCH   1   2
BRANCH   1   8
HETATM    8  N3  UNL     1      20.837   0.455   4.453  1.00  0.00    -0.070 N 
ATOM      9  H33 UNL     1      20.084  -0.202   4.248  1.00  0.00     0.275 HD
ATOM     10  H32 UNL     1      20.684   0.536   5.458  1.00  0.00     0.275 HD
ATOM     11  H31 UNL     1      20.718   1.345   3.969  1.00  0.00     0.275 HD
ENDBRANCH   1   8
BRANCH   1  12
HETATM   12  C3  UNL     1      22.271  -0.553   2.735  1.00  0.00     0.045 C 
HETATM   13  C4  UNL     1      22.780   0.458   1.771  1.00  0.00     0.128 C 
HETATM   14  N4  UNL     1      23.286  -0.376   0.697  1.00  0.00    -0.381 N 
HETATM   15  C5  UNL     1      23.603  -1.549   1.124  1.00  0.00     0.089 C 
ATOM     16  H4  UNL     1      23.380  -0.073  -0.272  1.00  0.00     0.160 HD
HETATM   17  N5  UNL     1      24.131  -2.659   0.408  1.00  0.00    -0.088 NA
HETATM   18  C6  UNL     1      23.335  -1.644   2.604  1.00  0.00     0.081 C 
ENDBRANCH   1  12
TORSDOF 4
ENDMDL
MODEL 5
REMARK VINA RESULT: -4.239944007      1.398      1.834
REMARK  4 active torsions:
REMARK  status: ('A' for Active; 'I' for Inactive)
REMARK    1  A    between atoms: N1_1  and  N2_4 
REMARK    2  A    between atoms: C1_6  and  C2_7 
REMARK    3  A    between atoms: C2_7  and  N3_8 
REMARK    4  A    between atoms: C2_7  and  C3_12 
ROOT
HETATM    1  C2  UNL     1      23.478  -1.060   0.494  1.00  0.00     0.229 C 
ENDROOT
BRANCH   1   2
HETATM    2  C1  UNL     1      24.699  -1.878   0.641  1.00  0.00     0.112 C 
HETATM    3  N2  UNL     1      24.902  -2.841  -0.164  1.00  0.00    -0.320 N 
ATOM      4  H2  UNL     1      24.204  -3.013  -0.887  1.00  0.00     0.185 HD
BRANCH   3   5
HETATM    5  N1  UNL     1      26.019  -3.679  -0.120  1.00  0.00    -0.346 N 
ATOM      6  H12 UNL     1      26.041  -4.378   0.622  1.00  0.00     0.176 HD
ATOM      7  H11 UNL     1      26.798  -3.631  -0.776  1.00  0.00     0.176 HD
ENDBRANCH   3   5
ENDBRANCH   1   2
BRANCH   1   8
HETATM    8  N3  UNL     1      23.847   0.253   0.066  1.00  0.00    -0.070 N 
ATOM      9  H33 UNL     1      23.733   0.948   0.804  1.00  0.00     0.275 HD
ATOM     10  H32 UNL     1      24.853   0.350  -0.066  1.00  0.00     0.275 HD
ATOM     11  H31 UNL     1      23.320   0.488  -0.775  1.00  0.00     0.275 HD
ENDBRANCH   1   8
BRANCH   1  12
HETATM   12  C3  UNL     1      22.725  -1.101   1.779  1.00  0.00     0.045 C 
HETATM   13  C4  UNL     1      23.467  -1.671   2.935  1.00  0.00     0.128 C 
HETATM   14  N4  UNL     1      22.733  -1.127   4.062  1.00  0.00    -0.381 N 
HETATM   15  C5  UNL     1      22.129  -0.035   3.747  1.00  0.00     0.089 C 
ATOM     16  H4  UNL     1      22.701  -1.554   4.988  1.00  0.00     0.160 HD
HETATM   17  N5  UNL     1      21.309   0.809   4.546  1.00  0.00    -0.088 NA
HETATM   18  C6  UNL     1      22.398   0.298   2.302  1.00  0.00     0.081 C 
ENDBRANCH   1  12
TORSDOF 4
ENDMDL
