MODEL 1
REMARK VINA RESULT: -3.536192125      0.000      0.000
REMARK  4 active torsions:
REMARK  status: ('A' for Active; 'I' for Inactive)
REMARK    1  A    between atoms: C2_2  and  N1_3 
REMARK    2  A    between atoms: C2_2  and  C3_7 
REMARK    3  A    between atoms: C3_7  and  C4_9 
REMARK    4  A    between atoms: C5_11  and  N2_12 
ROOT
HETATM    1  C3  UNL     1      21.244  -2.054   6.379  1.00  0.00     0.122 C 
HETATM    2  S1  UNL     1      20.108  -0.693   6.060  1.00  0.00    -0.087 SA
ENDROOT
BRANCH   1   3
HETATM    3  C2  UNL     1      22.540  -1.893   5.623  1.00  0.00     0.196 C 
HETATM    4  C1  UNL     1      22.359  -0.793   4.614  1.00  0.00     0.041 C 
BRANCH   3   5
HETATM    5  N1  UNL     1      23.658  -1.619   6.485  1.00  0.00    -0.074 N 
ATOM      6  H13 UNL     1      24.008  -0.670   6.357  1.00  0.00     0.274 HD
ATOM      7  H12 UNL     1      23.372  -1.547   7.462  1.00  0.00     0.274 HD
ATOM      8  H11 UNL     1      24.393  -2.314   6.358  1.00  0.00     0.274 HD
ENDBRANCH   3   5
ENDBRANCH   1   3
BRANCH   1   9
HETATM    9  C4  UNL     1      21.619  -2.075   7.866  1.00  0.00     0.197 A 
HETATM   10  O1  UNL     1      20.763  -1.390   8.738  1.00  0.00    -0.346 OA
HETATM   11  C5  UNL     1      20.674  -2.785   8.752  1.00  0.00     0.349 A 
BRANCH  11  12
HETATM   12  N2  UNL     1      21.160  -3.423   9.964  1.00  0.00    -0.050 N 
ATOM     13  H23 UNL     1      20.524  -3.193  10.728  1.00  0.00     0.277 HD
ATOM     14  H22 UNL     1      21.019  -4.430   9.879  1.00  0.00     0.277 HD
ATOM     15  H21 UNL     1      22.116  -3.255  10.278  1.00  0.00     0.277 HD
ENDBRANCH  11  12
ENDBRANCH   1   9
TORSDOF 4
ENDMDL
MODEL 2
REMARK VINA RESULT: -3.534940014      2.653      3.088
REMARK  4 active torsions:
REMARK  status: ('A' for Active; 'I' for Inactive)
REMARK    1  A    between atoms: C2_2  and  N1_3 
REMARK    2  A    between atoms: C2_2  and  C3_7 
REMARK    3  A    between atoms: C3_7  and  C4_9 
REMARK    4  A    between atoms: C5_11  and  N2_12 
ROOT
HETATM    1  C3  UNL     1      22.599  -0.682   4.702  1.00  0.00     0.122 C 
HETATM    2  S1  UNL     1      23.192  -1.762   3.389  1.00  0.00    -0.087 SA
ENDROOT
BRANCH   1   3
HETATM    3  C2  UNL     1      21.736   0.434   4.165  1.00  0.00     0.196 C 
HETATM    4  C1  UNL     1      21.748   0.353   2.663  1.00  0.00     0.041 C 
BRANCH   3   5
HETATM    5  N1  UNL     1      20.391   0.391   4.670  1.00  0.00    -0.074 N 
ATOM      6  H13 UNL     1      19.705   0.416   3.916  1.00  0.00     0.274 HD
ATOM      7  H12 UNL     1      20.162  -0.526   5.055  1.00  0.00     0.274 HD
ATOM      8  H11 UNL     1      20.233   1.135   5.349  1.00  0.00     0.274 HD
ENDBRANCH   3   5
ENDBRANCH   1   3
BRANCH   1   9
HETATM    9  C4  UNL     1      21.710  -1.480   5.664  1.00  0.00     0.197 A 
HETATM   10  O1  UNL     1      22.002  -2.844   5.801  1.00  0.00    -0.346 OA
HETATM   11  C5  UNL     1      22.389  -2.017   6.861  1.00  0.00     0.349 A 
BRANCH  11  12
HETATM   12  N2  UNL     1      21.642  -2.203   8.093  1.00  0.00    -0.050 N 
ATOM     13  H23 UNL     1      20.792  -1.641   8.045  1.00  0.00     0.277 HD
ATOM     14  H22 UNL     1      21.260  -3.149   8.101  1.00  0.00     0.277 HD
ATOM     15  H21 UNL     1      22.094  -2.029   8.992  1.00  0.00     0.277 HD
ENDBRANCH  11  12
ENDBRANCH   1   9
TORSDOF 4
ENDMDL
MODEL 3
REMARK VINA RESULT: -3.514794155      4.189      5.234
REMARK  4 active torsions:
REMARK  status: ('A' for Active; 'I' for Inactive)
REMARK    1  A    between atoms: C2_2  and  N1_3 
REMARK    2  A    between atoms: C2_2  and  C3_7 
REMARK    3  A    between atoms: C3_7  and  C4_9 
REMARK    4  A    between atoms: C5_11  and  N2_12 
ROOT
HETATM    1  C3  UNL     1      22.224  -0.405   1.561  1.00  0.00     0.122 C 
HETATM    2  S1  UNL     1      22.089   1.204   0.765  1.00  0.00    -0.087 SA
ENDROOT
BRANCH   1   3
HETATM    3  C2  UNL     1      23.242  -1.286   0.879  1.00  0.00     0.196 C 
HETATM    4  C1  UNL     1      24.552  -0.548   0.850  1.00  0.00     0.041 C 
BRANCH   3   5
HETATM    5  N1  UNL     1      23.389  -2.566   1.518  1.00  0.00    -0.074 N 
ATOM      6  H13 UNL     1      24.131  -3.118   1.089  1.00  0.00     0.274 HD
ATOM      7  H12 UNL     1      23.786  -2.477   2.454  1.00  0.00     0.274 HD
ATOM      8  H11 UNL     1      22.503  -3.069   1.531  1.00  0.00     0.274 HD
ENDBRANCH   3   5
ENDBRANCH   1   3
BRANCH   1   9
HETATM    9  C4  UNL     1      22.713  -0.228   3.004  1.00  0.00     0.197 A 
HETATM   10  O1  UNL     1      22.102   0.787   3.752  1.00  0.00    -0.346 OA
HETATM   11  C5  UNL     1      21.718  -0.523   4.055  1.00  0.00     0.349 A 
BRANCH  11  12
HETATM   12  N2  UNL     1      22.158  -1.012   5.351  1.00  0.00    -0.050 N 
ATOM     13  H23 UNL     1      21.539  -1.770   5.638  1.00  0.00     0.277 HD
ATOM     14  H22 UNL     1      23.042  -1.507   5.227  1.00  0.00     0.277 HD
ATOM     15  H21 UNL     1      22.258  -0.363   6.131  1.00  0.00     0.277 HD
ENDBRANCH  11  12
ENDBRANCH   1   9
TORSDOF 4
ENDMDL
MODEL 4
REMARK VINA RESULT: -3.375789154      1.709      3.824
REMARK  4 active torsions:
REMARK  status: ('A' for Active; 'I' for Inactive)
REMARK    1  A    between atoms: C2_2  and  N1_3 
REMARK    2  A    between atoms: C2_2  and  C3_7 
REMARK    3  A    between atoms: C3_7  and  C4_9 
REMARK    4  A    between atoms: C5_11  and  N2_12 
ROOT
HETATM    1  C3  UNL     1      21.009  -1.724   7.826  1.00  0.00     0.122 C 
HETATM    2  S1  UNL     1      19.849  -1.132   6.582  1.00  0.00    -0.087 SA
ENDROOT
BRANCH   1   3
HETATM    3  C2  UNL     1      20.367  -2.715   8.766  1.00  0.00     0.196 C 
HETATM    4  C1  UNL     1      21.448  -3.315   9.621  1.00  0.00     0.041 C 
BRANCH   3   5
HETATM    5  N1  UNL     1      19.337  -2.126   9.578  1.00  0.00    -0.074 N 
ATOM      6  H13 UNL     1      19.007  -2.773  10.294  1.00  0.00     0.274 HD
ATOM      7  H12 UNL     1      19.709  -1.398  10.189  1.00  0.00     0.274 HD
ATOM      8  H11 UNL     1      18.572  -1.780   9.001  1.00  0.00     0.274 HD
ENDBRANCH   3   5
ENDBRANCH   1   3
BRANCH   1   9
HETATM    9  C4  UNL     1      22.161  -2.472   7.142  1.00  0.00     0.197 A 
HETATM   10  O1  UNL     1      22.178  -2.450   5.741  1.00  0.00    -0.346 OA
HETATM   11  C5  UNL     1      23.108  -1.628   6.384  1.00  0.00     0.349 A 
BRANCH  11  12
HETATM   12  N2  UNL     1      24.495  -2.040   6.249  1.00  0.00    -0.050 N 
ATOM     13  H23 UNL     1      24.849  -1.694   5.357  1.00  0.00     0.277 HD
ATOM     14  H22 UNL     1      25.057  -1.506   6.912  1.00  0.00     0.277 HD
ATOM     15  H21 UNL     1      24.742  -3.026   6.335  1.00  0.00     0.277 HD
ENDBRANCH  11  12
ENDBRANCH   1   9
TORSDOF 4
ENDMDL
MODEL 5
REMARK VINA RESULT: -3.367372788      4.770      5.714
REMARK  4 active torsions:
REMARK  status: ('A' for Active; 'I' for Inactive)
REMARK    1  A    between atoms: C2_2  and  N1_3 
REMARK    2  A    between atoms: C2_2  and  C3_7 
REMARK    3  A    between atoms: C3_7  and  C4_9 
REMARK    4  A    between atoms: C5_11  and  N2_12 
ROOT
HETATM    1  C3  UNL     1      23.138  -0.307   1.750  1.00  0.00     0.122 C 
HETATM    2  S1  UNL     1      24.508  -1.475   1.710  1.00  0.00    -0.087 SA
ENDROOT
BRANCH   1   3
HETATM    3  C2  UNL     1      22.324  -0.351   0.480  1.00  0.00     0.196 C 
HETATM    4  C1  UNL     1      22.438  -1.733  -0.101  1.00  0.00     0.041 C 
BRANCH   3   5
HETATM    5  N1  UNL     1      20.947   0.006   0.688  1.00  0.00    -0.074 N 
ATOM      6  H13 UNL     1      20.697   0.855   0.182  1.00  0.00     0.274 HD
ATOM      7  H12 UNL     1      20.314  -0.644   0.221  1.00  0.00     0.274 HD
ATOM      8  H11 UNL     1      20.738   0.084   1.683  1.00  0.00     0.274 HD
ENDBRANCH   3   5
ENDBRANCH   1   3
BRANCH   1   9
HETATM    9  C4  UNL     1      22.175  -0.681   2.885  1.00  0.00     0.197 A 
HETATM   10  O1  UNL     1      22.722  -0.750   4.173  1.00  0.00    -0.346 OA
HETATM   11  C5  UNL     1      21.937   0.372   3.892  1.00  0.00     0.349 A 
BRANCH  11  12
HETATM   12  N2  UNL     1      20.666   0.429   4.593  1.00  0.00    -0.050 N 
ATOM     13  H23 UNL     1      20.401   1.408   4.705  1.00  0.00     0.277 HD
ATOM     14  H22 UNL     1      19.935   0.092   3.966  1.00  0.00     0.277 HD
ATOM     15  H21 UNL     1      20.561  -0.040   5.493  1.00  0.00     0.277 HD
ENDBRANCH  11  12
ENDBRANCH   1   9
TORSDOF 4
ENDMDL
