MODEL 1
REMARK VINA RESULT: -5.032156804      0.000      0.000
REMARK  3 active torsions:
REMARK  status: ('A' for Active; 'I' for Inactive)
REMARK    1  A    between atoms: C2_2  and  N1_4 
REMARK    2  A    between atoms: N1_4  and  N2_5 
REMARK    3  A    between atoms: N2_5  and  C4_7 
ROOT
HETATM    1  C4  UNL     1      21.067  -2.026   7.966  1.00  0.00     0.323 C 
HETATM    2  C5  UNL     1      20.913  -3.504   8.182  1.00  0.00     0.289 C 
HETATM    3  N3  UNL     1      20.770  -3.517   9.648  1.00  0.00    -0.048 N 
ATOM      4  H31 UNL     1      21.626  -3.363  10.182  1.00  0.00     0.279 HD
ATOM      5  H32 UNL     1      20.576  -4.426  10.070  1.00  0.00     0.279 HD
HETATM    6  C6  UNL     1      19.736  -2.512   9.805  1.00  0.00     0.465 C 
HETATM    7  N4  UNL     1      20.075  -1.472   8.845  1.00  0.00    -0.028 N 
ATOM      8  H41 UNL     1      19.263  -1.101   8.352  1.00  0.00     0.281 HD
ATOM      9  H42 UNL     1      20.369  -0.600   9.285  1.00  0.00     0.281 HD
ENDROOT
BRANCH   1  10
HETATM   10  N2  UNL     1      20.937  -1.620   6.600  1.00  0.00    -0.308 N 
ATOM     11  H2  UNL     1      20.208  -0.981   6.285  1.00  0.00     0.178 HD
BRANCH  10  12
HETATM   12  N1  UNL     1      21.872  -2.161   5.745  1.00  0.00    -0.140 NA
BRANCH  12  13
HETATM   13  C2  UNL     1      22.424  -1.045   4.962  1.00  0.00     0.091 C 
HETATM   14  C1  UNL     1      21.265  -0.080   4.700  1.00  0.00     0.029 C 
HETATM   15  C3  UNL     1      23.059  -1.507   3.694  1.00  0.00     0.029 C 
ENDBRANCH  12  13
ENDBRANCH  10  12
ENDBRANCH   1  10
TORSDOF 3
ENDMDL
MODEL 2
REMARK VINA RESULT: -4.888131119      0.955      1.276
REMARK  3 active torsions:
REMARK  status: ('A' for Active; 'I' for Inactive)
REMARK    1  A    between atoms: C2_2  and  N1_4 
REMARK    2  A    between atoms: N1_4  and  N2_5 
REMARK    3  A    between atoms: N2_5  and  C4_7 
ROOT
HETATM    1  C4  UNL     1      20.940  -2.151   7.660  1.00  0.00     0.323 C 
HETATM    2  C5  UNL     1      20.915  -1.479   9.003  1.00  0.00     0.289 C 
HETATM    3  N3  UNL     1      19.793  -2.212   9.615  1.00  0.00    -0.048 N 
ATOM      4  H31 UNL     1      18.862  -1.956   9.288  1.00  0.00     0.279 HD
ATOM      5  H32 UNL     1      19.598  -1.993  10.592  1.00  0.00     0.279 HD
HETATM    6  C6  UNL     1      20.209  -3.574   9.342  1.00  0.00     0.465 C 
HETATM    7  N4  UNL     1      20.758  -3.536   7.995  1.00  0.00    -0.028 N 
ATOM      8  H41 UNL     1      21.609  -4.090   7.892  1.00  0.00     0.281 HD
ATOM      9  H42 UNL     1      20.192  -4.043   7.316  1.00  0.00     0.281 HD
ENDROOT
BRANCH   1  10
HETATM   10  N2  UNL     1      22.117  -1.879   6.894  1.00  0.00    -0.308 N 
ATOM     11  H2  UNL     1      22.956  -1.469   7.303  1.00  0.00     0.178 HD
BRANCH  10  12
HETATM   12  N1  UNL     1      22.030  -2.216   5.560  1.00  0.00    -0.140 NA
BRANCH  12  13
HETATM   13  C2  UNL     1      22.539  -1.064   4.800  1.00  0.00     0.091 C 
HETATM   14  C1  UNL     1      21.360  -0.103   4.621  1.00  0.00     0.029 C 
HETATM   15  C3  UNL     1      23.128  -1.470   3.492  1.00  0.00     0.029 C 
ENDBRANCH  12  13
ENDBRANCH  10  12
ENDBRANCH   1  10
TORSDOF 3
ENDMDL
MODEL 3
REMARK VINA RESULT: -4.737524916      1.485      4.801
REMARK  3 active torsions:
REMARK  status: ('A' for Active; 'I' for Inactive)
REMARK    1  A    between atoms: C2_2  and  N1_4 
REMARK    2  A    between atoms: N1_4  and  N2_5 
REMARK    3  A    between atoms: N2_5  and  C4_7 
ROOT
HETATM    1  C4  UNL     1      21.900  -1.848   5.952  1.00  0.00     0.323 C 
HETATM    2  C5  UNL     1      23.215  -1.455   5.343  1.00  0.00     0.289 C 
HETATM    3  N3  UNL     1      22.741  -1.016   4.019  1.00  0.00    -0.048 N 
ATOM      4  H31 UNL     1      22.477  -1.758   3.370  1.00  0.00     0.279 HD
ATOM      5  H32 UNL     1      23.450  -0.619   3.401  1.00  0.00     0.279 HD
HETATM    6  C6  UNL     1      21.677  -0.117   4.423  1.00  0.00     0.465 C 
HETATM    7  N4  UNL     1      21.029  -0.782   5.542  1.00  0.00    -0.028 N 
ATOM      8  H41 UNL     1      20.786  -0.146   6.302  1.00  0.00     0.281 HD
ATOM      9  H42 UNL     1      20.082  -1.096   5.330  1.00  0.00     0.281 HD
ENDROOT
BRANCH   1  10
HETATM   10  N2  UNL     1      21.952  -2.056   7.367  1.00  0.00    -0.308 N 
ATOM     11  H2  UNL     1      22.723  -2.544   7.822  1.00  0.00     0.178 HD
BRANCH  10  12
HETATM   12  N1  UNL     1      20.880  -1.547   8.066  1.00  0.00    -0.140 NA
BRANCH  12  13
HETATM   13  C2  UNL     1      21.004  -2.038   9.448  1.00  0.00     0.091 C 
HETATM   14  C1  UNL     1      19.686  -2.742   9.781  1.00  0.00     0.029 C 
HETATM   15  C3  UNL     1      21.307  -0.940  10.410  1.00  0.00     0.029 C 
ENDBRANCH  12  13
ENDBRANCH  10  12
ENDBRANCH   1  10
TORSDOF 3
ENDMDL
MODEL 4
REMARK VINA RESULT: -4.729820022      1.479      4.683
REMARK  3 active torsions:
REMARK  status: ('A' for Active; 'I' for Inactive)
REMARK    1  A    between atoms: C2_2  and  N1_4 
REMARK    2  A    between atoms: N1_4  and  N2_5 
REMARK    3  A    between atoms: N2_5  and  C4_7 
ROOT
HETATM    1  C4  UNL     1      21.793  -1.843   5.998  1.00  0.00     0.323 C 
HETATM    2  C5  UNL     1      23.218  -1.565   5.617  1.00  0.00     0.289 C 
HETATM    3  N3  UNL     1      23.021  -1.206   4.202  1.00  0.00    -0.048 N 
ATOM      4  H31 UNL     1      22.832  -1.981   3.567  1.00  0.00     0.279 HD
ATOM      5  H32 UNL     1      23.854  -0.893   3.701  1.00  0.00     0.279 HD
HETATM    6  C6  UNL     1      21.960  -0.226   4.342  1.00  0.00     0.465 C 
HETATM    7  N4  UNL     1      21.079  -0.770   5.364  1.00  0.00    -0.028 N 
ATOM      8  H41 UNL     1      20.745  -0.065   6.022  1.00  0.00     0.281 HD
ATOM      9  H42 UNL     1      20.169  -1.050   5.002  1.00  0.00     0.281 HD
ENDROOT
BRANCH   1  10
HETATM   10  N2  UNL     1      21.575  -1.944   7.408  1.00  0.00    -0.308 N 
ATOM     11  H2  UNL     1      22.299  -2.254   8.055  1.00  0.00     0.178 HD
BRANCH  10  12
HETATM   12  N1  UNL     1      20.310  -1.590   7.825  1.00  0.00    -0.140 NA
BRANCH  12  13
HETATM   13  C2  UNL     1      20.145  -2.131   9.183  1.00  0.00     0.091 C 
HETATM   14  C1  UNL     1      21.153  -1.399  10.071  1.00  0.00     0.029 C 
HETATM   15  C3  UNL     1      20.337  -3.609   9.226  1.00  0.00     0.029 C 
ENDBRANCH  12  13
ENDBRANCH  10  12
ENDBRANCH   1  10
TORSDOF 3
ENDMDL
MODEL 5
REMARK VINA RESULT: -4.666514111      1.064      1.352
REMARK  3 active torsions:
REMARK  status: ('A' for Active; 'I' for Inactive)
REMARK    1  A    between atoms: C2_2  and  N1_4 
REMARK    2  A    between atoms: N1_4  and  N2_5 
REMARK    3  A    between atoms: N2_5  and  C4_7 
ROOT
HETATM    1  C4  UNL     1      21.520  -2.442   7.626  1.00  0.00     0.323 C 
HETATM    2  C5  UNL     1      20.262  -1.625   7.549  1.00  0.00     0.289 C 
HETATM    3  N3  UNL     1      19.662  -1.988   8.844  1.00  0.00    -0.048 N 
ATOM      4  H31 UNL     1      19.248  -2.918   8.899  1.00  0.00     0.279 HD
ATOM      5  H32 UNL     1      18.799  -1.501   9.088  1.00  0.00     0.279 HD
HETATM    6  C6  UNL     1      20.795  -1.745   9.718  1.00  0.00     0.465 C 
HETATM    7  N4  UNL     1      21.949  -2.237   8.981  1.00  0.00    -0.028 N 
ATOM      8  H41 UNL     1      22.763  -1.627   9.057  1.00  0.00     0.281 HD
ATOM      9  H42 UNL     1      22.370  -3.066   9.400  1.00  0.00     0.281 HD
ENDROOT
BRANCH   1  10
HETATM   10  N2  UNL     1      22.498  -2.101   6.640  1.00  0.00    -0.308 N 
ATOM     11  H2  UNL     1      23.435  -1.781   6.883  1.00  0.00     0.178 HD
BRANCH  10  12
HETATM   12  N1  UNL     1      22.077  -2.239   5.335  1.00  0.00    -0.140 NA
BRANCH  12  13
HETATM   13  C2  UNL     1      22.630  -1.098   4.589  1.00  0.00     0.091 C 
HETATM   14  C1  UNL     1      21.503  -0.071   4.462  1.00  0.00     0.029 C 
HETATM   15  C3  UNL     1      23.166  -1.503   3.258  1.00  0.00     0.029 C 
ENDBRANCH  12  13
ENDBRANCH  10  12
ENDBRANCH   1  10
TORSDOF 3
ENDMDL
