MODEL 1
REMARK VINA RESULT: -9.017290089      0.000      0.000
REMARK  9 active torsions:
REMARK  status: ('A' for Active; 'I' for Inactive)
REMARK    1  A    between atoms: C2_2  and  N2_4 
REMARK    2  A    between atoms: N2_4  and  C3_6 
REMARK    3  A    between atoms: C4_9  and  C5_10 
REMARK    4  A    between atoms: C5_10  and  O2_11 
REMARK    5  A    between atoms: C5_10  and  C6_13 
REMARK    6  A    between atoms: C9_16  and  N3_17 
REMARK    7  A    between atoms: N3_17  and  C10_19 
REMARK    8  A    between atoms: C10_19  and  O3_20 
REMARK    9  A    between atoms: C10_19  and  C11_22 
ROOT
HETATM    1  C6  UNL     1      18.481  49.669  17.114  1.00  0.00    -0.023 A 
HETATM    2  C7  UNL     1      17.224  50.112  16.766  1.00  0.00     0.012 A 
HETATM    3  C8  UNL     1      16.324  50.456  17.770  1.00  0.00     0.030 A 
HETATM    4  C9  UNL     1      16.648  50.371  19.096  1.00  0.00     0.030 A 
HETATM    5  C14 UNL     1      17.899  49.930  19.446  1.00  0.00     0.030 A 
HETATM    6  C15 UNL     1      18.797  49.586  18.444  1.00  0.00     0.012 A 
ENDROOT
BRANCH   4   7
HETATM    7  N3  UNL     1      15.724  50.720  20.088  1.00  0.00    -0.359 N 
ATOM      8  H3  UNL     1      15.356  50.002  20.712  1.00  0.00     0.162 HD
BRANCH   7   9
HETATM    9  C10 UNL     1      15.292  52.081  20.234  1.00  0.00     0.276 C 
BRANCH   9  10
HETATM   10  O3  UNL     1      13.948  52.283  19.937  1.00  0.00    -0.371 OA
ATOM     11  H3  UNL     1      13.438  52.621  20.664  1.00  0.00     0.212 HD
ENDBRANCH   9  10
BRANCH   9  12
HETATM   12  C11 UNL     1      15.662  52.626  21.555  1.00  0.00     0.142 A 
HETATM   13  N4  UNL     1      16.595  53.607  21.584  1.00  0.00    -0.292 N 
HETATM   14  N5  UNL     1      16.967  54.133  22.742  1.00  0.00    -0.251 N 
ATOM     15  H4  UNL     1      17.011  53.941  20.715  1.00  0.00     0.187 HD
HETATM   16  C12 UNL     1      16.389  53.660  23.861  1.00  0.00     0.341 A 
ATOM     17  H5  UNL     1      17.669  54.873  22.783  1.00  0.00     0.191 HD
HETATM   18  O4  UNL     1      16.724  54.141  24.972  1.00  0.00    -0.245 OA
HETATM   19  N6  UNL     1      15.458  52.685  23.863  1.00  0.00    -0.273 N 
HETATM   20  C13 UNL     1      15.072  52.142  22.697  1.00  0.00     0.278 A 
ATOM     21  H6  UNL     1      15.052  52.364  24.742  1.00  0.00     0.173 HD
HETATM   22  O5  UNL     1      14.220  51.241  22.633  1.00  0.00    -0.266 OA
ENDBRANCH   9  12
ENDBRANCH   7   9
ENDBRANCH   4   7
BRANCH   1  23
HETATM   23  C5  UNL     1      19.435  49.301  16.055  1.00  0.00     0.212 C 
BRANCH  23  24
HETATM   24  C4  UNL     1      19.992  47.928  16.361  1.00  0.00     0.131 A 
HETATM   25  C3  UNL     1      21.275  47.515  16.441  1.00  0.00     0.133 A 
HETATM   26  S1  UNL     1      20.752  45.985  16.796  1.00  0.00     0.057 SA
HETATM   27  O1  UNL     1      19.419  46.838  16.616  1.00  0.00    -0.271 OA
BRANCH  25  28
HETATM   28  N2  UNL     1      22.581  48.145  16.283  1.00  0.00    -0.336 N 
ATOM     29  H2  UNL     1      23.070  48.122  15.388  1.00  0.00     0.168 HD
BRANCH  28  30
HETATM   30  C2  UNL     1      23.149  48.785  17.398  1.00  0.00     0.107 C 
HETATM   31  C1  UNL     1      24.386  48.539  17.766  1.00  0.00     0.060 C 
HETATM   32  N1  UNL     1      22.395  49.716  18.156  1.00  0.00    -0.084 NA
ENDBRANCH  28  30
ENDBRANCH  25  28
ENDBRANCH  23  24
BRANCH  23  33
HETATM   33  O2  UNL     1      20.492  50.237  16.071  1.00  0.00    -0.384 OA
ATOM     34  H2  UNL     1      20.696  50.486  15.178  1.00  0.00     0.211 HD
ENDBRANCH  23  33
ENDBRANCH   1  23
TORSDOF 9
ENDMDL
MODEL 2
REMARK VINA RESULT: -8.967647628      4.046      9.178
REMARK  9 active torsions:
REMARK  status: ('A' for Active; 'I' for Inactive)
REMARK    1  A    between atoms: C2_2  and  N2_4 
REMARK    2  A    between atoms: N2_4  and  C3_6 
REMARK    3  A    between atoms: C4_9  and  C5_10 
REMARK    4  A    between atoms: C5_10  and  O2_11 
REMARK    5  A    between atoms: C5_10  and  C6_13 
REMARK    6  A    between atoms: C9_16  and  N3_17 
REMARK    7  A    between atoms: N3_17  and  C10_19 
REMARK    8  A    between atoms: C10_19  and  O3_20 
REMARK    9  A    between atoms: C10_19  and  C11_22 
ROOT
HETATM    1  C6  UNL     1      16.173  52.922  24.247  1.00  0.00    -0.023 A 
HETATM    2  C7  UNL     1      17.189  53.248  23.376  1.00  0.00     0.012 A 
HETATM    3  C8  UNL     1      17.022  53.003  22.017  1.00  0.00     0.030 A 
HETATM    4  C9  UNL     1      15.878  52.448  21.514  1.00  0.00     0.030 A 
HETATM    5  C14 UNL     1      14.864  52.122  22.379  1.00  0.00     0.030 A 
HETATM    6  C15 UNL     1      15.030  52.366  23.736  1.00  0.00     0.012 A 
ENDROOT
BRANCH   4   7
HETATM    7  N3  UNL     1      15.734  52.207  20.143  1.00  0.00    -0.359 N 
ATOM      8  H3  UNL     1      15.795  52.983  19.484  1.00  0.00     0.162 HD
BRANCH   7   9
HETATM    9  C10 UNL     1      15.501  50.877  19.658  1.00  0.00     0.276 C 
BRANCH   9  10
HETATM   10  O3  UNL     1      14.174  50.617  19.333  1.00  0.00    -0.371 OA
ATOM     11  H3  UNL     1      14.061  50.154  18.511  1.00  0.00     0.212 HD
ENDBRANCH   9  10
BRANCH   9  12
HETATM   12  C11 UNL     1      16.425  50.533  18.559  1.00  0.00     0.142 A 
HETATM   13  N4  UNL     1      17.398  49.630  18.824  1.00  0.00    -0.292 N 
HETATM   14  N5  UNL     1      18.257  49.284  17.876  1.00  0.00    -0.251 N 
ATOM     15  H4  UNL     1      17.470  49.216  19.753  1.00  0.00     0.187 HD
HETATM   16  C12 UNL     1      18.121  49.858  16.667  1.00  0.00     0.341 A 
ATOM     17  H5  UNL     1      18.997  48.606  18.057  1.00  0.00     0.191 HD
HETATM   18  O4  UNL     1      18.922  49.548  15.749  1.00  0.00    -0.245 OA
HETATM   19  N6  UNL     1      17.163  50.759  16.373  1.00  0.00    -0.273 N 
HETATM   20  C13 UNL     1      16.285  51.119  17.325  1.00  0.00     0.278 A 
ATOM     21  H6  UNL     1      17.104  51.162  15.439  1.00  0.00     0.173 HD
HETATM   22  O5  UNL     1      15.381  51.944  17.118  1.00  0.00    -0.266 OA
ENDBRANCH   9  12
ENDBRANCH   7   9
ENDBRANCH   4   7
BRANCH   1  23
HETATM   23  C5  UNL     1      16.346  53.177  25.687  1.00  0.00     0.212 C 
BRANCH  23  24
HETATM   24  C4  UNL     1      15.214  54.062  26.161  1.00  0.00     0.131 A 
HETATM   25  C3  UNL     1      14.971  55.364  25.901  1.00  0.00     0.133 A 
HETATM   26  S1  UNL     1      13.609  55.289  26.840  1.00  0.00     0.057 SA
HETATM   27  O1  UNL     1      14.227  53.822  26.901  1.00  0.00    -0.271 OA
BRANCH  25  28
HETATM   28  N2  UNL     1      15.626  56.410  25.122  1.00  0.00    -0.336 N 
ATOM     29  H2  UNL     1      16.203  57.118  25.576  1.00  0.00     0.168 HD
BRANCH  28  30
HETATM   30  C2  UNL     1      15.439  56.414  23.729  1.00  0.00     0.107 C 
HETATM   31  C1  UNL     1      16.353  56.907  22.924  1.00  0.00     0.060 C 
HETATM   32  N1  UNL     1      14.256  55.883  23.158  1.00  0.00    -0.084 NA
ENDBRANCH  28  30
ENDBRANCH  25  28
ENDBRANCH  23  24
BRANCH  23  33
HETATM   33  O2  UNL     1      17.568  53.861  25.868  1.00  0.00    -0.384 OA
ATOM     34  H2  UNL     1      18.262  53.367  25.447  1.00  0.00     0.211 HD
ENDBRANCH  23  33
ENDBRANCH   1  23
TORSDOF 9
ENDMDL
MODEL 3
REMARK VINA RESULT: -8.956517775      2.797      8.643
REMARK  9 active torsions:
REMARK  status: ('A' for Active; 'I' for Inactive)
REMARK    1  A    between atoms: C2_2  and  N2_4 
REMARK    2  A    between atoms: N2_4  and  C3_6 
REMARK    3  A    between atoms: C4_9  and  C5_10 
REMARK    4  A    between atoms: C5_10  and  O2_11 
REMARK    5  A    between atoms: C5_10  and  C6_13 
REMARK    6  A    between atoms: C9_16  and  N3_17 
REMARK    7  A    between atoms: N3_17  and  C10_19 
REMARK    8  A    between atoms: C10_19  and  O3_20 
REMARK    9  A    between atoms: C10_19  and  C11_22 
ROOT
HETATM    1  C6  UNL     1      16.134  50.999  19.950  1.00  0.00    -0.023 A 
HETATM    2  C7  UNL     1      15.715  51.203  18.654  1.00  0.00     0.012 A 
HETATM    3  C8  UNL     1      16.539  50.810  17.604  1.00  0.00     0.030 A 
HETATM    4  C9  UNL     1      17.756  50.223  17.817  1.00  0.00     0.030 A 
HETATM    5  C14 UNL     1      18.177  50.019  19.107  1.00  0.00     0.030 A 
HETATM    6  C15 UNL     1      17.355  50.411  20.155  1.00  0.00     0.012 A 
ENDROOT
BRANCH   4   7
HETATM    7  N3  UNL     1      18.570  49.840  16.745  1.00  0.00    -0.359 N 
ATOM      8  H3  UNL     1      18.832  50.526  16.038  1.00  0.00     0.162 HD
BRANCH   7   9
HETATM    9  C10 UNL     1      19.038  48.487  16.634  1.00  0.00     0.276 C 
BRANCH   9  10
HETATM   10  O3  UNL     1      18.668  47.855  15.451  1.00  0.00    -0.371 OA
ATOM     11  H3  UNL     1      19.118  48.182  14.681  1.00  0.00     0.212 HD
ENDBRANCH   9  10
BRANCH   9  12
HETATM   12  C11 UNL     1      20.489  48.395  16.888  1.00  0.00     0.142 A 
HETATM   13  N4  UNL     1      21.138  49.538  17.215  1.00  0.00    -0.292 N 
HETATM   14  N5  UNL     1      22.441  49.515  17.452  1.00  0.00    -0.251 N 
ATOM     15  H4  UNL     1      20.622  50.416  17.278  1.00  0.00     0.187 HD
HETATM   16  C12 UNL     1      23.075  48.332  17.357  1.00  0.00     0.341 A 
ATOM     17  H5  UNL     1      22.946  50.366  17.700  1.00  0.00     0.191 HD
HETATM   18  O4  UNL     1      24.312  48.282  17.577  1.00  0.00    -0.245 OA
HETATM   19  N6  UNL     1      22.457  47.179  17.034  1.00  0.00    -0.273 N 
HETATM   20  C13 UNL     1      21.136  47.187  16.789  1.00  0.00     0.278 A 
ATOM     21  H6  UNL     1      22.987  46.310  16.975  1.00  0.00     0.173 HD
HETATM   22  O5  UNL     1      20.509  46.159  16.487  1.00  0.00    -0.266 OA
ENDBRANCH   9  12
ENDBRANCH   7   9
ENDBRANCH   4   7
BRANCH   1  23
HETATM   23  C5  UNL     1      15.266  51.415  21.064  1.00  0.00     0.212 C 
BRANCH  23  24
HETATM   24  C4  UNL     1      15.876  52.633  21.723  1.00  0.00     0.131 A 
HETATM   25  C3  UNL     1      15.901  52.987  23.026  1.00  0.00     0.133 A 
HETATM   26  S1  UNL     1      16.744  54.355  22.630  1.00  0.00     0.057 SA
HETATM   27  O1  UNL     1      16.505  53.610  21.243  1.00  0.00    -0.271 OA
BRANCH  25  28
HETATM   28  N2  UNL     1      15.399  52.412  24.269  1.00  0.00    -0.336 N 
ATOM     29  H2  UNL     1      16.036  51.995  24.948  1.00  0.00     0.168 HD
BRANCH  28  30
HETATM   30  C2  UNL     1      14.014  52.448  24.506  1.00  0.00     0.107 C 
HETATM   31  C1  UNL     1      13.422  53.552  24.903  1.00  0.00     0.060 C 
HETATM   32  N1  UNL     1      13.220  51.289  24.320  1.00  0.00    -0.084 NA
ENDBRANCH  28  30
ENDBRANCH  25  28
ENDBRANCH  23  24
BRANCH  23  33
HETATM   33  O2  UNL     1      15.220  50.362  22.002  1.00  0.00    -0.384 OA
ATOM     34  H2  UNL     1      14.762  49.625  21.615  1.00  0.00     0.211 HD
ENDBRANCH  23  33
ENDBRANCH   1  23
TORSDOF 9
ENDMDL
MODEL 4
REMARK VINA RESULT: -8.886719608      3.399      8.611
REMARK  9 active torsions:
REMARK  status: ('A' for Active; 'I' for Inactive)
REMARK    1  A    between atoms: C2_2  and  N2_4 
REMARK    2  A    between atoms: N2_4  and  C3_6 
REMARK    3  A    between atoms: C4_9  and  C5_10 
REMARK    4  A    between atoms: C5_10  and  O2_11 
REMARK    5  A    between atoms: C5_10  and  C6_13 
REMARK    6  A    between atoms: C9_16  and  N3_17 
REMARK    7  A    between atoms: N3_17  and  C10_19 
REMARK    8  A    between atoms: C10_19  and  O3_20 
REMARK    9  A    between atoms: C10_19  and  C11_22 
ROOT
HETATM    1  C6  UNL     1      15.567  51.771  21.594  1.00  0.00    -0.023 A 
HETATM    2  C7  UNL     1      14.697  51.170  20.712  1.00  0.00     0.012 A 
HETATM    3  C8  UNL     1      15.208  50.380  19.687  1.00  0.00     0.030 A 
HETATM    4  C9  UNL     1      16.551  50.178  19.526  1.00  0.00     0.030 A 
HETATM    5  C14 UNL     1      17.421  50.776  20.403  1.00  0.00     0.030 A 
HETATM    6  C15 UNL     1      16.911  51.565  21.426  1.00  0.00     0.012 A 
ENDROOT
BRANCH   4   7
HETATM    7  N3  UNL     1      17.042  49.382  18.485  1.00  0.00    -0.359 N 
ATOM      8  H3  UNL     1      16.472  48.619  18.120  1.00  0.00     0.162 HD
BRANCH   7   9
HETATM    9  C10 UNL     1      18.341  49.631  17.928  1.00  0.00     0.276 C 
BRANCH   9  10
HETATM   10  O3  UNL     1      19.153  48.504  17.857  1.00  0.00    -0.371 OA
ATOM     11  H3  UNL     1      19.679  48.455  17.067  1.00  0.00     0.212 HD
ENDBRANCH   9  10
BRANCH   9  12
HETATM   12  C11 UNL     1      18.248  50.337  16.635  1.00  0.00     0.142 A 
HETATM   13  N4  UNL     1      17.058  50.900  16.317  1.00  0.00    -0.292 N 
HETATM   14  N5  UNL     1      16.916  51.545  15.169  1.00  0.00    -0.251 N 
ATOM     15  H4  UNL     1      16.272  50.828  16.963  1.00  0.00     0.187 HD
HETATM   16  C12 UNL     1      17.983  51.613  14.352  1.00  0.00     0.341 A 
ATOM     17  H5  UNL     1      16.027  51.975  14.912  1.00  0.00     0.191 HD
HETATM   18  O4  UNL     1      17.876  52.219  13.256  1.00  0.00    -0.245 OA
HETATM   19  N6  UNL     1      19.179  51.063  14.641  1.00  0.00    -0.273 N 
HETATM   20  C13 UNL     1      19.337  50.406  15.801  1.00  0.00     0.278 A 
ATOM     21  H6  UNL     1      19.955  51.146  13.984  1.00  0.00     0.173 HD
HETATM   22  O5  UNL     1      20.413  49.877  16.125  1.00  0.00    -0.266 OA
ENDBRANCH   9  12
ENDBRANCH   7   9
ENDBRANCH   4   7
BRANCH   1  23
HETATM   23  C5  UNL     1      15.031  52.610  22.679  1.00  0.00     0.212 C 
BRANCH  23  24
HETATM   24  C4  UNL     1      16.189  53.254  23.410  1.00  0.00     0.131 A 
HETATM   25  C3  UNL     1      16.706  54.494  23.285  1.00  0.00     0.133 A 
HETATM   26  S1  UNL     1      17.822  54.139  24.455  1.00  0.00     0.057 SA
HETATM   27  O1  UNL     1      16.953  52.812  24.306  1.00  0.00    -0.271 OA
BRANCH  25  28
HETATM   28  N2  UNL     1      16.413  55.665  22.465  1.00  0.00    -0.336 N 
ATOM     29  H2  UNL     1      16.642  55.680  21.471  1.00  0.00     0.168 HD
BRANCH  28  30
HETATM   30  C2  UNL     1      15.806  56.772  23.082  1.00  0.00     0.107 C 
HETATM   31  C1  UNL     1      14.599  56.686  23.594  1.00  0.00     0.060 C 
HETATM   32  N1  UNL     1      16.485  58.013  23.168  1.00  0.00    -0.084 NA
ENDBRANCH  28  30
ENDBRANCH  25  28
ENDBRANCH  23  24
BRANCH  23  33
HETATM   33  O2  UNL     1      14.332  51.774  23.576  1.00  0.00    -0.384 OA
ATOM     34  H2  UNL     1      13.499  51.535  23.187  1.00  0.00     0.211 HD
ENDBRANCH  23  33
ENDBRANCH   1  23
TORSDOF 9
ENDMDL
MODEL 5
REMARK VINA RESULT: -8.879020755      3.004      8.549
REMARK  9 active torsions:
REMARK  status: ('A' for Active; 'I' for Inactive)
REMARK    1  A    between atoms: C2_2  and  N2_4 
REMARK    2  A    between atoms: N2_4  and  C3_6 
REMARK    3  A    between atoms: C4_9  and  C5_10 
REMARK    4  A    between atoms: C5_10  and  O2_11 
REMARK    5  A    between atoms: C5_10  and  C6_13 
REMARK    6  A    between atoms: C9_16  and  N3_17 
REMARK    7  A    between atoms: N3_17  and  C10_19 
REMARK    8  A    between atoms: C10_19  and  O3_20 
REMARK    9  A    between atoms: C10_19  and  C11_22 
ROOT
HETATM    1  C6  UNL     1      15.697  50.981  19.368  1.00  0.00    -0.023 A 
HETATM    2  C7  UNL     1      15.975  51.062  18.022  1.00  0.00     0.012 A 
HETATM    3  C8  UNL     1      17.156  50.507  17.538  1.00  0.00     0.030 A 
HETATM    4  C9  UNL     1      18.053  49.881  18.359  1.00  0.00     0.030 A 
HETATM    5  C14 UNL     1      17.780  49.799  19.701  1.00  0.00     0.030 A 
HETATM    6  C15 UNL     1      16.601  50.352  20.184  1.00  0.00     0.012 A 
ENDROOT
BRANCH   4   7
HETATM    7  N3  UNL     1      19.237  49.335  17.850  1.00  0.00    -0.359 N 
ATOM      8  H3  UNL     1      19.924  48.933  18.488  1.00  0.00     0.162 HD
BRANCH   7   9
HETATM    9  C10 UNL     1      19.491  49.335  16.437  1.00  0.00     0.276 C 
BRANCH   9  10
HETATM   10  O3  UNL     1      20.792  49.692  16.096  1.00  0.00    -0.371 OA
ATOM     11  H3  UNL     1      20.845  50.340  15.403  1.00  0.00     0.212 HD
ENDBRANCH   9  10
BRANCH   9  12
HETATM   12  C11 UNL     1      19.077  48.063  15.813  1.00  0.00     0.142 A 
HETATM   13  N4  UNL     1      17.996  48.092  14.999  1.00  0.00    -0.292 N 
HETATM   14  N5  UNL     1      17.578  46.980  14.413  1.00  0.00    -0.251 N 
ATOM     15  H4  UNL     1      17.504  48.970  14.837  1.00  0.00     0.187 HD
HETATM   16  C12 UNL     1      18.261  45.847  14.658  1.00  0.00     0.341 A 
ATOM     17  H5  UNL     1      16.765  46.982  13.797  1.00  0.00     0.191 HD
HETATM   18  O4  UNL     1      17.886  44.777  14.115  1.00  0.00    -0.245 OA
HETATM   19  N6  UNL     1      19.340  45.787  15.463  1.00  0.00    -0.273 N 
HETATM   20  C13 UNL     1      19.775  46.907  16.065  1.00  0.00     0.278 A 
ATOM     21  H6  UNL     1      19.821  44.900  15.614  1.00  0.00     0.173 HD
HETATM   22  O5  UNL     1      20.762  46.917  16.818  1.00  0.00    -0.266 OA
ENDBRANCH   9  12
ENDBRANCH   7   9
ENDBRANCH   4   7
BRANCH   1  23
HETATM   23  C5  UNL     1      14.449  51.568  19.884  1.00  0.00     0.212 C 
BRANCH  23  24
HETATM   24  C4  UNL     1      14.587  51.762  21.378  1.00  0.00     0.131 A 
HETATM   25  C3  UNL     1      15.400  52.589  22.070  1.00  0.00     0.133 A 
HETATM   26  S1  UNL     1      14.763  52.018  23.487  1.00  0.00     0.057 SA
HETATM   27  O1  UNL     1      13.995  51.217  22.345  1.00  0.00    -0.271 OA
BRANCH  25  28
HETATM   28  N2  UNL     1      16.416  53.577  21.723  1.00  0.00    -0.336 N 
ATOM     29  H2  UNL     1      16.857  53.575  20.803  1.00  0.00     0.168 HD
BRANCH  28  30
HETATM   30  C2  UNL     1      16.771  54.532  22.691  1.00  0.00     0.107 C 
HETATM   31  C1  UNL     1      17.576  54.226  23.683  1.00  0.00     0.060 C 
HETATM   32  N1  UNL     1      16.266  55.855  22.619  1.00  0.00    -0.084 NA
ENDBRANCH  28  30
ENDBRANCH  25  28
ENDBRANCH  23  24
BRANCH  23  33
HETATM   33  O2  UNL     1      13.400  50.657  19.637  1.00  0.00    -0.384 OA
ATOM     34  H2  UNL     1      13.718  49.774  19.785  1.00  0.00     0.211 HD
ENDBRANCH  23  33
ENDBRANCH   1  23
TORSDOF 9
ENDMDL
