MODEL 1
REMARK VINA RESULT: -9.869195055      0.000      0.000
REMARK  10 active torsions:
REMARK  status: ('A' for Active; 'I' for Inactive)
REMARK    1  A    between atoms: C2_3  and  C3_4 
REMARK    2  A    between atoms: C3_4  and  C4_5 
REMARK    3  A    between atoms: C3_4  and  C11_17 
REMARK       I    between atoms: C4_5  and  N2_7 
REMARK    4  A    between atoms: N2_7  and  C5_9 
REMARK    5  A    between atoms: C8_12  and  O2_13 
REMARK    6  A    between atoms: C11_17  and  O3_18 
REMARK    7  A    between atoms: C11_17  and  N3_20 
REMARK    8  A    between atoms: N3_20  and  C12_22 
REMARK    9  A    between atoms: C15_25  and  O4_26 
REMARK   10  A    between atoms: N4_33  and  N5_34 
ROOT
HETATM    1  C3  UNL     1      16.807  50.137  17.718  1.00  0.00     0.187 C 
ENDROOT
BRANCH   1   2
HETATM    2  C2  UNL     1      16.427  51.217  16.784  1.00  0.00     0.119 A 
HETATM    3  C1  UNL     1      16.938  51.496  15.532  1.00  0.00     0.173 A 
HETATM    4  N1  UNL     1      18.029  50.884  14.862  1.00  0.00    -0.078 NA
HETATM    5  N4  UNL     1      16.242  52.578  15.050  1.00  0.00    -0.189 N 
HETATM    6  C18 UNL     1      15.365  52.910  15.981  1.00  0.00     0.392 A 
HETATM    7  O5  UNL     1      15.463  52.112  17.023  1.00  0.00    -0.260 OA
HETATM    8  O6  UNL     1      14.514  53.875  15.926  1.00  0.00    -0.236 OA
BRANCH   5   9
HETATM    9  N5  UNL     1      16.460  53.150  13.785  1.00  0.00    -0.333 N 
ATOM     10  H52 UNL     1      16.170  52.818  12.865  1.00  0.00     0.177 HD
ATOM     11  H51 UNL     1      16.985  54.011  13.633  1.00  0.00     0.177 HD
ENDBRANCH   5   9
ENDBRANCH   1   2
BRANCH   1  12
HETATM   12  C4  UNL     1      16.306  50.541  19.113  1.00  0.00     0.237 C 
HETATM   13  O1  UNL     1      15.625  49.644  19.689  1.00  0.00    -0.272 OA
HETATM   14  N2  UNL     1      16.554  51.764  19.709  1.00  0.00    -0.326 N 
ATOM     15  H2  UNL     1      17.081  52.478  19.207  1.00  0.00     0.169 HD
BRANCH  14  16
HETATM   16  C5  UNL     1      16.077  52.025  21.013  1.00  0.00     0.034 A 
HETATM   17  C6  UNL     1      14.834  51.654  21.466  1.00  0.00     0.032 A 
HETATM   18  C7  UNL     1      14.388  51.936  22.751  1.00  0.00     0.039 A 
HETATM   19  C8  UNL     1      15.210  52.620  23.634  1.00  0.00     0.065 A 
HETATM   20  C9  UNL     1      16.458  53.006  23.224  1.00  0.00     0.039 A 
HETATM   21  C10 UNL     1      16.870  52.702  21.923  1.00  0.00     0.032 A 
BRANCH  19  22
HETATM   22  O2  UNL     1      14.801  52.932  24.934  1.00  0.00    -0.361 OA
ATOM     23  H2  UNL     1      14.911  52.322  25.654  1.00  0.00     0.217 HD
ENDBRANCH  19  22
ENDBRANCH  14  16
ENDBRANCH   1  12
BRANCH   1  24
HETATM   24  C11 UNL     1      18.294  49.974  17.958  1.00  0.00     0.237 C 
BRANCH  24  25
HETATM   25  O3  UNL     1      18.389  49.572  19.308  1.00  0.00    -0.376 OA
ATOM     26  H3  UNL     1      19.321  49.459  19.456  1.00  0.00     0.212 HD
ENDBRANCH  24  25
BRANCH  24  27
HETATM   27  N3  UNL     1      18.782  48.819  17.211  1.00  0.00    -0.363 N 
ATOM     28  H3  UNL     1      18.128  48.203  16.726  1.00  0.00     0.162 HD
BRANCH  27  29
HETATM   29  C12 UNL     1      20.159  48.565  17.168  1.00  0.00     0.030 A 
HETATM   30  C13 UNL     1      20.633  47.366  16.734  1.00  0.00     0.032 A 
HETATM   31  C14 UNL     1      22.010  47.093  16.681  1.00  0.00     0.039 A 
HETATM   32  C15 UNL     1      22.876  48.090  17.083  1.00  0.00     0.065 A 
HETATM   33  C16 UNL     1      22.428  49.302  17.518  1.00  0.00     0.039 A 
HETATM   34  C17 UNL     1      21.074  49.545  17.565  1.00  0.00     0.032 A 
BRANCH  32  35
HETATM   35  O4  UNL     1      24.235  47.845  17.036  1.00  0.00    -0.361 OA
ATOM     36  H4  UNL     1      24.597  47.175  17.604  1.00  0.00     0.217 HD
ENDBRANCH  32  35
ENDBRANCH  27  29
ENDBRANCH  24  27
ENDBRANCH   1  24
TORSDOF 10
ENDMDL
MODEL 2
REMARK VINA RESULT: -9.634589373      0.945      1.333
REMARK  10 active torsions:
REMARK  status: ('A' for Active; 'I' for Inactive)
REMARK    1  A    between atoms: C2_3  and  C3_4 
REMARK    2  A    between atoms: C3_4  and  C4_5 
REMARK    3  A    between atoms: C3_4  and  C11_17 
REMARK       I    between atoms: C4_5  and  N2_7 
REMARK    4  A    between atoms: N2_7  and  C5_9 
REMARK    5  A    between atoms: C8_12  and  O2_13 
REMARK    6  A    between atoms: C11_17  and  O3_18 
REMARK    7  A    between atoms: C11_17  and  N3_20 
REMARK    8  A    between atoms: N3_20  and  C12_22 
REMARK    9  A    between atoms: C15_25  and  O4_26 
REMARK   10  A    between atoms: N4_33  and  N5_34 
ROOT
HETATM    1  C3  UNL     1      16.327  50.560  18.452  1.00  0.00     0.187 C 
ENDROOT
BRANCH   1   2
HETATM    2  C2  UNL     1      15.883  51.680  17.599  1.00  0.00     0.119 A 
HETATM    3  C1  UNL     1      16.166  51.917  16.268  1.00  0.00     0.173 A 
HETATM    4  N1  UNL     1      17.038  51.205  15.405  1.00  0.00    -0.078 NA
HETATM    5  N4  UNL     1      15.502  53.068  15.919  1.00  0.00    -0.189 N 
HETATM    6  C18 UNL     1      14.862  53.480  17.000  1.00  0.00     0.392 A 
HETATM    7  O5  UNL     1      15.081  52.667  18.011  1.00  0.00    -0.260 OA
HETATM    8  O6  UNL     1      14.119  54.526  17.101  1.00  0.00    -0.236 OA
BRANCH   5   9
HETATM    9  N5  UNL     1      15.526  53.627  14.629  1.00  0.00    -0.333 N 
ATOM     10  H52 UNL     1      16.080  53.356  13.817  1.00  0.00     0.177 HD
ATOM     11  H51 UNL     1      14.965  54.431  14.347  1.00  0.00     0.177 HD
ENDBRANCH   5   9
ENDBRANCH   1   2
BRANCH   1  12
HETATM   12  C4  UNL     1      16.046  50.954  19.910  1.00  0.00     0.237 C 
HETATM   13  O1  UNL     1      15.476  50.046  20.582  1.00  0.00    -0.272 OA
HETATM   14  N2  UNL     1      16.366  52.180  20.464  1.00  0.00    -0.326 N 
ATOM     15  H2  UNL     1      16.797  52.902  19.888  1.00  0.00     0.169 HD
BRANCH  14  16
HETATM   16  C5  UNL     1      16.096  52.432  21.828  1.00  0.00     0.034 A 
HETATM   17  C6  UNL     1      14.889  52.176  22.433  1.00  0.00     0.032 A 
HETATM   18  C7  UNL     1      14.648  52.447  23.774  1.00  0.00     0.039 A 
HETATM   19  C8  UNL     1      15.650  53.000  24.558  1.00  0.00     0.065 A 
HETATM   20  C9  UNL     1      16.868  53.270  23.995  1.00  0.00     0.039 A 
HETATM   21  C10 UNL     1      17.071  52.981  22.643  1.00  0.00     0.032 A 
BRANCH  19  22
HETATM   22  O2  UNL     1      15.451  53.296  25.910  1.00  0.00    -0.361 OA
ATOM     23  H2  UNL     1      16.152  53.622  26.460  1.00  0.00     0.217 HD
ENDBRANCH  19  22
ENDBRANCH  14  16
ENDBRANCH   1  12
BRANCH   1  24
HETATM   24  C11 UNL     1      17.822  50.313  18.482  1.00  0.00     0.237 C 
BRANCH  24  25
HETATM   25  O3  UNL     1      18.050  49.690  19.728  1.00  0.00    -0.376 OA
ATOM     26  H3  UNL     1      17.328  49.081  19.824  1.00  0.00     0.212 HD
ENDBRANCH  24  25
BRANCH  24  27
HETATM   27  N3  UNL     1      18.163  49.282  17.506  1.00  0.00    -0.363 N 
ATOM     28  H3  UNL     1      17.434  48.837  16.948  1.00  0.00     0.162 HD
BRANCH  27  29
HETATM   29  C12 UNL     1      19.504  48.911  17.344  1.00  0.00     0.030 A 
HETATM   30  C13 UNL     1      20.507  49.716  17.789  1.00  0.00     0.032 A 
HETATM   31  C14 UNL     1      21.858  49.361  17.639  1.00  0.00     0.039 A 
HETATM   32  C15 UNL     1      22.139  48.157  17.024  1.00  0.00     0.065 A 
HETATM   33  C16 UNL     1      21.154  47.331  16.573  1.00  0.00     0.039 A 
HETATM   34  C17 UNL     1      19.837  47.701  16.727  1.00  0.00     0.032 A 
BRANCH  32  35
HETATM   35  O4  UNL     1      23.461  47.786  16.868  1.00  0.00    -0.361 OA
ATOM     36  H4  UNL     1      23.657  46.885  16.639  1.00  0.00     0.217 HD
ENDBRANCH  32  35
ENDBRANCH  27  29
ENDBRANCH  24  27
ENDBRANCH   1  24
TORSDOF 10
ENDMDL
MODEL 3
REMARK VINA RESULT: -8.933741102      4.502      9.944
REMARK  10 active torsions:
REMARK  status: ('A' for Active; 'I' for Inactive)
REMARK    1  A    between atoms: C2_3  and  C3_4 
REMARK    2  A    between atoms: C3_4  and  C4_5 
REMARK    3  A    between atoms: C3_4  and  C11_17 
REMARK       I    between atoms: C4_5  and  N2_7 
REMARK    4  A    between atoms: N2_7  and  C5_9 
REMARK    5  A    between atoms: C8_12  and  O2_13 
REMARK    6  A    between atoms: C11_17  and  O3_18 
REMARK    7  A    between atoms: C11_17  and  N3_20 
REMARK    8  A    between atoms: N3_20  and  C12_22 
REMARK    9  A    between atoms: C15_25  and  O4_26 
REMARK   10  A    between atoms: N4_33  and  N5_34 
ROOT
HETATM    1  C3  UNL     1      14.847  52.787  24.670  1.00  0.00     0.187 C 
ENDROOT
BRANCH   1   2
HETATM    2  C2  UNL     1      16.161  53.232  25.177  1.00  0.00     0.119 A 
HETATM    3  C1  UNL     1      16.751  52.967  26.396  1.00  0.00     0.173 A 
HETATM    4  N1  UNL     1      16.207  52.288  27.517  1.00  0.00    -0.078 NA
HETATM    5  N4  UNL     1      17.983  53.577  26.384  1.00  0.00    -0.189 N 
HETATM    6  C18 UNL     1      18.100  54.169  25.208  1.00  0.00     0.392 A 
HETATM    7  O5  UNL     1      17.023  53.977  24.477  1.00  0.00    -0.260 OA
HETATM    8  O6  UNL     1      19.108  54.854  24.790  1.00  0.00    -0.236 OA
BRANCH   5   9
HETATM    9  N5  UNL     1      18.898  53.517  27.449  1.00  0.00    -0.333 N 
ATOM     10  H52 UNL     1      19.182  52.717  28.014  1.00  0.00     0.177 HD
ATOM     11  H51 UNL     1      19.403  54.326  27.811  1.00  0.00     0.177 HD
ENDBRANCH   5   9
ENDBRANCH   1   2
BRANCH   1  12
HETATM   12  C4  UNL     1      15.085  52.114  23.309  1.00  0.00     0.237 C 
HETATM   13  O1  UNL     1      14.177  51.298  22.979  1.00  0.00    -0.272 OA
HETATM   14  N2  UNL     1      16.181  52.352  22.501  1.00  0.00    -0.326 N 
ATOM     15  H2  UNL     1      16.912  52.993  22.808  1.00  0.00     0.169 HD
BRANCH  14  16
HETATM   16  C5  UNL     1      16.289  51.707  21.248  1.00  0.00     0.034 A 
HETATM   17  C6  UNL     1      15.647  52.127  20.109  1.00  0.00     0.032 A 
HETATM   18  C7  UNL     1      15.762  51.465  18.893  1.00  0.00     0.039 A 
HETATM   19  C8  UNL     1      16.550  50.328  18.797  1.00  0.00     0.065 A 
HETATM   20  C9  UNL     1      17.209  49.876  19.908  1.00  0.00     0.039 A 
HETATM   21  C10 UNL     1      17.069  50.571  21.112  1.00  0.00     0.032 A 
BRANCH  19  22
HETATM   22  O2  UNL     1      16.690  49.625  17.597  1.00  0.00    -0.361 OA
ATOM     23  H2  UNL     1      17.397  49.008  17.456  1.00  0.00     0.217 HD
ENDBRANCH  19  22
ENDBRANCH  14  16
ENDBRANCH   1  12
BRANCH   1  24
HETATM   24  C11 UNL     1      13.879  53.893  24.304  1.00  0.00     0.237 C 
BRANCH  24  25
HETATM   25  O3  UNL     1      12.603  53.322  24.503  1.00  0.00    -0.376 OA
ATOM     26  H3  UNL     1      12.690  52.822  25.305  1.00  0.00     0.212 HD
ENDBRANCH  24  25
BRANCH  24  27
HETATM   27  N3  UNL     1      13.951  54.952  25.306  1.00  0.00    -0.363 N 
ATOM     28  H3  UNL     1      13.697  54.763  26.276  1.00  0.00     0.162 HD
BRANCH  27  29
HETATM   29  C12 UNL     1      14.371  56.231  24.919  1.00  0.00     0.030 A 
HETATM   30  C13 UNL     1      14.283  57.282  25.778  1.00  0.00     0.032 A 
HETATM   31  C14 UNL     1      14.701  58.571  25.411  1.00  0.00     0.039 A 
HETATM   32  C15 UNL     1      15.213  58.741  24.140  1.00  0.00     0.065 A 
HETATM   33  C16 UNL     1      15.316  57.704  23.261  1.00  0.00     0.039 A 
HETATM   34  C17 UNL     1      14.896  56.450  23.642  1.00  0.00     0.032 A 
BRANCH  32  35
HETATM   35  O4  UNL     1      15.634  59.999  23.758  1.00  0.00    -0.361 OA
ATOM     36  H4  UNL     1      16.317  60.071  23.101  1.00  0.00     0.217 HD
ENDBRANCH  32  35
ENDBRANCH  27  29
ENDBRANCH  24  27
ENDBRANCH   1  24
TORSDOF 10
ENDMDL
MODEL 4
REMARK VINA RESULT: -8.680038726      4.559      9.802
REMARK  10 active torsions:
REMARK  status: ('A' for Active; 'I' for Inactive)
REMARK    1  A    between atoms: C2_3  and  C3_4 
REMARK    2  A    between atoms: C3_4  and  C4_5 
REMARK    3  A    between atoms: C3_4  and  C11_17 
REMARK       I    between atoms: C4_5  and  N2_7 
REMARK    4  A    between atoms: N2_7  and  C5_9 
REMARK    5  A    between atoms: C8_12  and  O2_13 
REMARK    6  A    between atoms: C11_17  and  O3_18 
REMARK    7  A    between atoms: C11_17  and  N3_20 
REMARK    8  A    between atoms: N3_20  and  C12_22 
REMARK    9  A    between atoms: C15_25  and  O4_26 
REMARK   10  A    between atoms: N4_33  and  N5_34 
ROOT
HETATM    1  C3  UNL     1      16.189  54.419  24.060  1.00  0.00     0.187 C 
ENDROOT
BRANCH   1   2
HETATM    2  C2  UNL     1      15.108  53.847  24.887  1.00  0.00     0.119 A 
HETATM    3  C1  UNL     1      14.107  54.503  25.575  1.00  0.00     0.173 A 
HETATM    4  N1  UNL     1      13.918  55.898  25.750  1.00  0.00    -0.078 NA
HETATM    5  N4  UNL     1      13.332  53.536  26.169  1.00  0.00    -0.189 N 
HETATM    6  C18 UNL     1      13.861  52.371  25.840  1.00  0.00     0.392 A 
HETATM    7  O5  UNL     1      14.922  52.537  25.079  1.00  0.00    -0.260 OA
HETATM    8  O6  UNL     1      13.437  51.207  26.192  1.00  0.00    -0.236 OA
BRANCH   5   9
HETATM    9  N5  UNL     1      12.193  53.812  26.944  1.00  0.00    -0.333 N 
ATOM     10  H52 UNL     1      12.126  54.233  27.871  1.00  0.00     0.177 HD
ATOM     11  H51 UNL     1      11.240  53.591  26.654  1.00  0.00     0.177 HD
ENDBRANCH   5   9
ENDBRANCH   1   2
BRANCH   1  12
HETATM   12  C4  UNL     1      16.243  53.612  22.754  1.00  0.00     0.237 C 
HETATM   13  O1  UNL     1      16.568  54.300  21.743  1.00  0.00    -0.272 OA
HETATM   14  N2  UNL     1      15.962  52.262  22.657  1.00  0.00    -0.326 N 
ATOM     15  H2  UNL     1      15.673  51.741  23.485  1.00  0.00     0.169 HD
BRANCH  14  16
HETATM   16  C5  UNL     1      16.074  51.603  21.412  1.00  0.00     0.034 A 
HETATM   17  C6  UNL     1      15.049  51.492  20.505  1.00  0.00     0.032 A 
HETATM   18  C7  UNL     1      15.186  50.826  19.293  1.00  0.00     0.039 A 
HETATM   19  C8  UNL     1      16.397  50.239  18.961  1.00  0.00     0.065 A 
HETATM   20  C9  UNL     1      17.446  50.327  19.835  1.00  0.00     0.039 A 
HETATM   21  C10 UNL     1      17.269  51.007  21.043  1.00  0.00     0.032 A 
BRANCH  19  22
HETATM   22  O2  UNL     1      16.579  49.553  17.756  1.00  0.00    -0.361 OA
ATOM     23  H2  UNL     1      17.423  49.518  17.321  1.00  0.00     0.217 HD
ENDBRANCH  19  22
ENDBRANCH  14  16
ENDBRANCH   1  12
BRANCH   1  24
HETATM   24  C11 UNL     1      17.593  54.232  24.597  1.00  0.00     0.237 C 
BRANCH  24  25
HETATM   25  O3  UNL     1      18.265  53.514  23.583  1.00  0.00    -0.376 OA
ATOM     26  H3  UNL     1      18.144  52.602  23.819  1.00  0.00     0.212 HD
ENDBRANCH  24  25
BRANCH  24  27
HETATM   27  N3  UNL     1      18.277  55.521  24.628  1.00  0.00    -0.363 N 
ATOM     28  H3  UNL     1      19.289  55.571  24.509  1.00  0.00     0.162 HD
BRANCH  27  29
HETATM   29  C12 UNL     1      17.528  56.688  24.823  1.00  0.00     0.030 A 
HETATM   30  C13 UNL     1      16.986  57.352  23.767  1.00  0.00     0.032 A 
HETATM   31  C14 UNL     1      16.229  58.522  23.941  1.00  0.00     0.039 A 
HETATM   32  C15 UNL     1      16.046  58.980  25.231  1.00  0.00     0.065 A 
HETATM   33  C16 UNL     1      16.574  58.332  26.307  1.00  0.00     0.039 A 
HETATM   34  C17 UNL     1      17.316  57.189  26.111  1.00  0.00     0.032 A 
BRANCH  32  35
HETATM   35  O4  UNL     1      15.302  60.127  25.427  1.00  0.00    -0.361 OA
ATOM     36  H4  UNL     1      14.753  60.441  24.718  1.00  0.00     0.217 HD
ENDBRANCH  32  35
ENDBRANCH  27  29
ENDBRANCH  24  27
ENDBRANCH   1  24
TORSDOF 10
ENDMDL
MODEL 5
REMARK VINA RESULT: -8.674548323      2.486      6.246
REMARK  10 active torsions:
REMARK  status: ('A' for Active; 'I' for Inactive)
REMARK    1  A    between atoms: C2_3  and  C3_4 
REMARK    2  A    between atoms: C3_4  and  C4_5 
REMARK    3  A    between atoms: C3_4  and  C11_17 
REMARK       I    between atoms: C4_5  and  N2_7 
REMARK    4  A    between atoms: N2_7  and  C5_9 
REMARK    5  A    between atoms: C8_12  and  O2_13 
REMARK    6  A    between atoms: C11_17  and  O3_18 
REMARK    7  A    between atoms: C11_17  and  N3_20 
REMARK    8  A    between atoms: N3_20  and  C12_22 
REMARK    9  A    between atoms: C15_25  and  O4_26 
REMARK   10  A    between atoms: N4_33  and  N5_34 
ROOT
HETATM    1  C3  UNL     1      19.508  49.652  15.943  1.00  0.00     0.187 C 
ENDROOT
BRANCH   1   2
HETATM    2  C2  UNL     1      19.553  48.178  15.871  1.00  0.00     0.119 A 
HETATM    3  C1  UNL     1      20.388  47.306  16.541  1.00  0.00     0.173 A 
HETATM    4  N1  UNL     1      21.485  47.603  17.391  1.00  0.00    -0.078 NA
HETATM    5  N4  UNL     1      20.024  46.036  16.162  1.00  0.00    -0.189 N 
HETATM    6  C18 UNL     1      19.022  46.167  15.310  1.00  0.00     0.392 A 
HETATM    7  O5  UNL     1      18.730  47.436  15.122  1.00  0.00    -0.260 OA
HETATM    8  O6  UNL     1      18.388  45.215  14.717  1.00  0.00    -0.236 OA
BRANCH   5   9
HETATM    9  N5  UNL     1      20.633  44.867  16.652  1.00  0.00    -0.333 N 
ATOM     10  H52 UNL     1      21.504  44.760  17.171  1.00  0.00     0.177 HD
ATOM     11  H51 UNL     1      20.254  43.930  16.518  1.00  0.00     0.177 HD
ENDBRANCH   5   9
ENDBRANCH   1   2
BRANCH   1  12
HETATM   12  C4  UNL     1      18.762  50.025  17.233  1.00  0.00     0.237 C 
HETATM   13  O1  UNL     1      19.359  50.895  17.933  1.00  0.00    -0.272 OA
HETATM   14  N2  UNL     1      17.556  49.476  17.626  1.00  0.00    -0.326 N 
ATOM     15  H2  UNL     1      17.114  48.755  17.056  1.00  0.00     0.169 HD
BRANCH  14  16
HETATM   16  C5  UNL     1      16.933  49.914  18.817  1.00  0.00     0.034 A 
HETATM   17  C6  UNL     1      17.417  49.657  20.077  1.00  0.00     0.032 A 
HETATM   18  C7  UNL     1      16.776  50.090  21.231  1.00  0.00     0.039 A 
HETATM   19  C8  UNL     1      15.595  50.811  21.136  1.00  0.00     0.065 A 
HETATM   20  C9  UNL     1      15.079  51.090  19.899  1.00  0.00     0.039 A 
HETATM   21  C10 UNL     1      15.755  50.639  18.763  1.00  0.00     0.032 A 
BRANCH  19  22
HETATM   22  O2  UNL     1      14.912  51.261  22.270  1.00  0.00    -0.361 OA
ATOM     23  H2  UNL     1      14.880  50.753  23.071  1.00  0.00     0.217 HD
ENDBRANCH  19  22
ENDBRANCH  14  16
ENDBRANCH   1  12
BRANCH   1  24
HETATM   24  C11 UNL     1      18.659  50.332  14.888  1.00  0.00     0.237 C 
BRANCH  24  25
HETATM   25  O3  UNL     1      17.384  49.739  15.027  1.00  0.00    -0.376 OA
ATOM     26  H3  UNL     1      17.111  49.971  15.907  1.00  0.00     0.212 HD
ENDBRANCH  24  25
BRANCH  24  27
HETATM   27  N3  UNL     1      18.441  51.726  15.265  1.00  0.00    -0.363 N 
ATOM     28  H3  UNL     1      19.198  52.274  15.675  1.00  0.00     0.162 HD
BRANCH  27  29
HETATM   29  C12 UNL     1      17.182  52.301  15.056  1.00  0.00     0.030 A 
HETATM   30  C13 UNL     1      16.817  52.751  13.825  1.00  0.00     0.032 A 
HETATM   31  C14 UNL     1      15.558  53.329  13.594  1.00  0.00     0.039 A 
HETATM   32  C15 UNL     1      14.691  53.424  14.665  1.00  0.00     0.065 A 
HETATM   33  C16 UNL     1      15.029  52.977  15.907  1.00  0.00     0.039 A 
HETATM   34  C17 UNL     1      16.271  52.418  16.111  1.00  0.00     0.032 A 
BRANCH  32  35
HETATM   35  O4  UNL     1      13.445  53.985  14.461  1.00  0.00    -0.361 OA
ATOM     36  H4  UNL     1      12.710  53.410  14.287  1.00  0.00     0.217 HD
ENDBRANCH  32  35
ENDBRANCH  27  29
ENDBRANCH  24  27
ENDBRANCH   1  24
TORSDOF 10
ENDMDL
