MODEL 1
REMARK VINA RESULT: -9.954341765      0.000      0.000
REMARK  9 active torsions:
REMARK  status: ('A' for Active; 'I' for Inactive)
REMARK    1  A    between atoms: N1_1  and  C1_4 
REMARK    2  A    between atoms: C3_10  and  S1_11 
REMARK    3  A    between atoms: S1_11  and  C4_12 
REMARK    4  A    between atoms: C4_12  and  C5_13 
REMARK    5  A    between atoms: C5_13  and  N4_14 
REMARK    6  A    between atoms: C5_13  and  C6_18 
REMARK       I    between atoms: C6_18  and  N5_20 
REMARK    7  A    between atoms: N5_20  and  N6_22 
REMARK    8  A    between atoms: C7_27  and  N8_28 
REMARK    9  A    between atoms: N8_28  and  C8_30 
ROOT
HETATM    1  C1  UNL     1      16.474  52.543  14.776  1.00  0.00     0.127 A 
HETATM    2  N2  UNL     1      15.921  52.379  15.993  1.00  0.00    -0.327 N 
ATOM      3  H2  UNL     1      15.156  52.993  16.272  1.00  0.00     0.169 HD
HETATM    4  C2  UNL     1      16.336  51.443  16.848  1.00  0.00     0.124 A 
HETATM    5  N3  UNL     1      15.806  51.300  18.066  1.00  0.00    -0.322 N 
ATOM      6  H3  UNL     1      15.043  51.908  18.362  1.00  0.00     0.169 HD
HETATM    7  C3  UNL     1      16.272  50.368  18.894  1.00  0.00     0.147 A 
HETATM    8  N7  UNL     1      17.276  49.547  18.541  1.00  0.00    -0.322 N 
ATOM      9  H7  UNL     1      17.594  48.850  19.215  1.00  0.00     0.169 HD
HETATM   10  C7  UNL     1      17.894  49.601  17.318  1.00  0.00     0.123 A 
HETATM   11  C14 UNL     1      17.445  50.550  16.444  1.00  0.00     0.078 A 
HETATM   12  C15 UNL     1      17.977  50.753  15.206  1.00  0.00     0.092 A 
HETATM   13  N9  UNL     1      19.086  50.035  14.727  1.00  0.00    -0.099 NA
HETATM   14  C16 UNL     1      17.501  51.750  14.350  1.00  0.00     0.115 A 
HETATM   15  N10 UNL     1      18.108  51.898  13.069  1.00  0.00    -0.096 NA
ENDROOT
BRANCH   7  16
HETATM   16  S1  UNL     1      15.544  50.195  20.536  1.00  0.00    -0.091 SA
BRANCH  16  17
HETATM   17  C4  UNL     1      16.397  51.380  21.610  1.00  0.00     0.125 C 
BRANCH  17  18
HETATM   18  C5  UNL     1      15.460  52.495  22.044  1.00  0.00     0.285 C 
BRANCH  18  19
HETATM   19  N4  UNL     1      16.257  53.710  22.086  1.00  0.00    -0.066 N 
ATOM     20  H43 UNL     1      16.184  54.270  21.237  1.00  0.00     0.275 HD
ATOM     21  H42 UNL     1      15.891  54.411  22.731  1.00  0.00     0.275 HD
ATOM     22  H41 UNL     1      17.211  53.423  22.300  1.00  0.00     0.275 HD
ENDBRANCH  18  19
BRANCH  18  23
HETATM   23  C6  UNL     1      14.937  52.255  23.414  1.00  0.00     0.267 C 
HETATM   24  O1  UNL     1      13.935  51.509  23.526  1.00  0.00    -0.269 OA
HETATM   25  N5  UNL     1      15.517  52.824  24.553  1.00  0.00    -0.275 N 
ATOM     26  H5  UNL     1      16.332  53.431  24.460  1.00  0.00     0.189 HD
BRANCH  25  27
HETATM   27  N6  UNL     1      14.987  52.566  25.812  1.00  0.00    -0.343 N 
ATOM     28  H62 UNL     1      14.248  51.869  25.902  1.00  0.00     0.176 HD
ATOM     29  H61 UNL     1      15.335  53.068  26.629  1.00  0.00     0.176 HD
ENDBRANCH  25  27
ENDBRANCH  18  23
ENDBRANCH  17  18
ENDBRANCH  16  17
ENDBRANCH   7  16
BRANCH  10  30
HETATM   30  N8  UNL     1      18.815  48.600  16.976  1.00  0.00    -0.342 N 
ATOM     31  H8  UNL     1      18.448  47.754  16.540  1.00  0.00     0.167 HD
BRANCH  30  32
HETATM   32  C8  UNL     1      20.227  48.670  17.189  1.00  0.00     0.033 A 
HETATM   33  C9  UNL     1      20.823  49.664  17.911  1.00  0.00     0.029 A 
HETATM   34  C10 UNL     1      22.197  49.713  18.116  1.00  0.00     0.002 A 
HETATM   35  C11 UNL     1      22.982  48.722  17.570  1.00  0.00     0.000 A 
HETATM   36  C12 UNL     1      22.413  47.707  16.837  1.00  0.00     0.002 A 
HETATM   37  C13 UNL     1      21.035  47.693  16.655  1.00  0.00     0.029 A 
ENDBRANCH  30  32
ENDBRANCH  10  30
BRANCH   1  38
HETATM   38  N1  UNL     1      16.032  53.472  13.974  1.00  0.00    -0.384 N 
ATOM     39  H12 UNL     1      15.832  54.394  14.362  1.00  0.00     0.157 HD
ATOM     40  H11 UNL     1      15.893  53.273  12.984  1.00  0.00     0.157 HD
ENDBRANCH   1  38
TORSDOF 9
ENDMDL
MODEL 2
REMARK VINA RESULT: -9.920770724      1.326      1.413
REMARK  9 active torsions:
REMARK  status: ('A' for Active; 'I' for Inactive)
REMARK    1  A    between atoms: N1_1  and  C1_4 
REMARK    2  A    between atoms: C3_10  and  S1_11 
REMARK    3  A    between atoms: S1_11  and  C4_12 
REMARK    4  A    between atoms: C4_12  and  C5_13 
REMARK    5  A    between atoms: C5_13  and  N4_14 
REMARK    6  A    between atoms: C5_13  and  C6_18 
REMARK       I    between atoms: C6_18  and  N5_20 
REMARK    7  A    between atoms: N5_20  and  N6_22 
REMARK    8  A    between atoms: C7_27  and  N8_28 
REMARK    9  A    between atoms: N8_28  and  C8_30 
ROOT
HETATM    1  C1  UNL     1      16.488  52.531  14.786  1.00  0.00     0.127 A 
HETATM    2  N2  UNL     1      15.937  52.345  16.000  1.00  0.00    -0.327 N 
ATOM      3  H2  UNL     1      15.165  52.948  16.286  1.00  0.00     0.169 HD
HETATM    4  C2  UNL     1      16.362  51.404  16.844  1.00  0.00     0.124 A 
HETATM    5  N3  UNL     1      15.834  51.241  18.060  1.00  0.00    -0.322 N 
ATOM      6  H3  UNL     1      15.063  51.836  18.363  1.00  0.00     0.169 HD
HETATM    7  C3  UNL     1      16.309  50.304  18.876  1.00  0.00     0.147 A 
HETATM    8  N7  UNL     1      17.322  49.498  18.514  1.00  0.00    -0.322 N 
ATOM      9  H7  UNL     1      17.648  48.796  19.179  1.00  0.00     0.169 HD
HETATM   10  C7  UNL     1      17.940  49.574  17.292  1.00  0.00     0.123 A 
HETATM   11  C14 UNL     1      17.480  50.528  16.429  1.00  0.00     0.078 A 
HETATM   12  C15 UNL     1      18.011  50.751  15.194  1.00  0.00     0.092 A 
HETATM   13  N9  UNL     1      19.127  50.052  14.707  1.00  0.00    -0.099 NA
HETATM   14  C16 UNL     1      17.524  51.754  14.350  1.00  0.00     0.115 A 
HETATM   15  N10 UNL     1      18.129  51.924  13.071  1.00  0.00    -0.096 NA
ENDROOT
BRANCH   7  16
HETATM   16  S1  UNL     1      15.583  50.102  20.516  1.00  0.00    -0.091 SA
BRANCH  16  17
HETATM   17  C4  UNL     1      15.359  51.769  21.194  1.00  0.00     0.125 C 
BRANCH  17  18
HETATM   18  C5  UNL     1      16.691  52.485  21.331  1.00  0.00     0.285 C 
BRANCH  18  19
HETATM   19  N4  UNL     1      17.669  51.472  21.693  1.00  0.00    -0.066 N 
ATOM     20  H43 UNL     1      18.619  51.836  21.769  1.00  0.00     0.275 HD
ATOM     21  H42 UNL     1      17.579  51.150  22.657  1.00  0.00     0.275 HD
ATOM     22  H41 UNL     1      17.578  50.723  21.007  1.00  0.00     0.275 HD
ENDBRANCH  18  19
BRANCH  18  23
HETATM   23  C6  UNL     1      16.654  53.484  22.430  1.00  0.00     0.267 C 
HETATM   24  O1  UNL     1      16.792  53.058  23.601  1.00  0.00    -0.269 OA
HETATM   25  N5  UNL     1      16.473  54.852  22.200  1.00  0.00    -0.275 N 
ATOM     26  H5  UNL     1      16.360  55.197  21.246  1.00  0.00     0.189 HD
BRANCH  25  27
HETATM   27  N6  UNL     1      16.446  55.744  23.266  1.00  0.00    -0.343 N 
ATOM     28  H62 UNL     1      17.145  55.652  24.003  1.00  0.00     0.176 HD
ATOM     29  H61 UNL     1      15.737  56.477  23.306  1.00  0.00     0.176 HD
ENDBRANCH  25  27
ENDBRANCH  18  23
ENDBRANCH  17  18
ENDBRANCH  16  17
ENDBRANCH   7  16
BRANCH  10  30
HETATM   30  N8  UNL     1      18.872  48.586  16.938  1.00  0.00    -0.342 N 
ATOM     31  H8  UNL     1      18.516  47.749  16.478  1.00  0.00     0.167 HD
BRANCH  30  32
HETATM   32  C8  UNL     1      20.280  48.661  17.170  1.00  0.00     0.033 A 
HETATM   33  C9  UNL     1      20.862  49.650  17.910  1.00  0.00     0.029 A 
HETATM   34  C10 UNL     1      22.234  49.703  18.133  1.00  0.00     0.002 A 
HETATM   35  C11 UNL     1      23.030  48.722  17.587  1.00  0.00     0.000 A 
HETATM   36  C12 UNL     1      22.475  47.711  16.838  1.00  0.00     0.002 A 
HETATM   37  C13 UNL     1      21.100  47.693  16.638  1.00  0.00     0.029 A 
ENDBRANCH  30  32
ENDBRANCH  10  30
BRANCH   1  38
HETATM   38  N1  UNL     1      16.036  53.465  13.995  1.00  0.00    -0.384 N 
ATOM     39  H12 UNL     1      16.603  53.740  13.193  1.00  0.00     0.157 HD
ATOM     40  H11 UNL     1      15.135  53.904  14.182  1.00  0.00     0.157 HD
ENDBRANCH   1  38
TORSDOF 9
ENDMDL
MODEL 3
REMARK VINA RESULT: -9.698045973      1.147      1.273
REMARK  9 active torsions:
REMARK  status: ('A' for Active; 'I' for Inactive)
REMARK    1  A    between atoms: N1_1  and  C1_4 
REMARK    2  A    between atoms: C3_10  and  S1_11 
REMARK    3  A    between atoms: S1_11  and  C4_12 
REMARK    4  A    between atoms: C4_12  and  C5_13 
REMARK    5  A    between atoms: C5_13  and  N4_14 
REMARK    6  A    between atoms: C5_13  and  C6_18 
REMARK       I    between atoms: C6_18  and  N5_20 
REMARK    7  A    between atoms: N5_20  and  N6_22 
REMARK    8  A    between atoms: C7_27  and  N8_28 
REMARK    9  A    between atoms: N8_28  and  C8_30 
ROOT
HETATM    1  C1  UNL     1      16.515  52.534  14.737  1.00  0.00     0.127 A 
HETATM    2  N2  UNL     1      15.955  52.356  15.949  1.00  0.00    -0.327 N 
ATOM      3  H2  UNL     1      15.183  52.963  16.226  1.00  0.00     0.169 HD
HETATM    4  C2  UNL     1      16.370  51.416  16.800  1.00  0.00     0.124 A 
HETATM    5  N3  UNL     1      15.832  51.261  18.013  1.00  0.00    -0.322 N 
ATOM      6  H3  UNL     1      15.062  51.860  18.308  1.00  0.00     0.169 HD
HETATM    7  C3  UNL     1      16.298  50.326  18.836  1.00  0.00     0.147 A 
HETATM    8  N7  UNL     1      17.311  49.514  18.485  1.00  0.00    -0.322 N 
ATOM      9  H7  UNL     1      17.629  48.815  19.156  1.00  0.00     0.169 HD
HETATM   10  C7  UNL     1      17.937  49.583  17.267  1.00  0.00     0.123 A 
HETATM   11  C14 UNL     1      17.488  50.535  16.397  1.00  0.00     0.078 A 
HETATM   12  C15 UNL     1      18.028  50.751  15.165  1.00  0.00     0.092 A 
HETATM   13  N9  UNL     1      19.145  50.045  14.689  1.00  0.00    -0.099 NA
HETATM   14  C16 UNL     1      17.551  51.752  14.313  1.00  0.00     0.115 A 
HETATM   15  N10 UNL     1      18.166  51.913  13.037  1.00  0.00    -0.096 NA
ENDROOT
BRANCH   7  16
HETATM   16  S1  UNL     1      15.560  50.134  20.472  1.00  0.00    -0.091 SA
BRANCH  16  17
HETATM   17  C4  UNL     1      16.584  51.093  21.620  1.00  0.00     0.125 C 
BRANCH  17  18
HETATM   18  C5  UNL     1      15.751  52.122  22.366  1.00  0.00     0.285 C 
BRANCH  18  19
HETATM   19  N4  UNL     1      14.721  52.567  21.441  1.00  0.00    -0.066 N 
ATOM     20  H43 UNL     1      15.043  53.287  20.794  1.00  0.00     0.275 HD
ATOM     21  H42 UNL     1      14.477  51.867  20.739  1.00  0.00     0.275 HD
ATOM     22  H41 UNL     1      13.928  52.861  22.010  1.00  0.00     0.275 HD
ENDBRANCH  18  19
BRANCH  18  23
HETATM   23  C6  UNL     1      16.565  53.308  22.734  1.00  0.00     0.267 C 
HETATM   24  O1  UNL     1      16.604  54.257  21.915  1.00  0.00    -0.269 OA
HETATM   25  N5  UNL     1      17.271  53.394  23.939  1.00  0.00    -0.275 N 
ATOM     26  H5  UNL     1      17.238  52.621  24.604  1.00  0.00     0.189 HD
BRANCH  25  27
HETATM   27  N6  UNL     1      18.018  54.529  24.234  1.00  0.00    -0.343 N 
ATOM     28  H62 UNL     1      17.743  55.421  23.822  1.00  0.00     0.176 HD
ATOM     29  H61 UNL     1      18.826  54.466  24.854  1.00  0.00     0.176 HD
ENDBRANCH  25  27
ENDBRANCH  18  23
ENDBRANCH  17  18
ENDBRANCH  16  17
ENDBRANCH   7  16
BRANCH  10  30
HETATM   30  N8  UNL     1      18.868  48.590  16.924  1.00  0.00    -0.342 N 
ATOM     31  H8  UNL     1      18.512  47.750  16.469  1.00  0.00     0.167 HD
BRANCH  30  32
HETATM   32  C8  UNL     1      20.276  48.663  17.161  1.00  0.00     0.033 A 
HETATM   33  C9  UNL     1      20.857  49.650  17.905  1.00  0.00     0.029 A 
HETATM   34  C10 UNL     1      22.227  49.701  18.133  1.00  0.00     0.002 A 
HETATM   35  C11 UNL     1      23.024  48.721  17.588  1.00  0.00     0.000 A 
HETATM   36  C12 UNL     1      22.471  47.712  16.834  1.00  0.00     0.002 A 
HETATM   37  C13 UNL     1      21.097  47.696  16.629  1.00  0.00     0.029 A 
ENDBRANCH  30  32
ENDBRANCH  10  30
BRANCH   1  38
HETATM   38  N1  UNL     1      16.072  53.466  13.940  1.00  0.00    -0.384 N 
ATOM     39  H12 UNL     1      15.161  53.881  14.135  1.00  0.00     0.157 HD
ATOM     40  H11 UNL     1      16.631  53.767  13.141  1.00  0.00     0.157 HD
ENDBRANCH   1  38
TORSDOF 9
ENDMDL
MODEL 4
REMARK VINA RESULT: -9.623175517      1.149      1.599
REMARK  9 active torsions:
REMARK  status: ('A' for Active; 'I' for Inactive)
REMARK    1  A    between atoms: N1_1  and  C1_4 
REMARK    2  A    between atoms: C3_10  and  S1_11 
REMARK    3  A    between atoms: S1_11  and  C4_12 
REMARK    4  A    between atoms: C4_12  and  C5_13 
REMARK    5  A    between atoms: C5_13  and  N4_14 
REMARK    6  A    between atoms: C5_13  and  C6_18 
REMARK       I    between atoms: C6_18  and  N5_20 
REMARK    7  A    between atoms: N5_20  and  N6_22 
REMARK    8  A    between atoms: C7_27  and  N8_28 
REMARK    9  A    between atoms: N8_28  and  C8_30 
ROOT
HETATM    1  C1  UNL     1      16.519  52.427  14.912  1.00  0.00     0.127 A 
HETATM    2  N2  UNL     1      16.044  52.160  16.143  1.00  0.00    -0.327 N 
ATOM      3  H2  UNL     1      15.264  52.715  16.498  1.00  0.00     0.169 HD
HETATM    4  C2  UNL     1      16.552  51.200  16.916  1.00  0.00     0.124 A 
HETATM    5  N3  UNL     1      16.098  50.957  18.148  1.00  0.00    -0.322 N 
ATOM      6  H3  UNL     1      15.321  51.503  18.520  1.00  0.00     0.169 HD
HETATM    7  C3  UNL     1      16.656  50.005  18.892  1.00  0.00     0.147 A 
HETATM    8  N7  UNL     1      17.680  49.262  18.438  1.00  0.00    -0.322 N 
ATOM      9  H7  UNL     1      18.070  48.546  19.050  1.00  0.00     0.169 HD
HETATM   10  C7  UNL     1      18.227  49.423  17.191  1.00  0.00     0.123 A 
HETATM   11  C14 UNL     1      17.682  50.396  16.401  1.00  0.00     0.078 A 
HETATM   12  C15 UNL     1      18.135  50.699  15.152  1.00  0.00     0.092 A 
HETATM   13  N9  UNL     1      19.251  50.073  14.574  1.00  0.00    -0.099 NA
HETATM   14  C16 UNL     1      17.562  51.718  14.385  1.00  0.00     0.115 A 
HETATM   15  N10 UNL     1      18.089  51.974  13.086  1.00  0.00    -0.096 NA
ENDROOT
BRANCH   7  16
HETATM   16  S1  UNL     1      16.029  49.695  20.556  1.00  0.00    -0.091 SA
BRANCH  16  17
HETATM   17  C4  UNL     1      16.287  51.220  21.501  1.00  0.00     0.125 C 
BRANCH  17  18
HETATM   18  C5  UNL     1      14.962  51.862  21.875  1.00  0.00     0.285 C 
BRANCH  18  19
HETATM   19  N4  UNL     1      14.166  51.904  20.658  1.00  0.00    -0.066 N 
ATOM     20  H43 UNL     1      13.775  52.825  20.463  1.00  0.00     0.275 HD
ATOM     21  H42 UNL     1      14.724  51.821  19.808  1.00  0.00     0.275 HD
ATOM     22  H41 UNL     1      13.458  51.176  20.750  1.00  0.00     0.275 HD
ENDBRANCH  18  19
BRANCH  18  23
HETATM   23  C6  UNL     1      15.152  53.262  22.334  1.00  0.00     0.267 C 
HETATM   24  O1  UNL     1      14.199  53.803  22.942  1.00  0.00    -0.269 OA
HETATM   25  N5  UNL     1      16.335  53.975  22.110  1.00  0.00    -0.275 N 
ATOM     26  H5  UNL     1      17.109  53.532  21.614  1.00  0.00     0.189 HD
BRANCH  25  27
HETATM   27  N6  UNL     1      16.460  55.284  22.561  1.00  0.00    -0.343 N 
ATOM     28  H62 UNL     1      17.268  55.832  22.265  1.00  0.00     0.176 HD
ATOM     29  H61 UNL     1      15.753  55.685  23.178  1.00  0.00     0.176 HD
ENDBRANCH  25  27
ENDBRANCH  18  23
ENDBRANCH  17  18
ENDBRANCH  16  17
ENDBRANCH   7  16
BRANCH  10  30
HETATM   30  N8  UNL     1      19.178  48.495  16.740  1.00  0.00    -0.342 N 
ATOM     31  H8  UNL     1      18.846  47.727  16.158  1.00  0.00     0.167 HD
BRANCH  30  32
HETATM   32  C8  UNL     1      20.577  48.541  17.033  1.00  0.00     0.033 A 
HETATM   33  C9  UNL     1      21.461  47.596  16.594  1.00  0.00     0.029 A 
HETATM   34  C10 UNL     1      22.820  47.660  16.880  1.00  0.00     0.002 A 
HETATM   35  C11 UNL     1      23.288  48.714  17.633  1.00  0.00     0.000 A 
HETATM   36  C12 UNL     1      22.424  49.682  18.089  1.00  0.00     0.002 A 
HETATM   37  C13 UNL     1      21.072  49.582  17.782  1.00  0.00     0.029 A 
ENDBRANCH  30  32
ENDBRANCH  10  30
BRANCH   1  38
HETATM   38  N1  UNL     1      15.987  53.376  14.193  1.00  0.00    -0.384 N 
ATOM     39  H12 UNL     1      15.882  54.301  14.609  1.00  0.00     0.157 HD
ATOM     40  H11 UNL     1      15.685  53.188  13.236  1.00  0.00     0.157 HD
ENDBRANCH   1  38
TORSDOF 9
ENDMDL
MODEL 5
REMARK VINA RESULT: -9.318151270      3.381      6.909
REMARK  9 active torsions:
REMARK  status: ('A' for Active; 'I' for Inactive)
REMARK    1  A    between atoms: N1_1  and  C1_4 
REMARK    2  A    between atoms: C3_10  and  S1_11 
REMARK    3  A    between atoms: S1_11  and  C4_12 
REMARK    4  A    between atoms: C4_12  and  C5_13 
REMARK    5  A    between atoms: C5_13  and  N4_14 
REMARK    6  A    between atoms: C5_13  and  C6_18 
REMARK       I    between atoms: C6_18  and  N5_20 
REMARK    7  A    between atoms: N5_20  and  N6_22 
REMARK    8  A    between atoms: C7_27  and  N8_28 
REMARK    9  A    between atoms: N8_28  and  C8_30 
ROOT
HETATM    1  C1  UNL     1      17.184  52.416  14.716  1.00  0.00     0.127 A 
HETATM    2  N2  UNL     1      18.391  51.858  14.927  1.00  0.00    -0.327 N 
ATOM      3  H2  UNL     1      19.152  52.077  14.283  1.00  0.00     0.169 HD
HETATM    4  C2  UNL     1      18.630  51.030  15.945  1.00  0.00     0.124 A 
HETATM    5  N3  UNL     1      19.820  50.455  16.135  1.00  0.00    -0.322 N 
ATOM      6  H3  UNL     1      20.592  50.660  15.501  1.00  0.00     0.169 HD
HETATM    7  C3  UNL     1      20.003  49.615  17.151  1.00  0.00     0.147 A 
HETATM    8  N7  UNL     1      19.013  49.319  18.011  1.00  0.00    -0.322 N 
ATOM      9  H7  UNL     1      19.208  48.668  18.772  1.00  0.00     0.169 HD
HETATM   10  C7  UNL     1      17.753  49.849  17.913  1.00  0.00     0.123 A 
HETATM   11  C14 UNL     1      17.527  50.713  16.879  1.00  0.00     0.078 A 
HETATM   12  C15 UNL     1      16.322  51.296  16.627  1.00  0.00     0.092 A 
HETATM   13  N9  UNL     1      15.170  51.019  17.382  1.00  0.00    -0.099 NA
HETATM   14  C16 UNL     1      16.129  52.158  15.544  1.00  0.00     0.115 A 
HETATM   15  N10 UNL     1      14.838  52.732  15.349  1.00  0.00    -0.096 NA
ENDROOT
BRANCH   7  16
HETATM   16  S1  UNL     1      21.619  48.846  17.389  1.00  0.00    -0.091 SA
BRANCH  16  17
HETATM   17  C4  UNL     1      21.586  47.277  16.480  1.00  0.00     0.125 C 
BRANCH  17  18
HETATM   18  C5  UNL     1      20.367  46.453  16.859  1.00  0.00     0.285 C 
BRANCH  18  19
HETATM   19  N4  UNL     1      20.842  45.098  17.090  1.00  0.00    -0.066 N 
ATOM     20  H43 UNL     1      21.854  45.005  17.008  1.00  0.00     0.275 HD
ATOM     21  H42 UNL     1      20.765  44.804  18.064  1.00  0.00     0.275 HD
ATOM     22  H41 UNL     1      20.329  44.498  16.445  1.00  0.00     0.275 HD
ENDBRANCH  18  19
BRANCH  18  23
HETATM   23  C6  UNL     1      19.387  46.400  15.744  1.00  0.00     0.267 C 
HETATM   24  O1  UNL     1      18.840  47.477  15.406  1.00  0.00    -0.269 OA
HETATM   25  N5  UNL     1      19.064  45.212  15.080  1.00  0.00    -0.275 N 
ATOM     26  H5  UNL     1      19.509  44.337  15.357  1.00  0.00     0.189 HD
BRANCH  25  27
HETATM   27  N6  UNL     1      18.138  45.219  14.042  1.00  0.00    -0.343 N 
ATOM     28  H62 UNL     1      17.202  45.585  14.219  1.00  0.00     0.176 HD
ATOM     29  H61 UNL     1      18.395  44.863  13.121  1.00  0.00     0.176 HD
ENDBRANCH  25  27
ENDBRANCH  18  23
ENDBRANCH  17  18
ENDBRANCH  16  17
ENDBRANCH   7  16
BRANCH  10  30
HETATM   30  N8  UNL     1      16.834  49.616  18.948  1.00  0.00    -0.342 N 
ATOM     31  H8  UNL     1      16.267  48.771  18.889  1.00  0.00     0.167 HD
BRANCH  30  32
HETATM   32  C8  UNL     1      16.629  50.468  20.077  1.00  0.00     0.033 A 
HETATM   33  C9  UNL     1      17.645  51.130  20.705  1.00  0.00     0.029 A 
HETATM   34  C10 UNL     1      17.428  51.962  21.797  1.00  0.00     0.002 A 
HETATM   35  C11 UNL     1      16.141  52.122  22.260  1.00  0.00     0.000 A 
HETATM   36  C12 UNL     1      15.095  51.470  21.650  1.00  0.00     0.002 A 
HETATM   37  C13 UNL     1      15.354  50.647  20.560  1.00  0.00     0.029 A 
ENDBRANCH  30  32
ENDBRANCH  10  30
BRANCH   1  38
HETATM   38  N1  UNL     1      17.000  53.221  13.706  1.00  0.00    -0.384 N 
ATOM     39  H12 UNL     1      17.506  53.039  12.840  1.00  0.00     0.157 HD
ATOM     40  H11 UNL     1      16.361  54.012  13.790  1.00  0.00     0.157 HD
ENDBRANCH   1  38
TORSDOF 9
ENDMDL
