MODEL 1
REMARK VINA RESULT: -8.660688092      0.000      0.000
REMARK  10 active torsions:
REMARK  status: ('A' for Active; 'I' for Inactive)
REMARK    1  A    between atoms: N1_1  and  C1_4 
REMARK    2  A    between atoms: C1_4  and  N2_5 
REMARK    3  A    between atoms: C1_4  and  C8_24 
REMARK    4  A    between atoms: N2_5  and  C2_7 
REMARK    5  A    between atoms: C2_7  and  C3_8 
REMARK    6  A    between atoms: C3_8  and  N3_9 
REMARK    7  A    between atoms: N3_9  and  C4_11 
REMARK    8  A    between atoms: C5_12  and  O1_13 
REMARK    9  A    between atoms: C10_26  and  N6_27 
REMARK   10  A    between atoms: C13_33  and  N8_34 
ROOT
HETATM    1  N2  UNL     1      17.407  52.027  19.302  1.00  0.00    -0.374 N 
ATOM      2  H2  UNL     1      17.716  52.934  18.951  1.00  0.00     0.161 HD
ENDROOT
BRANCH   1   3
HETATM    3  C1  UNL     1      17.346  51.791  20.750  1.00  0.00     0.107 C 
BRANCH   3   4
HETATM    4  N1  UNL     1      17.791  50.718  21.111  1.00  0.00    -0.385 N 
ATOM      5  H12 UNL     1      17.503  49.786  20.814  1.00  0.00     0.157 HD
ATOM      6  H11 UNL     1      18.571  50.775  21.765  1.00  0.00     0.157 HD
ENDBRANCH   3   4
BRANCH   3   7
HETATM    7  C8  UNL     1      16.723  52.827  21.564  1.00  0.00     0.043 A 
HETATM    8  C9  UNL     1      17.386  53.121  22.787  1.00  0.00     0.056 A 
HETATM    9  C10 UNL     1      16.827  53.912  23.756  1.00  0.00     0.128 A 
HETATM   10  C11 UNL     1      15.573  54.476  23.599  1.00  0.00     0.081 A 
HETATM   11  N7  UNL     1      15.026  55.283  24.636  1.00  0.00    -0.100 NA
HETATM   12  C12 UNL     1      14.930  54.209  22.434  1.00  0.00     0.066 A 
HETATM   13  C13 UNL     1      15.506  53.392  21.423  1.00  0.00     0.118 A 
BRANCH   9  14
HETATM   14  N6  UNL     1      17.507  54.195  24.976  1.00  0.00    -0.114 N 
HETATM   15  O4  UNL     1      18.264  55.165  25.023  1.00  0.00    -0.532 OA
HETATM   16  O5  UNL     1      17.330  53.408  26.074  1.00  0.00    -0.532 OA
ENDBRANCH   9  14
BRANCH  13  17
HETATM   17  N8  UNL     1      14.753  53.275  20.224  1.00  0.00    -0.115 N 
HETATM   18  O6  UNL     1      13.867  52.423  20.104  1.00  0.00    -0.532 OA
HETATM   19  O7  UNL     1      15.051  53.987  19.072  1.00  0.00    -0.532 OA
ENDBRANCH  13  17
ENDBRANCH   3   7
ENDBRANCH   1   3
BRANCH   1  20
HETATM   20  C2  UNL     1      17.041  51.008  18.385  1.00  0.00     0.141 C 
BRANCH  20  21
HETATM   21  C3  UNL     1      18.113  50.644  17.419  1.00  0.00     0.139 C 
BRANCH  21  22
HETATM   22  N3  UNL     1      18.954  49.572  17.922  1.00  0.00    -0.381 N 
ATOM     23  H3  UNL     1      18.499  48.758  18.337  1.00  0.00     0.160 HD
BRANCH  22  24
HETATM   24  C4  UNL     1      20.373  49.589  17.871  1.00  0.00     0.131 A 
HETATM   25  C5  UNL     1      21.069  50.527  18.584  1.00  0.00     0.218 A 
HETATM   26  O2  UNL     1      22.404  50.575  18.586  1.00  0.00    -0.235 OA
HETATM   27  C6  UNL     1      23.075  49.706  17.890  1.00  0.00     0.373 A 
HETATM   28  O3  UNL     1      24.330  49.796  17.928  1.00  0.00    -0.238 OA
HETATM   29  N4  UNL     1      22.441  48.776  17.182  1.00  0.00    -0.286 N 
HETATM   30  C7  UNL     1      21.096  48.669  17.134  1.00  0.00     0.135 A 
ATOM     31  H4  UNL     1      22.998  48.111  16.648  1.00  0.00     0.172 HD
HETATM   32  N5  UNL     1      20.532  47.778  16.452  1.00  0.00    -0.383 N 
ATOM     33  H52 UNL     1      19.516  47.697  16.416  1.00  0.00     0.157 HD
ATOM     34  H51 UNL     1      21.065  47.099  15.909  1.00  0.00     0.157 HD
BRANCH  25  35
HETATM   35  O1  UNL     1      20.436  51.488  19.348  1.00  0.00    -0.339 OA
ATOM     36  H1  UNL     1      20.901  52.233  19.709  1.00  0.00     0.220 HD
ENDBRANCH  25  35
ENDBRANCH  22  24
ENDBRANCH  21  22
ENDBRANCH  20  21
ENDBRANCH   1  20
TORSDOF 10
ENDMDL
MODEL 2
REMARK VINA RESULT: -8.426152551      2.884      4.057
REMARK  10 active torsions:
REMARK  status: ('A' for Active; 'I' for Inactive)
REMARK    1  A    between atoms: N1_1  and  C1_4 
REMARK    2  A    between atoms: C1_4  and  N2_5 
REMARK    3  A    between atoms: C1_4  and  C8_24 
REMARK    4  A    between atoms: N2_5  and  C2_7 
REMARK    5  A    between atoms: C2_7  and  C3_8 
REMARK    6  A    between atoms: C3_8  and  N3_9 
REMARK    7  A    between atoms: N3_9  and  C4_11 
REMARK    8  A    between atoms: C5_12  and  O1_13 
REMARK    9  A    between atoms: C10_26  and  N6_27 
REMARK   10  A    between atoms: C13_33  and  N8_34 
ROOT
HETATM    1  N2  UNL     1      18.233  51.450  20.297  1.00  0.00    -0.374 N 
ATOM      2  H2  UNL     1      18.909  52.174  20.540  1.00  0.00     0.161 HD
ENDROOT
BRANCH   1   3
HETATM    3  C1  UNL     1      16.934  51.411  20.980  1.00  0.00     0.107 C 
BRANCH   3   4
HETATM    4  N1  UNL     1      16.328  50.362  20.866  1.00  0.00    -0.385 N 
ATOM      5  H12 UNL     1      16.576  49.551  20.299  1.00  0.00     0.157 HD
ATOM      6  H11 UNL     1      15.491  50.285  21.443  1.00  0.00     0.157 HD
ENDBRANCH   3   4
BRANCH   3   7
HETATM    7  C8  UNL     1      16.505  52.628  21.658  1.00  0.00     0.043 A 
HETATM    8  C9  UNL     1      17.236  52.962  22.831  1.00  0.00     0.056 A 
HETATM    9  C10 UNL     1      16.835  53.949  23.693  1.00  0.00     0.128 A 
HETATM   10  C11 UNL     1      15.684  54.684  23.470  1.00  0.00     0.081 A 
HETATM   11  N7  UNL     1      15.298  55.693  24.396  1.00  0.00    -0.100 NA
HETATM   12  C12 UNL     1      14.978  54.380  22.351  1.00  0.00     0.066 A 
HETATM   13  C13 UNL     1      15.391  53.361  21.450  1.00  0.00     0.118 A 
BRANCH   9  14
HETATM   14  N6  UNL     1      17.581  54.268  24.864  1.00  0.00    -0.114 N 
HETATM   15  O4  UNL     1      17.513  53.516  25.836  1.00  0.00    -0.532 OA
HETATM   16  O5  UNL     1      18.356  55.388  24.915  1.00  0.00    -0.532 OA
ENDBRANCH   9  14
BRANCH  13  17
HETATM   17  N8  UNL     1      14.600  53.218  20.278  1.00  0.00    -0.115 N 
HETATM   18  O6  UNL     1      14.561  54.105  19.420  1.00  0.00    -0.532 OA
HETATM   19  O7  UNL     1      13.717  52.167  20.086  1.00  0.00    -0.532 OA
ENDBRANCH  13  17
ENDBRANCH   3   7
ENDBRANCH   1   3
BRANCH   1  20
HETATM   20  C2  UNL     1      18.558  50.493  19.302  1.00  0.00     0.141 C 
BRANCH  20  21
HETATM   21  C3  UNL     1      19.092  51.080  18.043  1.00  0.00     0.139 C 
BRANCH  21  22
HETATM   22  N3  UNL     1      18.215  50.828  16.912  1.00  0.00    -0.381 N 
ATOM     23  H3  UNL     1      18.115  49.866  16.587  1.00  0.00     0.160 HD
BRANCH  22  24
HETATM   24  C4  UNL     1      17.488  51.841  16.234  1.00  0.00     0.131 A 
HETATM   25  C5  UNL     1      16.323  52.318  16.770  1.00  0.00     0.218 A 
HETATM   26  O2  UNL     1      15.611  53.284  16.182  1.00  0.00    -0.235 OA
HETATM   27  C6  UNL     1      16.032  53.797  15.064  1.00  0.00     0.373 A 
HETATM   28  O3  UNL     1      15.323  54.705  14.555  1.00  0.00    -0.238 OA
HETATM   29  N4  UNL     1      17.159  53.365  14.508  1.00  0.00    -0.286 N 
HETATM   30  C7  UNL     1      17.927  52.393  15.045  1.00  0.00     0.135 A 
ATOM     31  H4  UNL     1      17.459  53.789  13.631  1.00  0.00     0.172 HD
HETATM   32  N5  UNL     1      18.986  52.011  14.489  1.00  0.00    -0.383 N 
ATOM     33  H52 UNL     1      19.566  51.277  14.895  1.00  0.00     0.157 HD
ATOM     34  H51 UNL     1      19.310  52.418  13.612  1.00  0.00     0.157 HD
BRANCH  25  35
HETATM   35  O1  UNL     1      15.802  51.828  17.952  1.00  0.00    -0.339 OA
ATOM     36  H1  UNL     1      14.889  51.584  18.038  1.00  0.00     0.220 HD
ENDBRANCH  25  35
ENDBRANCH  22  24
ENDBRANCH  21  22
ENDBRANCH  20  21
ENDBRANCH   1  20
TORSDOF 10
ENDMDL
MODEL 3
REMARK VINA RESULT: -8.420901954      1.459      1.701
REMARK  10 active torsions:
REMARK  status: ('A' for Active; 'I' for Inactive)
REMARK    1  A    between atoms: N1_1  and  C1_4 
REMARK    2  A    between atoms: C1_4  and  N2_5 
REMARK    3  A    between atoms: C1_4  and  C8_24 
REMARK    4  A    between atoms: N2_5  and  C2_7 
REMARK    5  A    between atoms: C2_7  and  C3_8 
REMARK    6  A    between atoms: C3_8  and  N3_9 
REMARK    7  A    between atoms: N3_9  and  C4_11 
REMARK    8  A    between atoms: C5_12  and  O1_13 
REMARK    9  A    between atoms: C10_26  and  N6_27 
REMARK   10  A    between atoms: C13_33  and  N8_34 
ROOT
HETATM    1  N2  UNL     1      17.795  51.573  19.620  1.00  0.00    -0.374 N 
ATOM      2  H2  UNL     1      18.784  51.800  19.718  1.00  0.00     0.161 HD
ENDROOT
BRANCH   1   3
HETATM    3  C1  UNL     1      16.962  51.414  20.819  1.00  0.00     0.107 C 
BRANCH   3   4
HETATM    4  N1  UNL     1      16.642  50.269  21.070  1.00  0.00    -0.385 N 
ATOM      5  H12 UNL     1      15.734  49.825  20.933  1.00  0.00     0.157 HD
ATOM      6  H11 UNL     1      17.395  49.681  21.428  1.00  0.00     0.157 HD
ENDBRANCH   3   4
BRANCH   3   7
HETATM    7  C8  UNL     1      16.579  52.631  21.523  1.00  0.00     0.043 A 
HETATM    8  C9  UNL     1      17.267  52.870  22.744  1.00  0.00     0.056 A 
HETATM    9  C10 UNL     1      16.887  53.849  23.626  1.00  0.00     0.128 A 
HETATM   10  C11 UNL     1      15.800  54.668  23.376  1.00  0.00     0.081 A 
HETATM   11  N7  UNL     1      15.433  55.665  24.323  1.00  0.00    -0.100 NA
HETATM   12  C12 UNL     1      15.136  54.456  22.211  1.00  0.00     0.066 A 
HETATM   13  C13 UNL     1      15.528  53.446  21.290  1.00  0.00     0.118 A 
BRANCH   9  14
HETATM   14  N6  UNL     1      17.589  54.072  24.845  1.00  0.00    -0.114 N 
HETATM   15  O4  UNL     1      18.494  54.905  24.865  1.00  0.00    -0.532 OA
HETATM   16  O5  UNL     1      17.271  53.377  25.973  1.00  0.00    -0.532 OA
ENDBRANCH   9  14
BRANCH  13  17
HETATM   17  N8  UNL     1      14.793  53.401  20.075  1.00  0.00    -0.115 N 
HETATM   18  O6  UNL     1      13.856  52.611  19.922  1.00  0.00    -0.532 OA
HETATM   19  O7  UNL     1      15.159  54.114  18.944  1.00  0.00    -0.532 OA
ENDBRANCH  13  17
ENDBRANCH   3   7
ENDBRANCH   1   3
BRANCH   1  20
HETATM   20  C2  UNL     1      17.238  51.413  18.324  1.00  0.00     0.141 C 
BRANCH  20  21
HETATM   21  C3  UNL     1      18.169  50.809  17.332  1.00  0.00     0.139 C 
BRANCH  21  22
HETATM   22  N3  UNL     1      18.853  49.645  17.869  1.00  0.00    -0.381 N 
ATOM     23  H3  UNL     1      18.348  49.053  18.529  1.00  0.00     0.160 HD
BRANCH  22  24
HETATM   24  C4  UNL     1      20.182  49.282  17.528  1.00  0.00     0.131 A 
HETATM   25  C5  UNL     1      20.404  48.329  16.572  1.00  0.00     0.218 A 
HETATM   26  O2  UNL     1      21.635  47.965  16.200  1.00  0.00    -0.235 OA
HETATM   27  C6  UNL     1      22.663  48.530  16.758  1.00  0.00     0.373 A 
HETATM   28  O3  UNL     1      23.799  48.151  16.370  1.00  0.00    -0.238 OA
HETATM   29  N4  UNL     1      22.496  49.462  17.692  1.00  0.00    -0.286 N 
HETATM   30  C7  UNL     1      21.283  49.877  18.115  1.00  0.00     0.135 A 
ATOM     31  H4  UNL     1      23.325  49.884  18.109  1.00  0.00     0.172 HD
HETATM   32  N5  UNL     1      21.164  50.760  19.001  1.00  0.00    -0.383 N 
ATOM     33  H52 UNL     1      20.248  51.074  19.322  1.00  0.00     0.157 HD
ATOM     34  H51 UNL     1      21.976  51.199  19.435  1.00  0.00     0.157 HD
BRANCH  25  35
HETATM   35  O1  UNL     1      19.369  47.677  15.930  1.00  0.00    -0.339 OA
ATOM     36  H1  UNL     1      19.413  47.442  15.011  1.00  0.00     0.220 HD
ENDBRANCH  25  35
ENDBRANCH  22  24
ENDBRANCH  21  22
ENDBRANCH  20  21
ENDBRANCH   1  20
TORSDOF 10
ENDMDL
MODEL 4
REMARK VINA RESULT: -8.253102086      2.454      8.467
REMARK  10 active torsions:
REMARK  status: ('A' for Active; 'I' for Inactive)
REMARK    1  A    between atoms: N1_1  and  C1_4 
REMARK    2  A    between atoms: C1_4  and  N2_5 
REMARK    3  A    between atoms: C1_4  and  C8_24 
REMARK    4  A    between atoms: N2_5  and  C2_7 
REMARK    5  A    between atoms: C2_7  and  C3_8 
REMARK    6  A    between atoms: C3_8  and  N3_9 
REMARK    7  A    between atoms: N3_9  and  C4_11 
REMARK    8  A    between atoms: C5_12  and  O1_13 
REMARK    9  A    between atoms: C10_26  and  N6_27 
REMARK   10  A    between atoms: C13_33  and  N8_34 
ROOT
HETATM    1  N2  UNL     1      15.880  53.534  19.803  1.00  0.00    -0.374 N 
ATOM      2  H2  UNL     1      16.306  54.266  19.234  1.00  0.00     0.161 HD
ENDROOT
BRANCH   1   3
HETATM    3  C1  UNL     1      15.799  52.163  19.284  1.00  0.00     0.107 C 
BRANCH   3   4
HETATM    4  N1  UNL     1      15.019  51.439  19.872  1.00  0.00    -0.385 N 
ATOM      5  H12 UNL     1      14.069  51.185  19.600  1.00  0.00     0.157 HD
ATOM      6  H11 UNL     1      15.387  51.012  20.722  1.00  0.00     0.157 HD
ENDBRANCH   3   4
BRANCH   3   7
HETATM    7  C8  UNL     1      16.686  51.820  18.179  1.00  0.00     0.043 A 
HETATM    8  C9  UNL     1      17.759  50.948  18.508  1.00  0.00     0.056 A 
HETATM    9  C10 UNL     1      18.793  50.693  17.646  1.00  0.00     0.128 A 
HETATM   10  C11 UNL     1      18.854  51.276  16.393  1.00  0.00     0.081 A 
HETATM   11  N7  UNL     1      19.951  50.993  15.532  1.00  0.00    -0.100 NA
HETATM   12  C12 UNL     1      17.833  52.108  16.062  1.00  0.00     0.066 A 
HETATM   13  C13 UNL     1      16.754  52.373  16.950  1.00  0.00     0.118 A 
BRANCH   9  14
HETATM   14  N6  UNL     1      19.861  49.816  17.995  1.00  0.00    -0.114 N 
HETATM   15  O4  UNL     1      19.740  48.613  17.767  1.00  0.00    -0.532 OA
HETATM   16  O5  UNL     1      20.998  50.294  18.574  1.00  0.00    -0.532 OA
ENDBRANCH   9  14
BRANCH  13  17
HETATM   17  N8  UNL     1      15.716  53.192  16.431  1.00  0.00    -0.115 N 
HETATM   18  O6  UNL     1      15.165  52.924  15.358  1.00  0.00    -0.532 OA
HETATM   19  O7  UNL     1      15.357  54.406  16.996  1.00  0.00    -0.532 OA
ENDBRANCH  13  17
ENDBRANCH   3   7
ENDBRANCH   1   3
BRANCH   1  20
HETATM   20  C2  UNL     1      15.371  53.853  21.089  1.00  0.00     0.141 C 
BRANCH  20  21
HETATM   21  C3  UNL     1      16.404  54.325  22.052  1.00  0.00     0.139 C 
BRANCH  21  22
HETATM   22  N3  UNL     1      16.429  53.515  23.258  1.00  0.00    -0.381 N 
ATOM     23  H3  UNL     1      17.143  52.790  23.336  1.00  0.00     0.160 HD
BRANCH  22  24
HETATM   24  C4  UNL     1      15.519  53.673  24.336  1.00  0.00     0.131 A 
HETATM   25  C5  UNL     1      14.443  52.834  24.448  1.00  0.00     0.218 A 
HETATM   26  O2  UNL     1      13.568  52.928  25.453  1.00  0.00    -0.235 OA
HETATM   27  C6  UNL     1      13.735  53.842  26.361  1.00  0.00     0.373 A 
HETATM   28  O3  UNL     1      12.881  53.885  27.286  1.00  0.00    -0.238 OA
HETATM   29  N4  UNL     1      14.765  54.679  26.293  1.00  0.00    -0.286 N 
HETATM   30  C7  UNL     1      15.687  54.642  25.307  1.00  0.00     0.135 A 
ATOM     31  H4  UNL     1      14.865  55.385  27.022  1.00  0.00     0.172 HD
HETATM   32  N5  UNL     1      16.647  55.451  25.276  1.00  0.00    -0.383 N 
ATOM     33  H52 UNL     1      17.343  55.424  24.531  1.00  0.00     0.157 HD
ATOM     34  H51 UNL     1      16.771  56.166  25.992  1.00  0.00     0.157 HD
BRANCH  25  35
HETATM   35  O1  UNL     1      14.190  51.837  23.526  1.00  0.00    -0.339 OA
ATOM     36  H1  UNL     1      13.308  51.604  23.264  1.00  0.00     0.220 HD
ENDBRANCH  25  35
ENDBRANCH  22  24
ENDBRANCH  21  22
ENDBRANCH  20  21
ENDBRANCH   1  20
TORSDOF 10
ENDMDL
MODEL 5
REMARK VINA RESULT: -8.129112903      2.153      2.967
REMARK  10 active torsions:
REMARK  status: ('A' for Active; 'I' for Inactive)
REMARK    1  A    between atoms: N1_1  and  C1_4 
REMARK    2  A    between atoms: C1_4  and  N2_5 
REMARK    3  A    between atoms: C1_4  and  C8_24 
REMARK    4  A    between atoms: N2_5  and  C2_7 
REMARK    5  A    between atoms: C2_7  and  C3_8 
REMARK    6  A    between atoms: C3_8  and  N3_9 
REMARK    7  A    between atoms: N3_9  and  C4_11 
REMARK    8  A    between atoms: C5_12  and  O1_13 
REMARK    9  A    between atoms: C10_26  and  N6_27 
REMARK   10  A    between atoms: C13_33  and  N8_34 
ROOT
HETATM    1  N2  UNL     1      16.112  52.218  18.712  1.00  0.00    -0.374 N 
ATOM      2  H2  UNL     1      16.238  51.347  19.228  1.00  0.00     0.161 HD
ENDROOT
BRANCH   1   3
HETATM    3  C1  UNL     1      15.722  53.438  19.429  1.00  0.00     0.107 C 
BRANCH   3   4
HETATM    4  N1  UNL     1      15.194  54.290  18.740  1.00  0.00    -0.385 N 
ATOM      5  H12 UNL     1      15.566  55.200  18.468  1.00  0.00     0.157 HD
ATOM      6  H11 UNL     1      14.282  54.032  18.363  1.00  0.00     0.157 HD
ENDBRANCH   3   4
BRANCH   3   7
HETATM    7  C8  UNL     1      16.057  53.508  20.846  1.00  0.00     0.043 A 
HETATM    8  C9  UNL     1      15.737  54.737  21.487  1.00  0.00     0.056 A 
HETATM    9  C10 UNL     1      16.168  55.042  22.751  1.00  0.00     0.128 A 
HETATM   10  C11 UNL     1      16.947  54.165  23.485  1.00  0.00     0.081 A 
HETATM   11  N7  UNL     1      17.382  54.526  24.790  1.00  0.00    -0.100 NA
HETATM   12  C12 UNL     1      17.256  52.985  22.888  1.00  0.00     0.066 A 
HETATM   13  C13 UNL     1      16.808  52.660  21.578  1.00  0.00     0.118 A 
BRANCH   9  14
HETATM   14  N6  UNL     1      15.838  56.279  23.376  1.00  0.00    -0.114 N 
HETATM   15  O4  UNL     1      16.569  57.252  23.192  1.00  0.00    -0.532 OA
HETATM   16  O5  UNL     1      14.734  56.391  24.168  1.00  0.00    -0.532 OA
ENDBRANCH   9  14
BRANCH  13  17
HETATM   17  N8  UNL     1      17.135  51.355  21.122  1.00  0.00    -0.115 N 
HETATM   18  O6  UNL     1      18.203  51.127  20.543  1.00  0.00    -0.532 OA
HETATM   19  O7  UNL     1      16.240  50.296  21.154  1.00  0.00    -0.532 OA
ENDBRANCH  13  17
ENDBRANCH   3   7
ENDBRANCH   1   3
BRANCH   1  20
HETATM   20  C2  UNL     1      16.314  52.236  17.307  1.00  0.00     0.141 C 
BRANCH  20  21
HETATM   21  C3  UNL     1      17.682  51.831  16.884  1.00  0.00     0.139 C 
BRANCH  21  22
HETATM   22  N3  UNL     1      18.167  50.688  17.640  1.00  0.00    -0.381 N 
ATOM     23  H3  UNL     1      17.597  50.348  18.415  1.00  0.00     0.160 HD
BRANCH  22  24
HETATM   24  C4  UNL     1      19.387  50.017  17.364  1.00  0.00     0.131 A 
HETATM   25  C5  UNL     1      19.447  49.106  16.345  1.00  0.00     0.218 A 
HETATM   26  O2  UNL     1      20.574  48.462  16.031  1.00  0.00    -0.235 OA
HETATM   27  C6  UNL     1      21.657  48.702  16.709  1.00  0.00     0.373 A 
HETATM   28  O3  UNL     1      22.691  48.068  16.369  1.00  0.00    -0.238 OA
HETATM   29  N4  UNL     1      21.645  49.579  17.707  1.00  0.00    -0.286 N 
HETATM   30  C7  UNL     1      20.544  50.265  18.079  1.00  0.00     0.135 A 
ATOM     31  H4  UNL     1      22.512  49.743  18.218  1.00  0.00     0.172 HD
HETATM   32  N5  UNL     1      20.571  51.086  19.029  1.00  0.00    -0.383 N 
ATOM     33  H52 UNL     1      19.739  51.604  19.310  1.00  0.00     0.157 HD
ATOM     34  H51 UNL     1      21.425  51.269  19.556  1.00  0.00     0.157 HD
BRANCH  25  35
HETATM   35  O1  UNL     1      18.344  48.790  15.576  1.00  0.00    -0.339 OA
ATOM     36  H1  UNL     1      18.377  48.132  14.892  1.00  0.00     0.220 HD
ENDBRANCH  25  35
ENDBRANCH  22  24
ENDBRANCH  21  22
ENDBRANCH  20  21
ENDBRANCH   1  20
TORSDOF 10
ENDMDL
