MODEL 1
REMARK VINA RESULT: -7.536436630      0.000      0.000
REMARK  13 active torsions:
REMARK  status: ('A' for Active; 'I' for Inactive)
REMARK    1  A    between atoms: C4_9  and  C5_10 
REMARK    2  A    between atoms: C5_10  and  O2_12 
REMARK    3  A    between atoms: O2_12  and  C6_13 
REMARK    4  A    between atoms: C6_13  and  C7_14 
REMARK    5  A    between atoms: C7_14  and  C8_15 
REMARK    6  A    between atoms: C8_15  and  C9_16 
REMARK    7  A    between atoms: C9_16  and  C10_17 
REMARK    8  A    between atoms: C10_17  and  S1_18 
REMARK    9  A    between atoms: S1_18  and  C11_19 
REMARK   10  A    between atoms: C11_19  and  O3_20 
REMARK   11  A    between atoms: N3_22  and  O4_24 
REMARK   12  A    between atoms: C12_26  and  O5_27 
REMARK   13  A    between atoms: C13_32  and  N5_33 
ROOT
HETATM    1  N1  UNL     1      17.836  53.711  25.943  1.00  0.00    -0.380 N 
ATOM      2  H11 UNL     1      17.717  53.631  26.953  1.00  0.00     0.158 HD
ATOM      3  H12 UNL     1      18.826  53.534  25.770  1.00  0.00     0.158 HD
HETATM    4  C1  UNL     1      16.971  53.970  25.060  1.00  0.00     0.137 C 
HETATM    5  N2  UNL     1      17.136  54.081  23.666  1.00  0.00    -0.336 N 
ATOM      6  H2  UNL     1      18.025  54.312  23.223  1.00  0.00     0.164 HD
HETATM    7  C2  UNL     1      15.939  53.837  22.935  1.00  0.00     0.240 C 
HETATM    8  C3  UNL     1      16.095  54.245  21.510  1.00  0.00     0.084 C 
HETATM    9  C4  UNL     1      16.195  52.953  20.699  1.00  0.00     0.146 C 
HETATM   10  C12 UNL     1      15.427  52.005  21.578  1.00  0.00     0.335 C 
HETATM   11  N4  UNL     1      15.550  52.437  22.935  1.00  0.00    -0.019 N 
ATOM     12  H41 UNL     1      14.705  52.264  23.480  1.00  0.00     0.283 HD
ATOM     13  H42 UNL     1      16.185  51.852  23.477  1.00  0.00     0.283 HD
HETATM   14  C13 UNL     1      14.795  54.606  23.599  1.00  0.00     0.308 C 
HETATM   15  S2  UNL     1      15.242  54.277  25.361  1.00  0.00    -0.057 SA
ENDROOT
BRANCH   9  16
HETATM   16  C5  UNL     1      15.538  53.189  19.401  1.00  0.00     0.267 C 
HETATM   17  O1  UNL     1      14.542  53.952  19.358  1.00  0.00    -0.265 OA
BRANCH  16  18
HETATM   18  O2  UNL     1      15.963  52.613  18.217  1.00  0.00    -0.321 OA
BRANCH  18  19
HETATM   19  C6  UNL     1      16.021  53.225  16.966  1.00  0.00     0.178 C 
BRANCH  19  20
HETATM   20  C7  UNL     1      16.483  52.360  15.841  1.00  0.00     0.027 C 
BRANCH  20  21
HETATM   21  C8  UNL     1      17.785  52.789  15.245  1.00  0.00     0.003 C 
BRANCH  21  22
HETATM   22  C9  UNL     1      18.611  51.592  14.780  1.00  0.00     0.011 C 
BRANCH  22  23
HETATM   23  C10 UNL     1      19.730  51.327  15.768  1.00  0.00     0.083 C 
BRANCH  23  24
HETATM   24  S1  UNL     1      19.273  49.992  16.921  1.00  0.00    -0.085 SA
BRANCH  24  25
HETATM   25  C11 UNL     1      19.257  50.577  18.592  1.00  0.00     0.199 C 
HETATM   26  N3  UNL     1      18.185  50.478  19.288  1.00  0.00    -0.242 N 
ATOM     27  H3  UNL     1      18.205  50.824  20.248  1.00  0.00     0.197 HD
BRANCH  25  28
HETATM   28  O3  UNL     1      20.400  51.135  19.130  1.00  0.00    -0.340 OA
ATOM     29  H3  UNL     1      20.537  51.109  20.070  1.00  0.00     0.220 HD
ENDBRANCH  25  28
BRANCH  26  30
HETATM   30  O4  UNL     1      17.022  49.942  18.830  1.00  0.00    -0.287 OA
ATOM     31  H4  UNL     1      16.874  49.681  17.929  1.00  0.00     0.244 HD
ENDBRANCH  26  30
ENDBRANCH  24  25
ENDBRANCH  23  24
ENDBRANCH  22  23
ENDBRANCH  21  22
ENDBRANCH  20  21
ENDBRANCH  19  20
ENDBRANCH  18  19
ENDBRANCH  16  18
ENDBRANCH   9  16
BRANCH  10  32
HETATM   32  O5  UNL     1      14.116  51.806  21.177  1.00  0.00    -0.369 OA
ATOM     33  H5  UNL     1      13.481  51.899  21.877  1.00  0.00     0.212 HD
ENDBRANCH  10  32
BRANCH  14  34
HETATM   34  N5  UNL     1      14.900  56.015  23.388  1.00  0.00    -0.062 N 
ATOM     35  H53 UNL     1      14.529  56.536  24.183  1.00  0.00     0.275 HD
ATOM     36  H52 UNL     1      15.872  56.324  23.431  1.00  0.00     0.275 HD
ATOM     37  H51 UNL     1      14.458  56.306  22.516  1.00  0.00     0.275 HD
ENDBRANCH  14  34
TORSDOF 13
ENDMDL
MODEL 2
REMARK VINA RESULT: -7.525539809      0.347      1.073
REMARK  13 active torsions:
REMARK  status: ('A' for Active; 'I' for Inactive)
REMARK    1  A    between atoms: C4_9  and  C5_10 
REMARK    2  A    between atoms: C5_10  and  O2_12 
REMARK    3  A    between atoms: O2_12  and  C6_13 
REMARK    4  A    between atoms: C6_13  and  C7_14 
REMARK    5  A    between atoms: C7_14  and  C8_15 
REMARK    6  A    between atoms: C8_15  and  C9_16 
REMARK    7  A    between atoms: C9_16  and  C10_17 
REMARK    8  A    between atoms: C10_17  and  S1_18 
REMARK    9  A    between atoms: S1_18  and  C11_19 
REMARK   10  A    between atoms: C11_19  and  O3_20 
REMARK   11  A    between atoms: N3_22  and  O4_24 
REMARK   12  A    between atoms: C12_26  and  O5_27 
REMARK   13  A    between atoms: C13_32  and  N5_33 
ROOT
HETATM    1  N1  UNL     1      17.814  53.731  25.927  1.00  0.00    -0.380 N 
ATOM      2  H11 UNL     1      17.704  53.623  26.936  1.00  0.00     0.158 HD
ATOM      3  H12 UNL     1      18.808  53.595  25.746  1.00  0.00     0.158 HD
HETATM    4  C1  UNL     1      16.935  53.978  25.056  1.00  0.00     0.137 C 
HETATM    5  N2  UNL     1      17.087  54.128  23.663  1.00  0.00    -0.336 N 
ATOM      6  H2  UNL     1      17.964  54.402  23.221  1.00  0.00     0.164 HD
HETATM    7  C2  UNL     1      15.895  53.857  22.934  1.00  0.00     0.240 C 
HETATM    8  C3  UNL     1      16.027  54.304  21.517  1.00  0.00     0.084 C 
HETATM    9  C4  UNL     1      16.170  53.035  20.676  1.00  0.00     0.146 C 
HETATM   10  C12 UNL     1      15.442  52.040  21.537  1.00  0.00     0.335 C 
HETATM   11  N4  UNL     1      15.557  52.444  22.903  1.00  0.00    -0.019 N 
ATOM     12  H41 UNL     1      14.723  52.228  23.448  1.00  0.00     0.283 HD
ATOM     13  H42 UNL     1      16.218  51.871  23.427  1.00  0.00     0.283 HD
HETATM   14  C13 UNL     1      14.728  54.568  23.621  1.00  0.00     0.308 C 
HETATM   15  S2  UNL     1      15.197  54.215  25.373  1.00  0.00    -0.057 SA
ENDROOT
BRANCH   9  16
HETATM   16  C5  UNL     1      15.497  53.278  19.387  1.00  0.00     0.267 C 
HETATM   17  O1  UNL     1      14.473  54.004  19.368  1.00  0.00    -0.265 OA
BRANCH  16  18
HETATM   18  O2  UNL     1      15.935  52.746  18.188  1.00  0.00    -0.321 OA
BRANCH  18  19
HETATM   19  C6  UNL     1      15.942  53.381  16.947  1.00  0.00     0.178 C 
BRANCH  19  20
HETATM   20  C7  UNL     1      16.214  52.505  15.770  1.00  0.00     0.027 C 
BRANCH  20  21
HETATM   21  C8  UNL     1      17.388  52.940  14.952  1.00  0.00     0.003 C 
BRANCH  21  22
HETATM   22  C9  UNL     1      18.416  51.821  14.805  1.00  0.00     0.011 C 
BRANCH  22  23
HETATM   23  C10 UNL     1      19.297  51.770  16.037  1.00  0.00     0.083 C 
BRANCH  23  24
HETATM   24  S1  UNL     1      19.123  50.171  16.893  1.00  0.00    -0.085 SA
BRANCH  24  25
HETATM   25  C11 UNL     1      18.427  50.388  18.507  1.00  0.00     0.199 C 
HETATM   26  N3  UNL     1      19.157  50.847  19.456  1.00  0.00    -0.242 N 
ATOM     27  H3  UNL     1      18.728  50.961  20.375  1.00  0.00     0.197 HD
BRANCH  25  28
HETATM   28  O3  UNL     1      17.104  50.061  18.728  1.00  0.00    -0.340 OA
ATOM     29  H3  UNL     1      16.884  49.202  19.071  1.00  0.00     0.220 HD
ENDBRANCH  25  28
BRANCH  26  30
HETATM   30  O4  UNL     1      20.464  51.191  19.317  1.00  0.00    -0.287 OA
ATOM     31  H4  UNL     1      20.781  51.854  18.715  1.00  0.00     0.244 HD
ENDBRANCH  26  30
ENDBRANCH  24  25
ENDBRANCH  23  24
ENDBRANCH  22  23
ENDBRANCH  21  22
ENDBRANCH  20  21
ENDBRANCH  19  20
ENDBRANCH  18  19
ENDBRANCH  16  18
ENDBRANCH   9  16
BRANCH  10  32
HETATM   32  O5  UNL     1      14.137  51.802  21.137  1.00  0.00    -0.369 OA
ATOM     33  H5  UNL     1      14.062  51.199  20.407  1.00  0.00     0.212 HD
ENDBRANCH  10  32
BRANCH  14  34
HETATM   34  N5  UNL     1      14.780  55.984  23.443  1.00  0.00    -0.062 N 
ATOM     35  H53 UNL     1      14.039  56.450  23.968  1.00  0.00     0.275 HD
ATOM     36  H52 UNL     1      15.590  56.386  23.915  1.00  0.00     0.275 HD
ATOM     37  H51 UNL     1      14.756  56.248  22.458  1.00  0.00     0.275 HD
ENDBRANCH  14  34
TORSDOF 13
ENDMDL
MODEL 3
REMARK VINA RESULT: -7.487821712      2.225      3.175
REMARK  13 active torsions:
REMARK  status: ('A' for Active; 'I' for Inactive)
REMARK    1  A    between atoms: C4_9  and  C5_10 
REMARK    2  A    between atoms: C5_10  and  O2_12 
REMARK    3  A    between atoms: O2_12  and  C6_13 
REMARK    4  A    between atoms: C6_13  and  C7_14 
REMARK    5  A    between atoms: C7_14  and  C8_15 
REMARK    6  A    between atoms: C8_15  and  C9_16 
REMARK    7  A    between atoms: C9_16  and  C10_17 
REMARK    8  A    between atoms: C10_17  and  S1_18 
REMARK    9  A    between atoms: S1_18  and  C11_19 
REMARK   10  A    between atoms: C11_19  and  O3_20 
REMARK   11  A    between atoms: N3_22  and  O4_24 
REMARK   12  A    between atoms: C12_26  and  O5_27 
REMARK   13  A    between atoms: C13_32  and  N5_33 
ROOT
HETATM    1  N1  UNL     1      16.811  53.319  26.664  1.00  0.00    -0.380 N 
ATOM      2  H11 UNL     1      16.419  53.337  27.605  1.00  0.00     0.158 HD
ATOM      3  H12 UNL     1      17.728  52.883  26.759  1.00  0.00     0.158 HD
HETATM    4  C1  UNL     1      16.303  53.736  25.586  1.00  0.00     0.137 C 
HETATM    5  N2  UNL     1      16.844  53.712  24.285  1.00  0.00    -0.336 N 
ATOM      6  H2  UNL     1      17.846  53.678  24.095  1.00  0.00     0.164 HD
HETATM    7  C2  UNL     1      15.856  53.738  23.262  1.00  0.00     0.240 C 
HETATM    8  C3  UNL     1      16.476  54.001  21.932  1.00  0.00     0.084 C 
HETATM    9  C4  UNL     1      16.435  52.678  21.167  1.00  0.00     0.146 C 
HETATM   10  C12 UNL     1      15.243  52.018  21.805  1.00  0.00     0.335 C 
HETATM   11  N4  UNL     1      15.123  52.489  23.149  1.00  0.00    -0.019 N 
ATOM     12  H41 UNL     1      14.152  52.574  23.449  1.00  0.00     0.283 HD
ATOM     13  H42 UNL     1      15.419  51.796  23.836  1.00  0.00     0.283 HD
HETATM   14  C13 UNL     1      14.825  54.817  23.605  1.00  0.00     0.308 C 
HETATM   15  S2  UNL     1      14.700  54.497  25.420  1.00  0.00    -0.057 SA
ENDROOT
BRANCH   9  16
HETATM   16  C5  UNL     1      16.221  52.993  19.744  1.00  0.00     0.267 C 
HETATM   17  O1  UNL     1      15.532  53.999  19.444  1.00  0.00    -0.265 OA
BRANCH  16  18
HETATM   18  O2  UNL     1      16.742  52.235  18.710  1.00  0.00    -0.321 OA
BRANCH  18  19
HETATM   19  C6  UNL     1      17.351  50.985  18.816  1.00  0.00     0.178 C 
BRANCH  19  20
HETATM   20  C7  UNL     1      18.387  50.678  17.788  1.00  0.00     0.027 C 
BRANCH  20  21
HETATM   21  C8  UNL     1      17.937  50.926  16.384  1.00  0.00     0.003 C 
BRANCH  21  22
HETATM   22  C9  UNL     1      18.880  51.876  15.650  1.00  0.00     0.011 C 
BRANCH  22  23
HETATM   23  C10 UNL     1      18.074  52.886  14.857  1.00  0.00     0.083 C 
BRANCH  23  24
HETATM   24  S1  UNL     1      16.296  52.728  15.222  1.00  0.00    -0.085 SA
BRANCH  24  25
HETATM   25  C11 UNL     1      15.400  54.136  14.629  1.00  0.00     0.199 C 
HETATM   26  N3  UNL     1      14.982  55.018  15.460  1.00  0.00    -0.242 N 
ATOM     27  H3  UNL     1      14.468  55.818  15.089  1.00  0.00     0.197 HD
BRANCH  25  28
HETATM   28  O3  UNL     1      15.159  54.269  13.276  1.00  0.00    -0.340 OA
ATOM     29  H3  UNL     1      14.264  54.275  12.957  1.00  0.00     0.220 HD
ENDBRANCH  25  28
BRANCH  26  30
HETATM   30  O4  UNL     1      15.178  54.956  16.804  1.00  0.00    -0.287 OA
ATOM     31  H4  UNL     1      15.940  54.564  17.214  1.00  0.00     0.244 HD
ENDBRANCH  26  30
ENDBRANCH  24  25
ENDBRANCH  23  24
ENDBRANCH  22  23
ENDBRANCH  21  22
ENDBRANCH  20  21
ENDBRANCH  19  20
ENDBRANCH  18  19
ENDBRANCH  16  18
ENDBRANCH   9  16
BRANCH  10  32
HETATM   32  O5  UNL     1      14.076  52.138  21.069  1.00  0.00    -0.369 OA
ATOM     33  H5  UNL     1      13.359  51.605  21.394  1.00  0.00     0.212 HD
ENDBRANCH  10  32
BRANCH  14  34
HETATM   34  N5  UNL     1      15.351  56.135  23.439  1.00  0.00    -0.062 N 
ATOM     35  H53 UNL     1      16.314  56.108  23.104  1.00  0.00     0.275 HD
ATOM     36  H52 UNL     1      14.916  56.609  22.647  1.00  0.00     0.275 HD
ATOM     37  H51 UNL     1      15.272  56.689  24.292  1.00  0.00     0.275 HD
ENDBRANCH  14  34
TORSDOF 13
ENDMDL
MODEL 4
REMARK VINA RESULT: -7.365699317      2.581      7.771
REMARK  13 active torsions:
REMARK  status: ('A' for Active; 'I' for Inactive)
REMARK    1  A    between atoms: C4_9  and  C5_10 
REMARK    2  A    between atoms: C5_10  and  O2_12 
REMARK    3  A    between atoms: O2_12  and  C6_13 
REMARK    4  A    between atoms: C6_13  and  C7_14 
REMARK    5  A    between atoms: C7_14  and  C8_15 
REMARK    6  A    between atoms: C8_15  and  C9_16 
REMARK    7  A    between atoms: C9_16  and  C10_17 
REMARK    8  A    between atoms: C10_17  and  S1_18 
REMARK    9  A    between atoms: S1_18  and  C11_19 
REMARK   10  A    between atoms: C11_19  and  O3_20 
REMARK   11  A    between atoms: N3_22  and  O4_24 
REMARK   12  A    between atoms: C12_26  and  O5_27 
REMARK   13  A    between atoms: C13_32  and  N5_33 
ROOT
HETATM    1  N1  UNL     1      20.324  47.392  16.508  1.00  0.00    -0.380 N 
ATOM      2  H11 UNL     1      21.243  46.966  16.389  1.00  0.00     0.158 HD
ATOM      3  H12 UNL     1      19.654  46.633  16.381  1.00  0.00     0.158 HD
HETATM    4  C1  UNL     1      20.034  48.594  16.761  1.00  0.00     0.137 C 
HETATM    5  N2  UNL     1      18.764  49.182  16.925  1.00  0.00    -0.336 N 
ATOM      6  H2  UNL     1      17.911  48.797  16.520  1.00  0.00     0.164 HD
HETATM    7  C2  UNL     1      18.789  50.367  17.713  1.00  0.00     0.240 C 
HETATM    8  C3  UNL     1      17.492  51.096  17.616  1.00  0.00     0.084 C 
HETATM    9  C4  UNL     1      16.778  50.887  18.951  1.00  0.00     0.146 C 
HETATM   10  C12 UNL     1      17.949  50.680  19.871  1.00  0.00     0.335 C 
HETATM   11  N4  UNL     1      19.023  50.106  19.123  1.00  0.00    -0.019 N 
ATOM     12  H41 UNL     1      19.937  50.431  19.436  1.00  0.00     0.283 HD
ATOM     13  H42 UNL     1      19.154  49.114  19.323  1.00  0.00     0.283 HD
HETATM   14  C13 UNL     1      19.945  51.248  17.237  1.00  0.00     0.308 C 
HETATM   15  S2  UNL     1      21.204  49.919  16.984  1.00  0.00    -0.057 SA
ENDROOT
BRANCH   9  16
HETATM   16  C5  UNL     1      16.025  52.119  19.251  1.00  0.00     0.267 C 
HETATM   17  O1  UNL     1      15.719  52.885  18.305  1.00  0.00    -0.265 OA
BRANCH  16  18
HETATM   18  O2  UNL     1      15.634  52.479  20.528  1.00  0.00    -0.321 OA
BRANCH  18  19
HETATM   19  C6  UNL     1      15.353  53.768  20.982  1.00  0.00     0.178 C 
BRANCH  19  20
HETATM   20  C7  UNL     1      16.378  54.378  21.879  1.00  0.00     0.027 C 
BRANCH  20  21
HETATM   21  C8  UNL     1      16.483  53.713  23.214  1.00  0.00     0.003 C 
BRANCH  21  22
HETATM   22  C9  UNL     1      17.133  54.629  24.248  1.00  0.00     0.011 C 
BRANCH  22  23
HETATM   23  C10 UNL     1      16.092  55.091  25.248  1.00  0.00     0.083 C 
BRANCH  23  24
HETATM   24  S1  UNL     1      14.567  54.104  25.101  1.00  0.00    -0.085 SA
BRANCH  24  25
HETATM   25  C11 UNL     1      14.615  52.701  26.180  1.00  0.00     0.199 C 
HETATM   26  N3  UNL     1      13.909  51.666  25.907  1.00  0.00    -0.242 N 
ATOM     27  H3  UNL     1      13.956  50.873  26.548  1.00  0.00     0.197 HD
BRANCH  25  28
HETATM   28  O3  UNL     1      15.413  52.734  27.306  1.00  0.00    -0.340 OA
ATOM     29  H3  UNL     1      15.454  53.527  27.829  1.00  0.00     0.220 HD
ENDBRANCH  25  28
BRANCH  26  30
HETATM   30  O4  UNL     1      13.100  51.558  24.820  1.00  0.00    -0.287 OA
ATOM     31  H4  UNL     1      12.154  51.644  24.848  1.00  0.00     0.244 HD
ENDBRANCH  26  30
ENDBRANCH  24  25
ENDBRANCH  23  24
ENDBRANCH  22  23
ENDBRANCH  21  22
ENDBRANCH  20  21
ENDBRANCH  19  20
ENDBRANCH  18  19
ENDBRANCH  16  18
ENDBRANCH   9  16
BRANCH  10  32
HETATM   32  O5  UNL     1      18.312  51.813  20.580  1.00  0.00    -0.369 OA
ATOM     33  H5  UNL     1      17.592  52.224  21.044  1.00  0.00     0.212 HD
ENDBRANCH  10  32
BRANCH  14  34
HETATM   34  N5  UNL     1      19.684  51.836  15.961  1.00  0.00    -0.062 N 
ATOM     35  H53 UNL     1      20.384  51.554  15.274  1.00  0.00     0.275 HD
ATOM     36  H52 UNL     1      18.856  51.425  15.528  1.00  0.00     0.275 HD
ATOM     37  H51 UNL     1      19.607  52.851  16.015  1.00  0.00     0.275 HD
ENDBRANCH  14  34
TORSDOF 13
ENDMDL
MODEL 5
REMARK VINA RESULT: -7.316094072      2.030      2.957
REMARK  13 active torsions:
REMARK  status: ('A' for Active; 'I' for Inactive)
REMARK    1  A    between atoms: C4_9  and  C5_10 
REMARK    2  A    between atoms: C5_10  and  O2_12 
REMARK    3  A    between atoms: O2_12  and  C6_13 
REMARK    4  A    between atoms: C6_13  and  C7_14 
REMARK    5  A    between atoms: C7_14  and  C8_15 
REMARK    6  A    between atoms: C8_15  and  C9_16 
REMARK    7  A    between atoms: C9_16  and  C10_17 
REMARK    8  A    between atoms: C10_17  and  S1_18 
REMARK    9  A    between atoms: S1_18  and  C11_19 
REMARK   10  A    between atoms: C11_19  and  O3_20 
REMARK   11  A    between atoms: N3_22  and  O4_24 
REMARK   12  A    between atoms: C12_26  and  O5_27 
REMARK   13  A    between atoms: C13_32  and  N5_33 
ROOT
HETATM    1  N1  UNL     1      16.838  53.493  26.664  1.00  0.00    -0.380 N 
ATOM      2  H11 UNL     1      16.425  53.641  27.585  1.00  0.00     0.158 HD
ATOM      3  H12 UNL     1      17.683  52.945  26.828  1.00  0.00     0.158 HD
HETATM    4  C1  UNL     1      16.424  53.885  25.537  1.00  0.00     0.137 C 
HETATM    5  N2  UNL     1      16.994  53.682  24.265  1.00  0.00    -0.336 N 
ATOM      6  H2  UNL     1      17.986  53.496  24.119  1.00  0.00     0.164 HD
HETATM    7  C2  UNL     1      16.048  53.760  23.205  1.00  0.00     0.240 C 
HETATM    8  C3  UNL     1      16.737  53.826  21.884  1.00  0.00     0.084 C 
HETATM    9  C4  UNL     1      16.535  52.462  21.222  1.00  0.00     0.146 C 
HETATM   10  C12 UNL     1      15.245  52.026  21.860  1.00  0.00     0.335 C 
HETATM   11  N4  UNL     1      15.153  52.617  23.158  1.00  0.00    -0.019 N 
ATOM     12  H41 UNL     1      14.195  52.858  23.412  1.00  0.00     0.283 HD
ATOM     13  H42 UNL     1      15.330  51.948  23.908  1.00  0.00     0.283 HD
HETATM   14  C13 UNL     1      15.169  54.993  23.422  1.00  0.00     0.308 C 
HETATM   15  S2  UNL     1      14.948  54.842  25.250  1.00  0.00    -0.057 SA
ENDROOT
BRANCH   9  16
HETATM   16  C5  UNL     1      16.408  52.686  19.771  1.00  0.00     0.267 C 
HETATM   17  O1  UNL     1      15.708  53.647  19.367  1.00  0.00    -0.265 OA
BRANCH  16  18
HETATM   18  O2  UNL     1      17.023  51.890  18.822  1.00  0.00    -0.321 OA
BRANCH  18  19
HETATM   19  C6  UNL     1      17.608  50.642  19.031  1.00  0.00     0.178 C 
BRANCH  19  20
HETATM   20  C7  UNL     1      18.832  50.355  18.228  1.00  0.00     0.027 C 
BRANCH  20  21
HETATM   21  C8  UNL     1      18.868  51.060  16.910  1.00  0.00     0.003 C 
BRANCH  21  22
HETATM   22  C9  UNL     1      18.071  50.306  15.848  1.00  0.00     0.011 C 
BRANCH  22  23
HETATM   23  C10 UNL     1      17.945  51.160  14.602  1.00  0.00     0.083 C 
BRANCH  23  24
HETATM   24  S1  UNL     1      17.809  52.924  15.034  1.00  0.00    -0.085 SA
BRANCH  24  25
HETATM   25  C11 UNL     1      16.158  53.328  15.531  1.00  0.00     0.199 C 
HETATM   26  N3  UNL     1      15.528  54.271  14.932  1.00  0.00    -0.242 N 
ATOM     27  H3  UNL     1      14.578  54.482  15.241  1.00  0.00     0.197 HD
BRANCH  25  28
HETATM   28  O3  UNL     1      15.564  52.625  16.560  1.00  0.00    -0.340 OA
ATOM     29  H3  UNL     1      15.037  53.087  17.202  1.00  0.00     0.220 HD
ENDBRANCH  25  28
BRANCH  26  30
HETATM   30  O4  UNL     1      16.043  55.008  13.913  1.00  0.00    -0.287 OA
ATOM     31  H4  UNL     1      16.505  54.641  13.169  1.00  0.00     0.244 HD
ENDBRANCH  26  30
ENDBRANCH  24  25
ENDBRANCH  23  24
ENDBRANCH  22  23
ENDBRANCH  21  22
ENDBRANCH  20  21
ENDBRANCH  19  20
ENDBRANCH  18  19
ENDBRANCH  16  18
ENDBRANCH   9  16
BRANCH  10  32
HETATM   32  O5  UNL     1      14.128  52.243  21.072  1.00  0.00    -0.369 OA
ATOM     33  H5  UNL     1      14.046  51.638  20.344  1.00  0.00     0.212 HD
ENDBRANCH  10  32
BRANCH  14  34
HETATM   34  N5  UNL     1      15.877  56.209  23.177  1.00  0.00    -0.062 N 
ATOM     35  H53 UNL     1      15.535  56.962  23.774  1.00  0.00     0.275 HD
ATOM     36  H52 UNL     1      16.837  56.153  23.520  1.00  0.00     0.275 HD
ATOM     37  H51 UNL     1      15.851  56.476  22.193  1.00  0.00     0.275 HD
ENDBRANCH  14  34
TORSDOF 13
ENDMDL
