MODEL 1
REMARK VINA RESULT: -8.498219257      0.000      0.000
REMARK  10 active torsions:
REMARK  status: ('A' for Active; 'I' for Inactive)
REMARK    1  A    between atoms: C2_3  and  C3_4 
REMARK    2  A    between atoms: C3_4  and  N2_5 
REMARK    3  A    between atoms: C3_4  and  N3_8 
REMARK    4  A    between atoms: N3_8  and  C4_10 
REMARK    5  A    between atoms: C4_10  and  C5_11 
REMARK    6  A    between atoms: C5_11  and  C6_12 
REMARK    7  A    between atoms: C8_14  and  N4_15 
REMARK    8  A    between atoms: N4_15  and  C9_17 
REMARK    9  A    between atoms: C9_17  and  O1_18 
REMARK   10  A    between atoms: C9_17  and  C10_20 
REMARK       I    between atoms: C10_20  and  N5_22 
ROOT
HETATM    1  N1  UNL     1      13.298  51.340  25.006  1.00  0.00    -0.197 NA
HETATM    2  C1  UNL     1      13.840  52.333  25.335  1.00  0.00     0.066 C 
HETATM    3  C2  UNL     1      14.500  53.571  25.718  1.00  0.00     0.199 C 
ENDROOT
BRANCH   3   4
HETATM    4  C3  UNL     1      15.508  53.281  26.757  1.00  0.00     0.083 C 
BRANCH   4   5
HETATM    5  N2  UNL     1      15.069  52.924  27.920  1.00  0.00    -0.388 N 
ATOM      6  H22 UNL     1      14.752  53.624  28.592  1.00  0.00     0.157 HD
ATOM      7  H21 UNL     1      15.061  51.925  28.128  1.00  0.00     0.157 HD
ENDBRANCH   4   5
BRANCH   4   8
HETATM    8  N3  UNL     1      16.880  53.374  26.514  1.00  0.00    -0.379 N 
ATOM      9  H3  UNL     1      17.469  52.584  26.774  1.00  0.00     0.160 HD
BRANCH   8  10
HETATM   10  C4  UNL     1      17.504  54.514  25.920  1.00  0.00     0.126 C 
BRANCH  10  11
HETATM   11  C5  UNL     1      18.270  54.138  24.657  1.00  0.00     0.066 C 
BRANCH  11  12
HETATM   12  C6  UNL     1      17.247  54.019  23.551  1.00  0.00    -0.014 A 
HETATM   13  C7  UNL     1      16.898  52.934  22.838  1.00  0.00     0.044 A 
HETATM   14  C8  UNL     1      15.945  53.064  21.888  1.00  0.00     0.037 A 
HETATM   15  C14 UNL     1      15.414  54.309  21.738  1.00  0.00     0.079 A 
HETATM   16  S1  UNL     1      16.258  55.251  22.919  1.00  0.00    -0.104 SA
BRANCH  14  17
HETATM   17  N4  UNL     1      15.500  51.965  21.096  1.00  0.00    -0.356 N 
ATOM     18  H4  UNL     1      14.566  51.592  21.268  1.00  0.00     0.162 HD
BRANCH  17  19
HETATM   19  C9  UNL     1      16.296  51.357  20.071  1.00  0.00     0.314 C 
BRANCH  19  20
HETATM   20  O1  UNL     1      15.909  50.001  19.985  1.00  0.00    -0.368 OA
ATOM     21  H1  UNL     1      15.125  49.896  20.510  1.00  0.00     0.212 HD
ENDBRANCH  19  20
BRANCH  19  22
HETATM   22  C10 UNL     1      16.254  51.995  18.748  1.00  0.00     0.293 C 
HETATM   23  O2  UNL     1      15.402  52.934  18.568  1.00  0.00    -0.266 OA
HETATM   24  N5  UNL     1      17.075  51.658  17.652  1.00  0.00    -0.198 N 
HETATM   25  N6  UNL     1      17.035  52.254  16.448  1.00  0.00    -0.273 N 
HETATM   26  C13 UNL     1      18.025  50.700  17.563  1.00  0.00     0.178 A 
HETATM   27  C11 UNL     1      17.921  51.704  15.617  1.00  0.00     0.146 A 
ATOM     28  H6  UNL     1      16.411  53.023  16.203  1.00  0.00     0.189 HD
HETATM   29  N7  UNL     1      18.150  52.030  14.376  1.00  0.00    -0.382 N 
HETATM   30  C12 UNL     1      18.577  50.707  16.282  1.00  0.00     0.141 A 
ATOM     31  H72 UNL     1      17.660  52.774  13.880  1.00  0.00     0.157 HD
ATOM     32  H71 UNL     1      18.827  51.609  13.740  1.00  0.00     0.157 HD
HETATM   33  N8  UNL     1      19.513  49.755  16.205  1.00  0.00    -0.279 N 
HETATM   34  N9  UNL     1      19.556  49.167  17.380  1.00  0.00    -0.240 N 
ATOM     35  H8  UNL     1      20.085  49.528  15.391  1.00  0.00     0.189 HD
HETATM   36  N10 UNL     1      18.688  49.712  18.188  1.00  0.00    -0.267 N 
ATOM     37  H9  UNL     1      20.177  48.397  17.625  1.00  0.00     0.208 HD
ATOM     38  H10 UNL     1      18.534  49.428  19.155  1.00  0.00     0.190 HD
ENDBRANCH  19  22
ENDBRANCH  17  19
ENDBRANCH  14  17
ENDBRANCH  11  12
ENDBRANCH  10  11
ENDBRANCH   8  10
ENDBRANCH   4   8
ENDBRANCH   3   4
TORSDOF 10
ENDMDL
MODEL 2
REMARK VINA RESULT: -8.489257805      1.308      1.570
REMARK  10 active torsions:
REMARK  status: ('A' for Active; 'I' for Inactive)
REMARK    1  A    between atoms: C2_3  and  C3_4 
REMARK    2  A    between atoms: C3_4  and  N2_5 
REMARK    3  A    between atoms: C3_4  and  N3_8 
REMARK    4  A    between atoms: N3_8  and  C4_10 
REMARK    5  A    between atoms: C4_10  and  C5_11 
REMARK    6  A    between atoms: C5_11  and  C6_12 
REMARK    7  A    between atoms: C8_14  and  N4_15 
REMARK    8  A    between atoms: N4_15  and  C9_17 
REMARK    9  A    between atoms: C9_17  and  O1_18 
REMARK   10  A    between atoms: C9_17  and  C10_20 
REMARK       I    between atoms: C10_20  and  N5_22 
ROOT
HETATM    1  N1  UNL     1      13.294  51.462  24.981  1.00  0.00    -0.197 NA
HETATM    2  C1  UNL     1      13.888  52.254  25.618  1.00  0.00     0.066 C 
HETATM    3  C2  UNL     1      14.636  53.214  26.417  1.00  0.00     0.199 C 
ENDROOT
BRANCH   3   4
HETATM    4  C3  UNL     1      13.918  54.504  26.420  1.00  0.00     0.083 C 
BRANCH   4   5
HETATM    5  N2  UNL     1      12.627  54.460  26.483  1.00  0.00    -0.388 N 
ATOM      6  H22 UNL     1      12.101  55.224  26.908  1.00  0.00     0.157 HD
ATOM      7  H21 UNL     1      12.171  53.632  26.097  1.00  0.00     0.157 HD
ENDBRANCH   4   5
BRANCH   4   8
HETATM    8  N3  UNL     1      14.584  55.730  26.364  1.00  0.00    -0.379 N 
ATOM      9  H3  UNL     1      14.381  56.421  27.087  1.00  0.00     0.160 HD
BRANCH   8  10
HETATM   10  C4  UNL     1      15.535  56.071  25.354  1.00  0.00     0.126 C 
BRANCH  10  11
HETATM   11  C5  UNL     1      14.909  56.046  23.965  1.00  0.00     0.066 C 
BRANCH  11  12
HETATM   12  C6  UNL     1      15.530  54.881  23.232  1.00  0.00    -0.014 A 
HETATM   13  C7  UNL     1      15.039  54.177  22.197  1.00  0.00     0.044 A 
HETATM   14  C8  UNL     1      15.780  53.164  21.694  1.00  0.00     0.037 A 
HETATM   15  C14 UNL     1      16.983  52.947  22.294  1.00  0.00     0.079 A 
HETATM   16  S1  UNL     1      17.040  54.154  23.532  1.00  0.00    -0.104 SA
BRANCH  14  17
HETATM   17  N4  UNL     1      15.346  52.375  20.588  1.00  0.00    -0.356 N 
ATOM     18  H4  UNL     1      14.344  52.288  20.420  1.00  0.00     0.162 HD
BRANCH  17  19
HETATM   19  C9  UNL     1      16.245  51.697  19.702  1.00  0.00     0.314 C 
BRANCH  19  20
HETATM   20  O1  UNL     1      15.900  50.326  19.718  1.00  0.00    -0.368 OA
ATOM     21  H1  UNL     1      16.376  49.905  19.012  1.00  0.00     0.212 HD
ENDBRANCH  19  20
BRANCH  19  22
HETATM   22  C10 UNL     1      16.307  52.200  18.324  1.00  0.00     0.293 C 
HETATM   23  O2  UNL     1      15.506  53.147  18.000  1.00  0.00    -0.266 OA
HETATM   24  N5  UNL     1      17.176  51.728  17.319  1.00  0.00    -0.198 N 
HETATM   25  N6  UNL     1      17.231  52.203  16.062  1.00  0.00    -0.273 N 
HETATM   26  C13 UNL     1      18.091  50.734  17.382  1.00  0.00     0.178 A 
HETATM   27  C11 UNL     1      18.142  51.543  15.345  1.00  0.00     0.146 A 
ATOM     28  H6  UNL     1      16.655  52.966  15.706  1.00  0.00     0.189 HD
HETATM   29  N7  UNL     1      18.457  51.736  14.095  1.00  0.00    -0.382 N 
HETATM   30  C12 UNL     1      18.717  50.594  16.143  1.00  0.00     0.141 A 
ATOM     31  H72 UNL     1      18.027  52.444  13.500  1.00  0.00     0.157 HD
ATOM     32  H71 UNL     1      19.153  51.231  13.547  1.00  0.00     0.157 HD
HETATM   33  N8  UNL     1      19.617  49.608  16.218  1.00  0.00    -0.279 N 
HETATM   34  N9  UNL     1      19.566  49.139  17.445  1.00  0.00    -0.240 N 
ATOM     35  H8  UNL     1      20.225  49.282  15.467  1.00  0.00     0.189 HD
HETATM   36  N10 UNL     1      18.675  49.790  18.140  1.00  0.00    -0.267 N 
ATOM     37  H9  UNL     1      20.140  48.375  17.802  1.00  0.00     0.208 HD
ATOM     38  H10 UNL     1      18.454  49.609  19.119  1.00  0.00     0.190 HD
ENDBRANCH  19  22
ENDBRANCH  17  19
ENDBRANCH  14  17
ENDBRANCH  11  12
ENDBRANCH  10  11
ENDBRANCH   8  10
ENDBRANCH   4   8
ENDBRANCH   3   4
TORSDOF 10
ENDMDL
MODEL 3
REMARK VINA RESULT: -8.411319372      2.916      4.726
REMARK  10 active torsions:
REMARK  status: ('A' for Active; 'I' for Inactive)
REMARK    1  A    between atoms: C2_3  and  C3_4 
REMARK    2  A    between atoms: C3_4  and  N2_5 
REMARK    3  A    between atoms: C3_4  and  N3_8 
REMARK    4  A    between atoms: N3_8  and  C4_10 
REMARK    5  A    between atoms: C4_10  and  C5_11 
REMARK    6  A    between atoms: C5_11  and  C6_12 
REMARK    7  A    between atoms: C8_14  and  N4_15 
REMARK    8  A    between atoms: N4_15  and  C9_17 
REMARK    9  A    between atoms: C9_17  and  O1_18 
REMARK   10  A    between atoms: C9_17  and  C10_20 
REMARK       I    between atoms: C10_20  and  N5_22 
ROOT
HETATM    1  N1  UNL     1      13.281  51.428  25.025  1.00  0.00    -0.197 NA
HETATM    2  C1  UNL     1      14.090  52.264  25.209  1.00  0.00     0.066 C 
HETATM    3  C2  UNL     1      15.077  53.303  25.459  1.00  0.00     0.199 C 
ENDROOT
BRANCH   3   4
HETATM    4  C3  UNL     1      15.864  53.529  24.230  1.00  0.00     0.083 C 
BRANCH   4   5
HETATM    5  N2  UNL     1      16.894  54.305  24.324  1.00  0.00    -0.388 N 
ATOM      6  H22 UNL     1      17.700  54.031  24.886  1.00  0.00     0.157 HD
ATOM      7  H21 UNL     1      16.856  55.192  23.821  1.00  0.00     0.157 HD
ENDBRANCH   4   5
BRANCH   4   8
HETATM    8  N3  UNL     1      15.531  52.936  23.010  1.00  0.00    -0.379 N 
ATOM      9  H3  UNL     1      14.852  52.175  23.016  1.00  0.00     0.160 HD
BRANCH   8  10
HETATM   10  C4  UNL     1      16.087  53.334  21.756  1.00  0.00     0.126 C 
BRANCH  10  11
HETATM   11  C5  UNL     1      15.367  52.671  20.589  1.00  0.00     0.066 C 
BRANCH  11  12
HETATM   12  C6  UNL     1      16.403  51.857  19.848  1.00  0.00    -0.014 A 
HETATM   13  C7  UNL     1      16.657  51.817  18.529  1.00  0.00     0.044 A 
HETATM   14  C8  UNL     1      17.646  51.008  18.086  1.00  0.00     0.037 A 
HETATM   15  C14 UNL     1      18.306  50.293  19.038  1.00  0.00     0.079 A 
HETATM   16  S1  UNL     1      17.532  50.770  20.510  1.00  0.00    -0.104 SA
BRANCH  14  17
HETATM   17  N4  UNL     1      17.997  50.913  16.707  1.00  0.00    -0.356 N 
ATOM     18  H4  UNL     1      17.896  50.010  16.243  1.00  0.00     0.162 HD
BRANCH  17  19
HETATM   19  C9  UNL     1      18.483  52.021  15.938  1.00  0.00     0.314 C 
BRANCH  19  20
HETATM   20  O1  UNL     1      19.852  51.786  15.680  1.00  0.00    -0.368 OA
ATOM     21  H1  UNL     1      20.094  52.313  14.928  1.00  0.00     0.212 HD
ENDBRANCH  19  20
BRANCH  19  22
HETATM   22  C10 UNL     1      17.763  52.318  14.694  1.00  0.00     0.293 C 
HETATM   23  O2  UNL     1      18.211  51.803  13.610  1.00  0.00    -0.266 OA
HETATM   24  N5  UNL     1      16.614  53.129  14.588  1.00  0.00    -0.198 N 
HETATM   25  N6  UNL     1      15.956  53.387  13.444  1.00  0.00    -0.273 N 
HETATM   26  C13 UNL     1      15.958  53.806  15.557  1.00  0.00     0.178 A 
HETATM   27  C11 UNL     1      14.920  54.198  13.666  1.00  0.00     0.146 A 
ATOM     28  H6  UNL     1      16.214  53.013  12.531  1.00  0.00     0.189 HD
HETATM   29  N7  UNL     1      14.071  54.654  12.788  1.00  0.00    -0.382 N 
HETATM   30  C12 UNL     1      14.880  54.494  14.999  1.00  0.00     0.141 A 
ATOM     31  H72 UNL     1      14.102  54.433  11.793  1.00  0.00     0.157 HD
ATOM     32  H71 UNL     1      13.279  55.274  12.958  1.00  0.00     0.157 HD
HETATM   33  N8  UNL     1      14.241  55.162  15.965  1.00  0.00    -0.279 N 
HETATM   34  N9  UNL     1      14.881  54.914  17.086  1.00  0.00    -0.240 N 
ATOM     35  H8  UNL     1      13.415  55.750  15.854  1.00  0.00     0.189 HD
HETATM   36  N10 UNL     1      15.891  54.119  16.863  1.00  0.00    -0.267 N 
ATOM     37  H9  UNL     1      14.625  55.288  18.000  1.00  0.00     0.208 HD
ATOM     38  H10 UNL     1      16.538  53.783  17.576  1.00  0.00     0.190 HD
ENDBRANCH  19  22
ENDBRANCH  17  19
ENDBRANCH  14  17
ENDBRANCH  11  12
ENDBRANCH  10  11
ENDBRANCH   8  10
ENDBRANCH   4   8
ENDBRANCH   3   4
TORSDOF 10
ENDMDL
MODEL 4
REMARK VINA RESULT: -8.311359155      1.840      2.977
REMARK  10 active torsions:
REMARK  status: ('A' for Active; 'I' for Inactive)
REMARK    1  A    between atoms: C2_3  and  C3_4 
REMARK    2  A    between atoms: C3_4  and  N2_5 
REMARK    3  A    between atoms: C3_4  and  N3_8 
REMARK    4  A    between atoms: N3_8  and  C4_10 
REMARK    5  A    between atoms: C4_10  and  C5_11 
REMARK    6  A    between atoms: C5_11  and  C6_12 
REMARK    7  A    between atoms: C8_14  and  N4_15 
REMARK    8  A    between atoms: N4_15  and  C9_17 
REMARK    9  A    between atoms: C9_17  and  O1_18 
REMARK   10  A    between atoms: C9_17  and  C10_20 
REMARK       I    between atoms: C10_20  and  N5_22 
ROOT
HETATM    1  N1  UNL     1      13.286  51.457  24.957  1.00  0.00    -0.197 NA
HETATM    2  C1  UNL     1      13.949  52.215  25.568  1.00  0.00     0.066 C 
HETATM    3  C2  UNL     1      14.783  53.130  26.333  1.00  0.00     0.199 C 
ENDROOT
BRANCH   3   4
HETATM    4  C3  UNL     1      14.112  54.443  26.413  1.00  0.00     0.083 C 
BRANCH   4   5
HETATM    5  N2  UNL     1      12.829  54.440  26.575  1.00  0.00    -0.388 N 
ATOM      6  H22 UNL     1      12.205  54.372  25.771  1.00  0.00     0.157 HD
ATOM      7  H21 UNL     1      12.481  54.511  27.532  1.00  0.00     0.157 HD
ENDBRANCH   4   5
BRANCH   4   8
HETATM    8  N3  UNL     1      14.814  55.647  26.327  1.00  0.00    -0.379 N 
ATOM      9  H3  UNL     1      14.746  56.301  27.107  1.00  0.00     0.160 HD
BRANCH   8  10
HETATM   10  C4  UNL     1      15.623  56.015  25.208  1.00  0.00     0.126 C 
BRANCH  10  11
HETATM   11  C5  UNL     1      14.843  55.929  23.901  1.00  0.00     0.066 C 
BRANCH  11  12
HETATM   12  C6  UNL     1      15.445  54.788  23.114  1.00  0.00    -0.014 A 
HETATM   13  C7  UNL     1      14.901  54.076  22.112  1.00  0.00     0.044 A 
HETATM   14  C8  UNL     1      15.635  53.091  21.547  1.00  0.00     0.037 A 
HETATM   15  C14 UNL     1      16.884  52.907  22.056  1.00  0.00     0.079 A 
HETATM   16  S1  UNL     1      16.993  54.106  23.298  1.00  0.00    -0.104 SA
BRANCH  14  17
HETATM   17  N4  UNL     1      15.146  52.296  20.468  1.00  0.00    -0.356 N 
ATOM     18  H4  UNL     1      14.675  51.418  20.689  1.00  0.00     0.162 HD
BRANCH  17  19
HETATM   19  C9  UNL     1      15.282  52.666  19.090  1.00  0.00     0.314 C 
BRANCH  19  20
HETATM   20  O1  UNL     1      15.367  54.076  19.038  1.00  0.00    -0.368 OA
ATOM     21  H1  UNL     1      14.812  54.368  18.325  1.00  0.00     0.212 HD
ENDBRANCH  19  20
BRANCH  19  22
HETATM   22  C10 UNL     1      16.395  52.051  18.356  1.00  0.00     0.293 C 
HETATM   23  O2  UNL     1      17.080  51.152  18.959  1.00  0.00    -0.266 OA
HETATM   24  N5  UNL     1      16.779  52.368  17.036  1.00  0.00    -0.198 N 
HETATM   25  N6  UNL     1      17.794  51.792  16.370  1.00  0.00    -0.273 N 
HETATM   26  C13 UNL     1      16.252  53.284  16.194  1.00  0.00     0.178 A 
HETATM   27  C11 UNL     1      17.917  52.315  15.149  1.00  0.00     0.146 A 
ATOM     28  H6  UNL     1      18.389  51.054  16.747  1.00  0.00     0.189 HD
HETATM   29  N7  UNL     1      18.793  51.997  14.237  1.00  0.00    -0.382 N 
HETATM   30  C12 UNL     1      16.956  53.273  14.989  1.00  0.00     0.141 A 
ATOM     31  H72 UNL     1      19.510  51.283  14.357  1.00  0.00     0.157 HD
ATOM     32  H71 UNL     1      18.887  52.398  13.304  1.00  0.00     0.157 HD
HETATM   33  N8  UNL     1      16.428  54.184  14.166  1.00  0.00    -0.279 N 
HETATM   34  N9  UNL     1      15.434  54.752  14.813  1.00  0.00    -0.240 N 
ATOM     35  H8  UNL     1      16.736  54.397  13.217  1.00  0.00     0.189 HD
HETATM   36  N10 UNL     1      15.319  54.234  16.005  1.00  0.00    -0.267 N 
ATOM     37  H9  UNL     1      14.840  55.491  14.438  1.00  0.00     0.208 HD
ATOM     38  H10 UNL     1      14.620  54.510  16.695  1.00  0.00     0.190 HD
ENDBRANCH  19  22
ENDBRANCH  17  19
ENDBRANCH  14  17
ENDBRANCH  11  12
ENDBRANCH  10  11
ENDBRANCH   8  10
ENDBRANCH   4   8
ENDBRANCH   3   4
TORSDOF 10
ENDMDL
MODEL 5
REMARK VINA RESULT: -8.264503228      1.388      1.572
REMARK  10 active torsions:
REMARK  status: ('A' for Active; 'I' for Inactive)
REMARK    1  A    between atoms: C2_3  and  C3_4 
REMARK    2  A    between atoms: C3_4  and  N2_5 
REMARK    3  A    between atoms: C3_4  and  N3_8 
REMARK    4  A    between atoms: N3_8  and  C4_10 
REMARK    5  A    between atoms: C4_10  and  C5_11 
REMARK    6  A    between atoms: C5_11  and  C6_12 
REMARK    7  A    between atoms: C8_14  and  N4_15 
REMARK    8  A    between atoms: N4_15  and  C9_17 
REMARK    9  A    between atoms: C9_17  and  O1_18 
REMARK   10  A    between atoms: C9_17  and  C10_20 
REMARK       I    between atoms: C10_20  and  N5_22 
ROOT
HETATM    1  N1  UNL     1      13.649  51.468  24.984  1.00  0.00    -0.197 NA
HETATM    2  C1  UNL     1      13.648  52.569  25.401  1.00  0.00     0.066 C 
HETATM    3  C2  UNL     1      13.640  53.939  25.891  1.00  0.00     0.199 C 
ENDROOT
BRANCH   3   4
HETATM    4  C3  UNL     1      14.340  53.992  27.190  1.00  0.00     0.083 C 
BRANCH   4   5
HETATM    5  N2  UNL     1      14.226  52.962  27.963  1.00  0.00    -0.388 N 
ATOM      6  H22 UNL     1      13.598  52.196  27.718  1.00  0.00     0.157 HD
ATOM      7  H21 UNL     1      14.784  52.958  28.818  1.00  0.00     0.157 HD
ENDBRANCH   4   5
BRANCH   4   8
HETATM    8  N3  UNL     1      15.102  55.095  27.583  1.00  0.00    -0.379 N 
ATOM      9  H3  UNL     1      15.127  55.333  28.574  1.00  0.00     0.160 HD
BRANCH   8  10
HETATM   10  C4  UNL     1      15.848  55.907  26.676  1.00  0.00     0.126 C 
BRANCH  10  11
HETATM   11  C5  UNL     1      17.087  55.182  26.164  1.00  0.00     0.066 C 
BRANCH  11  12
HETATM   12  C6  UNL     1      16.841  54.885  24.703  1.00  0.00    -0.014 A 
HETATM   13  C7  UNL     1      17.005  53.729  24.037  1.00  0.00     0.044 A 
HETATM   14  C8  UNL     1      16.717  53.696  22.717  1.00  0.00     0.037 A 
HETATM   15  C14 UNL     1      16.276  54.863  22.171  1.00  0.00     0.079 A 
HETATM   16  S1  UNL     1      16.279  55.960  23.508  1.00  0.00    -0.104 SA
BRANCH  14  17
HETATM   17  N4  UNL     1      16.845  52.510  21.935  1.00  0.00    -0.356 N 
ATOM     18  H4  UNL     1      17.758  52.056  21.892  1.00  0.00     0.162 HD
BRANCH  17  19
HETATM   19  C9  UNL     1      15.759  51.923  21.207  1.00  0.00     0.314 C 
BRANCH  19  20
HETATM   20  O1  UNL     1      14.605  52.025  22.016  1.00  0.00    -0.368 OA
ATOM     21  H1  UNL     1      13.888  52.294  21.454  1.00  0.00     0.212 HD
ENDBRANCH  19  20
BRANCH  19  22
HETATM   22  C10 UNL     1      15.504  52.465  19.866  1.00  0.00     0.293 C 
HETATM   23  O2  UNL     1      14.541  53.299  19.735  1.00  0.00    -0.266 OA
HETATM   24  N5  UNL     1      16.233  52.143  18.702  1.00  0.00    -0.198 N 
HETATM   25  N6  UNL     1      15.997  52.653  17.481  1.00  0.00    -0.273 N 
HETATM   26  C13 UNL     1      17.266  51.284  18.555  1.00  0.00     0.178 A 
HETATM   27  C11 UNL     1      16.842  52.143  16.583  1.00  0.00     0.146 A 
ATOM     28  H6  UNL     1      15.270  53.337  17.269  1.00  0.00     0.189 HD
HETATM   29  N7  UNL     1      16.898  52.409  15.309  1.00  0.00    -0.382 N 
HETATM   30  C12 UNL     1      17.672  51.263  17.220  1.00  0.00     0.141 A 
ATOM     31  H72 UNL     1      16.278  53.066  14.833  1.00  0.00     0.157 HD
ATOM     32  H71 UNL     1      17.544  52.020  14.622  1.00  0.00     0.157 HD
HETATM   33  N8  UNL     1      18.692  50.410  17.087  1.00  0.00    -0.279 N 
HETATM   34  N9  UNL     1      18.926  49.907  18.279  1.00  0.00    -0.240 N 
ATOM     35  H8  UNL     1      19.192  50.190  16.225  1.00  0.00     0.189 HD
HETATM   36  N10 UNL     1      18.097  50.411  19.151  1.00  0.00    -0.267 N 
ATOM     37  H9  UNL     1      19.650  49.222  18.491  1.00  0.00     0.208 HD
ATOM     38  H10 UNL     1      18.082  50.177  20.144  1.00  0.00     0.190 HD
ENDBRANCH  19  22
ENDBRANCH  17  19
ENDBRANCH  14  17
ENDBRANCH  11  12
ENDBRANCH  10  11
ENDBRANCH   8  10
ENDBRANCH   4   8
ENDBRANCH   3   4
TORSDOF 10
ENDMDL
