MODEL 1
REMARK VINA RESULT: -8.274817457      0.000      0.000
REMARK  9 active torsions:
REMARK  status: ('A' for Active; 'I' for Inactive)
REMARK    1  A    between atoms: C2_3  and  C3_4 
REMARK    2  A    between atoms: C3_4  and  O1_5 
REMARK    3  A    between atoms: C3_4  and  N2_7 
REMARK    4  A    between atoms: N2_7  and  C4_9 
REMARK    5  A    between atoms: N3_13  and  C8_14 
REMARK    6  A    between atoms: C12_18  and  C13_19 
REMARK    7  A    between atoms: C13_19  and  N4_20 
REMARK    8  A    between atoms: C13_19  and  C14_24 
REMARK    9  A    between atoms: C14_24  and  C15_25 
ROOT
HETATM    1  N1  UNL     1      14.763  53.598  19.380  1.00  0.00    -0.100 NA
HETATM    2  C1  UNL     1      15.742  52.841  18.667  1.00  0.00     0.085 A 
HETATM    3  C2  UNL     1      16.470  51.840  19.269  1.00  0.00     0.031 A 
HETATM    4  C7  UNL     1      17.420  51.111  18.566  1.00  0.00     0.108 A 
HETATM    5  N3  UNL     1      17.658  51.367  17.256  1.00  0.00    -0.318 N 
HETATM    6  C16 UNL     1      16.965  52.335  16.643  1.00  0.00     0.131 A 
HETATM    7  S1  UNL     1      17.275  52.623  15.069  1.00  0.00    -0.058 SA
HETATM    8  C17 UNL     1      16.003  53.083  17.331  1.00  0.00     0.109 A 
HETATM    9  N5  UNL     1      15.302  54.093  16.628  1.00  0.00    -0.097 NA
ENDROOT
BRANCH   5  10
HETATM   10  C8  UNL     1      18.631  50.604  16.554  1.00  0.00     0.228 C 
HETATM   11  C9  UNL     1      20.036  51.085  16.872  1.00  0.00     0.054 C 
HETATM   12  C10 UNL     1      20.803  50.118  17.738  1.00  0.00     0.007 C 
HETATM   13  C11 UNL     1      20.823  48.710  17.157  1.00  0.00     0.034 C 
HETATM   14  C12 UNL     1      19.694  48.682  16.119  1.00  0.00     0.155 C 
HETATM   15  O4  UNL     1      18.526  49.239  16.656  1.00  0.00    -0.359 OA
BRANCH  14  16
HETATM   16  C13 UNL     1      19.482  47.313  15.577  1.00  0.00     0.222 C 
BRANCH  16  17
HETATM   17  N4  UNL     1      19.838  46.271  16.527  1.00  0.00    -0.072 N 
ATOM     18  H43 UNL     1      20.787  46.403  16.876  1.00  0.00     0.274 HD
ATOM     19  H42 UNL     1      19.324  46.380  17.400  1.00  0.00     0.274 HD
ATOM     20  H41 UNL     1      19.717  45.332  16.146  1.00  0.00     0.274 HD
ENDBRANCH  16  17
BRANCH  16  21
HETATM   21  C14 UNL     1      18.116  47.133  14.996  1.00  0.00     0.148 C 
BRANCH  21  22
HETATM   22  C15 UNL     1      17.883  45.752  14.548  1.00  0.00     0.174 C 
HETATM   23  O2  UNL     1      18.894  45.146  14.052  1.00  0.00    -0.648 OA
HETATM   24  O3  UNL     1      16.678  45.067  14.618  1.00  0.00    -0.648 OA
ENDBRANCH  21  22
ENDBRANCH  16  21
ENDBRANCH  14  16
ENDBRANCH   5  10
BRANCH   3  25
HETATM   25  C3  UNL     1      16.191  51.565  20.723  1.00  0.00     0.251 C 
BRANCH  25  26
HETATM   26  O1  UNL     1      16.522  50.233  20.954  1.00  0.00    -0.373 OA
ATOM     27  H1  UNL     1      16.050  49.962  21.732  1.00  0.00     0.212 HD
ENDBRANCH  25  26
BRANCH  25  28
HETATM   28  N2  UNL     1      17.003  52.405  21.538  1.00  0.00    -0.389 N 
ATOM     29  H2  UNL     1      18.022  52.383  21.494  1.00  0.00     0.156 HD
BRANCH  28  30
HETATM   30  C4  UNL     1      16.303  53.279  22.418  1.00  0.00     0.079 A 
HETATM   31  C5  UNL     1      17.206  53.885  23.494  1.00  0.00     0.027 A 
HETATM   32  C6  UNL     1      16.465  54.728  22.503  1.00  0.00     0.027 A 
ENDBRANCH  28  30
ENDBRANCH  25  28
ENDBRANCH   3  25
TORSDOF 9
ENDMDL
MODEL 2
REMARK VINA RESULT: -7.787296605      2.462      7.696
REMARK  9 active torsions:
REMARK  status: ('A' for Active; 'I' for Inactive)
REMARK    1  A    between atoms: C2_3  and  C3_4 
REMARK    2  A    between atoms: C3_4  and  O1_5 
REMARK    3  A    between atoms: C3_4  and  N2_7 
REMARK    4  A    between atoms: N2_7  and  C4_9 
REMARK    5  A    between atoms: N3_13  and  C8_14 
REMARK    6  A    between atoms: C12_18  and  C13_19 
REMARK    7  A    between atoms: C13_19  and  N4_20 
REMARK    8  A    between atoms: C13_19  and  C14_24 
REMARK    9  A    between atoms: C14_24  and  C15_25 
ROOT
HETATM    1  N1  UNL     1      18.099  51.290  14.472  1.00  0.00    -0.100 NA
HETATM    2  C1  UNL     1      17.477  51.729  15.681  1.00  0.00     0.085 A 
HETATM    3  C2  UNL     1      17.642  51.057  16.871  1.00  0.00     0.031 A 
HETATM    4  C7  UNL     1      17.032  51.492  18.040  1.00  0.00     0.108 A 
HETATM    5  N3  UNL     1      16.251  52.601  18.041  1.00  0.00    -0.318 N 
HETATM    6  C16 UNL     1      16.073  53.276  16.898  1.00  0.00     0.131 A 
HETATM    7  S1  UNL     1      15.126  54.603  16.930  1.00  0.00    -0.058 SA
HETATM    8  C17 UNL     1      16.677  52.857  15.708  1.00  0.00     0.109 A 
HETATM    9  N5  UNL     1      16.451  53.612  14.532  1.00  0.00    -0.097 NA
ENDROOT
BRANCH   5  10
HETATM   10  C8  UNL     1      15.641  53.032  19.251  1.00  0.00     0.228 C 
HETATM   11  C9  UNL     1      14.582  52.045  19.712  1.00  0.00     0.054 C 
HETATM   12  C10 UNL     1      15.004  51.261  20.928  1.00  0.00     0.007 C 
HETATM   13  C11 UNL     1      15.450  52.161  22.073  1.00  0.00     0.034 C 
HETATM   14  C12 UNL     1      15.719  53.529  21.433  1.00  0.00     0.155 C 
HETATM   15  O4  UNL     1      16.490  53.379  20.273  1.00  0.00    -0.359 OA
BRANCH  14  16
HETATM   16  C13 UNL     1      16.322  54.479  22.406  1.00  0.00     0.222 C 
BRANCH  16  17
HETATM   17  N4  UNL     1      15.325  55.256  23.125  1.00  0.00    -0.072 N 
ATOM     18  H43 UNL     1      14.808  55.865  22.491  1.00  0.00     0.274 HD
ATOM     19  H42 UNL     1      14.560  54.662  23.445  1.00  0.00     0.274 HD
ATOM     20  H41 UNL     1      15.723  55.788  23.900  1.00  0.00     0.274 HD
ENDBRANCH  16  17
BRANCH  16  21
HETATM   21  C14 UNL     1      17.315  53.820  23.310  1.00  0.00     0.148 C 
BRANCH  21  22
HETATM   22  C15 UNL     1      17.161  54.251  24.707  1.00  0.00     0.174 C 
HETATM   23  O2  UNL     1      16.506  53.459  25.468  1.00  0.00    -0.648 OA
HETATM   24  O3  UNL     1      17.660  55.425  25.255  1.00  0.00    -0.648 OA
ENDBRANCH  21  22
ENDBRANCH  16  21
ENDBRANCH  14  16
ENDBRANCH   5  10
BRANCH   3  25
HETATM   25  C3  UNL     1      18.515  49.830  16.854  1.00  0.00     0.251 C 
BRANCH  25  26
HETATM   26  O1  UNL     1      18.189  49.117  15.704  1.00  0.00    -0.373 OA
ATOM     27  H1  UNL     1      18.520  49.616  14.967  1.00  0.00     0.212 HD
ENDBRANCH  25  26
BRANCH  25  28
HETATM   28  N2  UNL     1      19.886  50.215  16.802  1.00  0.00    -0.389 N 
ATOM     29  H2  UNL     1      20.285  50.695  15.994  1.00  0.00     0.156 HD
BRANCH  28  30
HETATM   30  C4  UNL     1      20.665  49.888  17.948  1.00  0.00     0.079 A 
HETATM   31  C5  UNL     1      22.168  50.046  17.708  1.00  0.00     0.027 A 
HETATM   32  C6  UNL     1      21.439  50.823  18.759  1.00  0.00     0.027 A 
ENDBRANCH  28  30
ENDBRANCH  25  28
ENDBRANCH   3  25
TORSDOF 9
ENDMDL
MODEL 3
REMARK VINA RESULT: -7.750052790      1.105      1.378
REMARK  9 active torsions:
REMARK  status: ('A' for Active; 'I' for Inactive)
REMARK    1  A    between atoms: C2_3  and  C3_4 
REMARK    2  A    between atoms: C3_4  and  O1_5 
REMARK    3  A    between atoms: C3_4  and  N2_7 
REMARK    4  A    between atoms: N2_7  and  C4_9 
REMARK    5  A    between atoms: N3_13  and  C8_14 
REMARK    6  A    between atoms: C12_18  and  C13_19 
REMARK    7  A    between atoms: C13_19  and  N4_20 
REMARK    8  A    between atoms: C13_19  and  C14_24 
REMARK    9  A    between atoms: C14_24  and  C15_25 
ROOT
HETATM    1  N1  UNL     1      14.892  54.375  17.069  1.00  0.00    -0.100 NA
HETATM    2  C1  UNL     1      15.904  53.407  16.786  1.00  0.00     0.085 A 
HETATM    3  C2  UNL     1      16.374  52.542  17.747  1.00  0.00     0.031 A 
HETATM    4  C7  UNL     1      17.359  51.606  17.461  1.00  0.00     0.108 A 
HETATM    5  N3  UNL     1      17.888  51.517  16.215  1.00  0.00    -0.318 N 
HETATM    6  C16 UNL     1      17.451  52.346  15.259  1.00  0.00     0.131 A 
HETATM    7  S1  UNL     1      18.108  52.219  13.773  1.00  0.00    -0.058 SA
HETATM    8  C17 UNL     1      16.460  53.298  15.524  1.00  0.00     0.109 A 
HETATM    9  N5  UNL     1      16.038  54.145  14.471  1.00  0.00    -0.097 NA
ENDROOT
BRANCH   5  10
HETATM   10  C8  UNL     1      18.892  50.547  15.943  1.00  0.00     0.228 C 
HETATM   11  C9  UNL     1      20.178  50.867  16.685  1.00  0.00     0.054 C 
HETATM   12  C10 UNL     1      20.445  49.920  17.826  1.00  0.00     0.007 C 
HETATM   13  C11 UNL     1      20.412  48.461  17.390  1.00  0.00     0.034 C 
HETATM   14  C12 UNL     1      19.694  48.458  16.034  1.00  0.00     0.155 C 
HETATM   15  O4  UNL     1      18.528  49.232  16.101  1.00  0.00    -0.359 OA
BRANCH  14  16
HETATM   16  C13 UNL     1      19.440  47.075  15.552  1.00  0.00     0.222 C 
BRANCH  16  17
HETATM   17  N4  UNL     1      19.772  46.064  16.544  1.00  0.00    -0.072 N 
ATOM     18  H43 UNL     1      20.158  45.230  16.101  1.00  0.00     0.274 HD
ATOM     19  H42 UNL     1      20.580  46.346  17.098  1.00  0.00     0.274 HD
ATOM     20  H41 UNL     1      18.982  45.825  17.144  1.00  0.00     0.274 HD
ENDBRANCH  16  17
BRANCH  16  21
HETATM   21  C14 UNL     1      18.066  46.909  14.986  1.00  0.00     0.148 C 
BRANCH  21  22
HETATM   22  C15 UNL     1      17.842  45.554  14.463  1.00  0.00     0.174 C 
HETATM   23  O2  UNL     1      18.853  44.990  13.917  1.00  0.00    -0.648 OA
HETATM   24  O3  UNL     1      16.646  44.851  14.511  1.00  0.00    -0.648 OA
ENDBRANCH  21  22
ENDBRANCH  16  21
ENDBRANCH  14  16
ENDBRANCH   5  10
BRANCH   3  25
HETATM   25  C3  UNL     1      15.773  52.649  19.123  1.00  0.00     0.251 C 
BRANCH  25  26
HETATM   26  O1  UNL     1      14.735  51.724  19.185  1.00  0.00    -0.373 OA
ATOM     27  H1  UNL     1      13.932  52.218  19.302  1.00  0.00     0.212 HD
ENDBRANCH  25  26
BRANCH  25  28
HETATM   28  N2  UNL     1      16.755  52.329  20.105  1.00  0.00    -0.389 N 
ATOM     29  H2  UNL     1      17.724  52.129  19.857  1.00  0.00     0.156 HD
BRANCH  28  30
HETATM   30  C4  UNL     1      16.298  52.306  21.453  1.00  0.00     0.079 A 
HETATM   31  C5  UNL     1      17.065  53.276  22.355  1.00  0.00     0.027 A 
HETATM   32  C6  UNL     1      15.586  53.379  22.141  1.00  0.00     0.027 A 
ENDBRANCH  28  30
ENDBRANCH  25  28
ENDBRANCH   3  25
TORSDOF 9
ENDMDL
MODEL 4
REMARK VINA RESULT: -7.449743602      2.714      7.730
REMARK  9 active torsions:
REMARK  status: ('A' for Active; 'I' for Inactive)
REMARK    1  A    between atoms: C2_3  and  C3_4 
REMARK    2  A    between atoms: C3_4  and  O1_5 
REMARK    3  A    between atoms: C3_4  and  N2_7 
REMARK    4  A    between atoms: N2_7  and  C4_9 
REMARK    5  A    between atoms: N3_13  and  C8_14 
REMARK    6  A    between atoms: C12_18  and  C13_19 
REMARK    7  A    between atoms: C13_19  and  N4_20 
REMARK    8  A    between atoms: C13_19  and  C14_24 
REMARK    9  A    between atoms: C14_24  and  C15_25 
ROOT
HETATM    1  N1  UNL     1      18.159  52.172  13.685  1.00  0.00    -0.100 NA
HETATM    2  C1  UNL     1      17.668  52.185  15.027  1.00  0.00     0.085 A 
HETATM    3  C2  UNL     1      18.163  51.339  15.993  1.00  0.00     0.031 A 
HETATM    4  C7  UNL     1      17.678  51.361  17.293  1.00  0.00     0.108 A 
HETATM    5  N3  UNL     1      16.695  52.224  17.651  1.00  0.00    -0.318 N 
HETATM    6  C16 UNL     1      16.194  53.060  16.733  1.00  0.00     0.131 A 
HETATM    7  S1  UNL     1      15.011  54.084  17.191  1.00  0.00    -0.058 SA
HETATM    8  C17 UNL     1      16.667  53.057  15.416  1.00  0.00     0.109 A 
HETATM    9  N5  UNL     1      16.097  53.965  14.491  1.00  0.00    -0.097 NA
ENDROOT
BRANCH   5  10
HETATM   10  C8  UNL     1      16.218  52.233  18.991  1.00  0.00     0.228 C 
HETATM   11  C9  UNL     1      16.366  50.864  19.633  1.00  0.00     0.054 C 
HETATM   12  C10 UNL     1      17.454  50.823  20.675  1.00  0.00     0.007 C 
HETATM   13  C11 UNL     1      17.288  51.909  21.730  1.00  0.00     0.034 C 
HETATM   14  C12 UNL     1      16.317  52.926  21.117  1.00  0.00     0.155 C 
HETATM   15  O4  UNL     1      16.698  53.230  19.804  1.00  0.00    -0.359 OA
BRANCH  14  16
HETATM   16  C13 UNL     1      16.181  54.137  21.971  1.00  0.00     0.222 C 
BRANCH  16  17
HETATM   17  N4  UNL     1      14.795  54.458  22.275  1.00  0.00    -0.072 N 
ATOM     18  H43 UNL     1      14.278  54.684  21.426  1.00  0.00     0.274 HD
ATOM     19  H42 UNL     1      14.282  53.626  22.565  1.00  0.00     0.274 HD
ATOM     20  H41 UNL     1      14.705  55.202  22.966  1.00  0.00     0.274 HD
ENDBRANCH  16  17
BRANCH  16  21
HETATM   21  C14 UNL     1      17.049  54.080  23.187  1.00  0.00     0.148 C 
BRANCH  21  22
HETATM   22  C15 UNL     1      16.291  54.342  24.420  1.00  0.00     0.174 C 
HETATM   23  O2  UNL     1      15.818  53.313  25.016  1.00  0.00    -0.648 OA
HETATM   24  O3  UNL     1      16.052  55.590  24.977  1.00  0.00    -0.648 OA
ENDBRANCH  21  22
ENDBRANCH  16  21
ENDBRANCH  14  16
ENDBRANCH   5  10
BRANCH   3  25
HETATM   25  C3  UNL     1      19.257  50.390  15.581  1.00  0.00     0.251 C 
BRANCH  25  26
HETATM   26  O1  UNL     1      20.438  51.125  15.545  1.00  0.00    -0.373 OA
ATOM     27  H1  UNL     1      20.264  51.948  15.986  1.00  0.00     0.212 HD
ENDBRANCH  25  26
BRANCH  25  28
HETATM   28  N2  UNL     1      19.376  49.345  16.542  1.00  0.00    -0.389 N 
ATOM     29  H2  UNL     1      18.860  49.356  17.422  1.00  0.00     0.156 HD
BRANCH  28  30
HETATM   30  C4  UNL     1      20.261  48.284  16.198  1.00  0.00     0.079 A 
HETATM   31  C5  UNL     1      21.545  48.290  17.029  1.00  0.00     0.027 A 
HETATM   32  C6  UNL     1      20.593  47.134  17.033  1.00  0.00     0.027 A 
ENDBRANCH  28  30
ENDBRANCH  25  28
ENDBRANCH   3  25
TORSDOF 9
ENDMDL
MODEL 5
REMARK VINA RESULT: -7.292317867      1.561      1.933
REMARK  9 active torsions:
REMARK  status: ('A' for Active; 'I' for Inactive)
REMARK    1  A    between atoms: C2_3  and  C3_4 
REMARK    2  A    between atoms: C3_4  and  O1_5 
REMARK    3  A    between atoms: C3_4  and  N2_7 
REMARK    4  A    between atoms: N2_7  and  C4_9 
REMARK    5  A    between atoms: N3_13  and  C8_14 
REMARK    6  A    between atoms: C12_18  and  C13_19 
REMARK    7  A    between atoms: C13_19  and  N4_20 
REMARK    8  A    between atoms: C13_19  and  C14_24 
REMARK    9  A    between atoms: C14_24  and  C15_25 
ROOT
HETATM    1  N1  UNL     1      14.749  53.593  19.386  1.00  0.00    -0.100 NA
HETATM    2  C1  UNL     1      15.763  52.791  18.776  1.00  0.00     0.085 A 
HETATM    3  C2  UNL     1      16.469  51.846  19.485  1.00  0.00     0.031 A 
HETATM    4  C7  UNL     1      17.453  51.074  18.882  1.00  0.00     0.108 A 
HETATM    5  N3  UNL     1      17.747  51.230  17.567  1.00  0.00    -0.318 N 
HETATM    6  C16 UNL     1      17.076  52.142  16.852  1.00  0.00     0.131 A 
HETATM    7  S1  UNL     1      17.454  52.310  15.275  1.00  0.00    -0.058 SA
HETATM    8  C17 UNL     1      16.081  52.932  17.437  1.00  0.00     0.109 A 
HETATM    9  N5  UNL     1      15.407  53.879  16.629  1.00  0.00    -0.097 NA
ENDROOT
BRANCH   5  10
HETATM   10  C8  UNL     1      18.754  50.424  16.970  1.00  0.00     0.228 C 
HETATM   11  C9  UNL     1      20.059  51.189  16.833  1.00  0.00     0.054 C 
HETATM   12  C10 UNL     1      21.118  50.714  17.793  1.00  0.00     0.007 C 
HETATM   13  C11 UNL     1      21.352  49.212  17.702  1.00  0.00     0.034 C 
HETATM   14  C12 UNL     1      20.124  48.652  16.972  1.00  0.00     0.155 C 
HETATM   15  O4  UNL     1      18.950  49.182  17.522  1.00  0.00    -0.359 OA
BRANCH  14  16
HETATM   16  C13 UNL     1      20.130  47.166  16.950  1.00  0.00     0.222 C 
BRANCH  16  17
HETATM   17  N4  UNL     1      19.543  46.619  15.736  1.00  0.00    -0.072 N 
ATOM     18  H43 UNL     1      20.266  46.313  15.086  1.00  0.00     0.274 HD
ATOM     19  H42 UNL     1      19.094  45.722  15.919  1.00  0.00     0.274 HD
ATOM     20  H41 UNL     1      18.896  47.266  15.285  1.00  0.00     0.274 HD
ENDBRANCH  16  17
BRANCH  16  21
HETATM   21  C14 UNL     1      21.477  46.593  17.257  1.00  0.00     0.148 C 
BRANCH  21  22
HETATM   22  C15 UNL     1      21.418  45.147  17.516  1.00  0.00     0.174 C 
HETATM   23  O2  UNL     1      20.822  44.443  16.630  1.00  0.00    -0.648 OA
HETATM   24  O3  UNL     1      21.944  44.498  18.624  1.00  0.00    -0.648 OA
ENDBRANCH  21  22
ENDBRANCH  16  21
ENDBRANCH  14  16
ENDBRANCH   5  10
BRANCH   3  25
HETATM   25  C3  UNL     1      16.128  51.681  20.942  1.00  0.00     0.251 C 
BRANCH  25  26
HETATM   26  O1  UNL     1      16.375  50.351  21.267  1.00  0.00    -0.373 OA
ATOM     27  H1  UNL     1      15.892  49.821  20.645  1.00  0.00     0.212 HD
ENDBRANCH  25  26
BRANCH  25  28
HETATM   28  N2  UNL     1      16.960  52.527  21.731  1.00  0.00    -0.389 N 
ATOM     29  H2  UNL     1      17.978  52.498  21.668  1.00  0.00     0.156 HD
BRANCH  28  30
HETATM   30  C4  UNL     1      16.282  53.415  22.614  1.00  0.00     0.079 A 
HETATM   31  C5  UNL     1      17.198  53.989  23.696  1.00  0.00     0.027 A 
HETATM   32  C6  UNL     1      16.484  54.858  22.707  1.00  0.00     0.027 A 
ENDBRANCH  28  30
ENDBRANCH  25  28
ENDBRANCH   3  25
TORSDOF 9
ENDMDL
