MODEL 1
REMARK VINA RESULT: -7.968935048      0.000      0.000
REMARK  11 active torsions:
REMARK  status: ('A' for Active; 'I' for Inactive)
REMARK    1  A    between atoms: N1_1  and  C1_4 
REMARK    2  A    between atoms: C2_7  and  N3_8 
REMARK    3  A    between atoms: C4_12  and  N4_13 
REMARK    4  A    between atoms: N4_13  and  O1_15 
REMARK    5  A    between atoms: C6_18  and  C7_19 
REMARK    6  A    between atoms: C7_19  and  O2_21 
REMARK    7  A    between atoms: C10_28  and  O3_29 
REMARK    8  A    between atoms: O3_29  and  C11_30 
REMARK    9  A    between atoms: C11_30  and  C12_31 
REMARK   10  A    between atoms: C12_31  and  O4_32 
REMARK   11  A    between atoms: O4_32  and  N8_33 
ROOT
HETATM    1  C1  UNL     1      17.943  51.608  13.585  1.00  0.00     0.692 A 
HETATM    2  N2  UNL     1      16.801  52.303  13.675  1.00  0.00    -0.174 N 
ATOM      3  H2  UNL     1      16.454  52.814  12.863  1.00  0.00     0.186 HD
HETATM    4  C2  UNL     1      16.112  52.330  14.826  1.00  0.00     0.146 A 
HETATM    5  C3  UNL     1      16.604  51.635  15.909  1.00  0.00     0.133 A 
HETATM    6  C4  UNL     1      15.840  51.632  17.063  1.00  0.00     0.100 A 
HETATM    7  C5  UNL     1      16.250  50.893  18.147  1.00  0.00     0.043 A 
HETATM    8  C6  UNL     1      15.773  50.626  19.405  1.00  0.00     0.068 A 
HETATM    9  C8  UNL     1      16.725  49.757  19.995  1.00  0.00     0.132 A 
HETATM   10  N6  UNL     1      16.625  49.230  21.315  1.00  0.00    -0.082 NA
HETATM   11  N7  UNL     1      17.695  49.533  19.117  1.00  0.00    -0.340 N 
ATOM     12  H7  UNL     1      18.503  48.939  19.300  1.00  0.00     0.167 HD
HETATM   13  C9  UNL     1      17.491  50.169  17.987  1.00  0.00     0.101 A 
HETATM   14  C10 UNL     1      18.265  50.188  16.806  1.00  0.00     0.193 A 
HETATM   15  N9  UNL     1      17.773  50.928  15.807  1.00  0.00    -0.212 N 
HETATM   16  N10 UNL     1      18.417  50.931  14.640  1.00  0.00    -0.123 N 
ATOM     17  H10 UNL     1      19.288  50.408  14.549  1.00  0.00     0.206 HD
ENDROOT
BRANCH  14  18
HETATM   18  O3  UNL     1      19.422  49.462  16.787  1.00  0.00    -0.331 OA
BRANCH  18  19
HETATM   19  C11 UNL     1      19.701  48.223  16.293  1.00  0.00     0.206 C 
BRANCH  19  20
HETATM   20  C12 UNL     1      20.840  47.392  16.689  1.00  0.00     0.227 C 
BRANCH  20  21
HETATM   21  O4  UNL     1      22.010  47.480  15.998  1.00  0.00    -0.285 OA
BRANCH  21  22
HETATM   22  N8  UNL     1      23.046  47.351  16.828  1.00  0.00    -0.311 N 
ATOM     23  H82 UNL     1      22.967  47.050  17.799  1.00  0.00     0.184 HD
ATOM     24  H81 UNL     1      23.913  47.595  16.349  1.00  0.00     0.184 HD
ENDBRANCH  21  22
ENDBRANCH  20  21
ENDBRANCH  19  20
ENDBRANCH  18  19
ENDBRANCH  14  18
BRANCH   6  25
HETATM   25  N4  UNL     1      14.720  52.508  17.156  1.00  0.00    -0.266 N 
ATOM     26  H4  UNL     1      13.787  52.287  16.809  1.00  0.00     0.194 HD
BRANCH  25  27
HETATM   27  O1  UNL     1      15.037  53.628  17.739  1.00  0.00    -0.289 OA
ATOM     28  H1  UNL     1      14.271  54.074  18.079  1.00  0.00     0.244 HD
ENDBRANCH  25  27
ENDBRANCH   6  25
BRANCH   8  29
HETATM   29  C7  UNL     1      14.559  51.052  20.061  1.00  0.00     0.164 C 
HETATM   30  N5  UNL     1      13.214  50.799  19.780  1.00  0.00    -0.074 NA
BRANCH  29  31
HETATM   31  O2  UNL     1      14.748  51.806  21.111  1.00  0.00    -0.348 OA
ATOM     32  H2  UNL     1      14.275  51.526  21.885  1.00  0.00     0.219 HD
ENDBRANCH  29  31
ENDBRANCH   8  29
BRANCH   4  33
HETATM   33  N3  UNL     1      14.973  52.982  14.870  1.00  0.00    -0.383 N 
ATOM     34  H32 UNL     1      14.249  52.864  14.161  1.00  0.00     0.157 HD
ATOM     35  H31 UNL     1      14.818  53.656  15.621  1.00  0.00     0.157 HD
ENDBRANCH   4  33
BRANCH   1  36
HETATM   36  N1  UNL     1      18.618  51.580  12.460  1.00  0.00    -0.233 N 
ATOM     37  H12 UNL     1      18.167  51.909  11.607  1.00  0.00     0.174 HD
ATOM     38  H11 UNL     1      19.577  51.234  12.440  1.00  0.00     0.174 HD
ENDBRANCH   1  36
TORSDOF 11
ENDMDL
MODEL 2
REMARK VINA RESULT: -7.361944912      1.997      5.196
REMARK  11 active torsions:
REMARK  status: ('A' for Active; 'I' for Inactive)
REMARK    1  A    between atoms: N1_1  and  C1_4 
REMARK    2  A    between atoms: C2_7  and  N3_8 
REMARK    3  A    between atoms: C4_12  and  N4_13 
REMARK    4  A    between atoms: N4_13  and  O1_15 
REMARK    5  A    between atoms: C6_18  and  C7_19 
REMARK    6  A    between atoms: C7_19  and  O2_21 
REMARK    7  A    between atoms: C10_28  and  O3_29 
REMARK    8  A    between atoms: O3_29  and  C11_30 
REMARK    9  A    between atoms: C11_30  and  C12_31 
REMARK   10  A    between atoms: C12_31  and  O4_32 
REMARK   11  A    between atoms: O4_32  and  N8_33 
ROOT
HETATM    1  C1  UNL     1      18.087  51.259  13.492  1.00  0.00     0.692 A 
HETATM    2  N2  UNL     1      18.856  50.321  14.062  1.00  0.00    -0.174 N 
ATOM      3  H2  UNL     1      19.613  49.893  13.529  1.00  0.00     0.186 HD
HETATM    4  C2  UNL     1      18.634  49.941  15.330  1.00  0.00     0.146 A 
HETATM    5  C3  UNL     1      17.603  50.530  16.028  1.00  0.00     0.133 A 
HETATM    6  C4  UNL     1      17.437  50.161  17.351  1.00  0.00     0.100 A 
HETATM    7  C5  UNL     1      16.470  50.774  18.111  1.00  0.00     0.043 A 
HETATM    8  C6  UNL     1      16.036  50.704  19.411  1.00  0.00     0.068 A 
HETATM    9  C8  UNL     1      14.984  51.649  19.510  1.00  0.00     0.132 A 
HETATM   10  N6  UNL     1      14.239  51.903  20.697  1.00  0.00    -0.082 NA
HETATM   11  N7  UNL     1      14.827  52.233  18.329  1.00  0.00    -0.340 N 
ATOM     12  H7  UNL     1      14.131  52.953  18.137  1.00  0.00     0.167 HD
HETATM   13  C9  UNL     1      15.674  51.775  17.437  1.00  0.00     0.101 A 
HETATM   14  C10 UNL     1      15.847  52.134  16.083  1.00  0.00     0.193 A 
HETATM   15  N9  UNL     1      16.822  51.487  15.435  1.00  0.00    -0.212 N 
HETATM   16  N10 UNL     1      17.086  51.831  14.175  1.00  0.00    -0.123 N 
ATOM     17  H10 UNL     1      16.515  52.544  13.721  1.00  0.00     0.206 HD
ENDROOT
BRANCH  14  18
HETATM   18  O3  UNL     1      15.025  53.093  15.564  1.00  0.00    -0.331 OA
BRANCH  18  19
HETATM   19  C11 UNL     1      14.044  53.027  14.620  1.00  0.00     0.206 C 
BRANCH  19  20
HETATM   20  C12 UNL     1      14.151  53.538  13.252  1.00  0.00     0.227 C 
BRANCH  20  21
HETATM   21  O4  UNL     1      13.239  53.154  12.317  1.00  0.00    -0.285 OA
BRANCH  21  22
HETATM   22  N8  UNL     1      12.327  54.111  12.143  1.00  0.00    -0.311 N 
ATOM     23  H82 UNL     1      12.458  55.083  12.421  1.00  0.00     0.184 HD
ATOM     24  H81 UNL     1      11.494  53.727  11.697  1.00  0.00     0.184 HD
ENDBRANCH  21  22
ENDBRANCH  20  21
ENDBRANCH  19  20
ENDBRANCH  18  19
ENDBRANCH  14  18
BRANCH   6  25
HETATM   25  N4  UNL     1      18.176  49.053  17.860  1.00  0.00    -0.266 N 
ATOM     26  H4  UNL     1      17.969  48.078  17.646  1.00  0.00     0.194 HD
BRANCH  25  27
HETATM   27  O1  UNL     1      19.149  49.443  18.632  1.00  0.00    -0.289 OA
ATOM     28  H1  UNL     1      19.103  49.030  19.486  1.00  0.00     0.244 HD
ENDBRANCH  25  27
ENDBRANCH   6  25
BRANCH   8  29
HETATM   29  C7  UNL     1      16.510  49.910  20.520  1.00  0.00     0.164 C 
HETATM   30  N5  UNL     1      15.920  48.858  21.227  1.00  0.00    -0.074 NA
BRANCH  29  31
HETATM   31  O2  UNL     1      17.706  50.224  20.937  1.00  0.00    -0.348 OA
ATOM     32  H2  UNL     1      18.297  50.513  20.252  1.00  0.00     0.219 HD
ENDBRANCH  29  31
ENDBRANCH   8  29
BRANCH   4  33
HETATM   33  N3  UNL     1      19.432  49.052  15.876  1.00  0.00    -0.383 N 
ATOM     34  H32 UNL     1      19.471  48.084  15.555  1.00  0.00     0.157 HD
ATOM     35  H31 UNL     1      20.010  49.329  16.669  1.00  0.00     0.157 HD
ENDBRANCH   4  33
BRANCH   1  36
HETATM   36  N1  UNL     1      18.303  51.633  12.252  1.00  0.00    -0.233 N 
ATOM     37  H12 UNL     1      18.949  51.089  11.680  1.00  0.00     0.174 HD
ATOM     38  H11 UNL     1      17.833  52.453  11.870  1.00  0.00     0.174 HD
ENDBRANCH   1  36
TORSDOF 11
ENDMDL
MODEL 3
REMARK VINA RESULT: -7.028373678      1.397      4.892
REMARK  11 active torsions:
REMARK  status: ('A' for Active; 'I' for Inactive)
REMARK    1  A    between atoms: N1_1  and  C1_4 
REMARK    2  A    between atoms: C2_7  and  N3_8 
REMARK    3  A    between atoms: C4_12  and  N4_13 
REMARK    4  A    between atoms: N4_13  and  O1_15 
REMARK    5  A    between atoms: C6_18  and  C7_19 
REMARK    6  A    between atoms: C7_19  and  O2_21 
REMARK    7  A    between atoms: C10_28  and  O3_29 
REMARK    8  A    between atoms: O3_29  and  C11_30 
REMARK    9  A    between atoms: C11_30  and  C12_31 
REMARK   10  A    between atoms: C12_31  and  O4_32 
REMARK   11  A    between atoms: O4_32  and  N8_33 
ROOT
HETATM    1  C1  UNL     1      16.548  49.475  20.799  1.00  0.00     0.692 A 
HETATM    2  N2  UNL     1      15.547  50.363  20.733  1.00  0.00    -0.174 N 
ATOM      3  H2  UNL     1      14.977  50.546  21.559  1.00  0.00     0.186 HD
HETATM    4  C2  UNL     1      15.291  51.013  19.587  1.00  0.00     0.146 A 
HETATM    5  C3  UNL     1      16.073  50.746  18.485  1.00  0.00     0.133 A 
HETATM    6  C4  UNL     1      15.824  51.476  17.336  1.00  0.00     0.100 A 
HETATM    7  C5  UNL     1      16.624  51.300  16.232  1.00  0.00     0.043 A 
HETATM    8  C6  UNL     1      16.708  51.834  14.971  1.00  0.00     0.068 A 
HETATM    9  C8  UNL     1      17.803  51.177  14.355  1.00  0.00     0.132 A 
HETATM   10  N6  UNL     1      18.246  51.426  13.024  1.00  0.00    -0.082 NA
HETATM   11  N7  UNL     1      18.323  50.316  15.221  1.00  0.00    -0.340 N 
ATOM     12  H7  UNL     1      19.123  49.718  15.019  1.00  0.00     0.167 HD
HETATM   13  C9  UNL     1      17.683  50.326  16.368  1.00  0.00     0.101 A 
HETATM   14  C10 UNL     1      17.921  49.581  17.543  1.00  0.00     0.193 A 
HETATM   15  N9  UNL     1      17.093  49.835  18.562  1.00  0.00    -0.212 N 
HETATM   16  N10 UNL     1      17.308  49.219  19.725  1.00  0.00    -0.123 N 
ATOM     17  H10 UNL     1      18.065  48.539  19.798  1.00  0.00     0.206 HD
ENDROOT
BRANCH  14  18
HETATM   18  O3  UNL     1      18.954  48.687  17.538  1.00  0.00    -0.331 OA
BRANCH  18  19
HETATM   19  C11 UNL     1      20.304  48.869  17.494  1.00  0.00     0.206 C 
BRANCH  19  20
HETATM   20  C12 UNL     1      21.244  48.043  16.734  1.00  0.00     0.227 C 
BRANCH  20  21
HETATM   21  O4  UNL     1      20.787  47.281  15.701  1.00  0.00    -0.285 OA
BRANCH  21  22
HETATM   22  N8  UNL     1      19.856  46.429  16.135  1.00  0.00    -0.311 N 
ATOM     23  H82 UNL     1      18.985  46.236  15.643  1.00  0.00     0.184 HD
ATOM     24  H81 UNL     1      20.147  46.010  17.018  1.00  0.00     0.184 HD
ENDBRANCH  21  22
ENDBRANCH  20  21
ENDBRANCH  19  20
ENDBRANCH  18  19
ENDBRANCH  14  18
BRANCH   6  25
HETATM   25  N4  UNL     1      14.656  52.290  17.272  1.00  0.00    -0.266 N 
ATOM     26  H4  UNL     1      13.709  51.929  17.154  1.00  0.00     0.194 HD
BRANCH  25  27
HETATM   27  O1  UNL     1      14.949  53.554  17.381  1.00  0.00    -0.289 OA
ATOM     28  H1  UNL     1      14.305  54.017  17.903  1.00  0.00     0.244 HD
ENDBRANCH  25  27
ENDBRANCH   6  25
BRANCH   8  29
HETATM   29  C7  UNL     1      15.929  52.869  14.333  1.00  0.00     0.164 C 
HETATM   30  N5  UNL     1      14.557  53.130  14.332  1.00  0.00    -0.074 NA
BRANCH  29  31
HETATM   31  O2  UNL     1      16.632  53.721  13.636  1.00  0.00    -0.348 OA
ATOM     32  H2  UNL     1      16.574  53.600  12.696  1.00  0.00     0.219 HD
ENDBRANCH  29  31
ENDBRANCH   8  29
BRANCH   4  33
HETATM   33  N3  UNL     1      14.333  51.911  19.566  1.00  0.00    -0.383 N 
ATOM     34  H32 UNL     1      13.665  52.014  20.330  1.00  0.00     0.157 HD
ATOM     35  H31 UNL     1      14.232  52.506  18.744  1.00  0.00     0.157 HD
ENDBRANCH   4  33
BRANCH   1  36
HETATM   36  N1  UNL     1      16.800  48.838  21.919  1.00  0.00    -0.233 N 
ATOM     37  H12 UNL     1      16.212  49.021  22.732  1.00  0.00     0.174 HD
ATOM     38  H11 UNL     1      17.572  48.174  21.974  1.00  0.00     0.174 HD
ENDBRANCH   1  36
TORSDOF 11
ENDMDL
MODEL 4
REMARK VINA RESULT: -6.902766691      2.347      5.492
REMARK  11 active torsions:
REMARK  status: ('A' for Active; 'I' for Inactive)
REMARK    1  A    between atoms: N1_1  and  C1_4 
REMARK    2  A    between atoms: C2_7  and  N3_8 
REMARK    3  A    between atoms: C4_12  and  N4_13 
REMARK    4  A    between atoms: N4_13  and  O1_15 
REMARK    5  A    between atoms: C6_18  and  C7_19 
REMARK    6  A    between atoms: C7_19  and  O2_21 
REMARK    7  A    between atoms: C10_28  and  O3_29 
REMARK    8  A    between atoms: O3_29  and  C11_30 
REMARK    9  A    between atoms: C11_30  and  C12_31 
REMARK   10  A    between atoms: C12_31  and  O4_32 
REMARK   11  A    between atoms: O4_32  and  N8_33 
ROOT
HETATM    1  C1  UNL     1      19.059  48.279  16.913  1.00  0.00     0.692 A 
HETATM    2  N2  UNL     1      19.035  48.415  15.580  1.00  0.00    -0.174 N 
ATOM      3  H2  UNL     1      19.573  47.775  14.996  1.00  0.00     0.186 HD
HETATM    4  C2  UNL     1      18.306  49.387  15.011  1.00  0.00     0.146 A 
HETATM    5  C3  UNL     1      17.591  50.241  15.822  1.00  0.00     0.133 A 
HETATM    6  C4  UNL     1      16.803  51.195  15.203  1.00  0.00     0.100 A 
HETATM    7  C5  UNL     1      16.013  52.022  15.966  1.00  0.00     0.043 A 
HETATM    8  C6  UNL     1      15.112  53.030  15.730  1.00  0.00     0.068 A 
HETATM    9  C8  UNL     1      14.659  53.439  17.009  1.00  0.00     0.132 A 
HETATM   10  N6  UNL     1      13.709  54.476  17.233  1.00  0.00    -0.082 NA
HETATM   11  N7  UNL     1      15.265  52.699  17.930  1.00  0.00    -0.340 N 
ATOM     12  H7  UNL     1      15.110  52.798  18.933  1.00  0.00     0.167 HD
HETATM   13  C9  UNL     1      16.087  51.826  17.396  1.00  0.00     0.101 A 
HETATM   14  C10 UNL     1      16.903  50.855  18.015  1.00  0.00     0.193 A 
HETATM   15  N9  UNL     1      17.624  50.094  17.183  1.00  0.00    -0.212 N 
HETATM   16  N10 UNL     1      18.360  49.110  17.699  1.00  0.00    -0.123 N 
ATOM     17  H10 UNL     1      18.393  48.988  18.711  1.00  0.00     0.206 HD
ENDROOT
BRANCH  14  18
HETATM   18  O3  UNL     1      16.885  50.776  19.378  1.00  0.00    -0.331 OA
BRANCH  18  19
HETATM   19  C11 UNL     1      16.052  50.117  20.233  1.00  0.00     0.206 C 
BRANCH  19  20
HETATM   20  C12 UNL     1      14.689  50.531  20.573  1.00  0.00     0.227 C 
BRANCH  20  21
HETATM   21  O4  UNL     1      14.433  51.840  20.849  1.00  0.00    -0.285 OA
BRANCH  21  22
HETATM   22  N8  UNL     1      15.414  52.354  21.592  1.00  0.00    -0.311 N 
ATOM     23  H82 UNL     1      16.223  51.825  21.916  1.00  0.00     0.184 HD
ATOM     24  H81 UNL     1      15.231  53.339  21.783  1.00  0.00     0.184 HD
ENDBRANCH  21  22
ENDBRANCH  20  21
ENDBRANCH  19  20
ENDBRANCH  18  19
ENDBRANCH  14  18
BRANCH   6  25
HETATM   25  N4  UNL     1      16.933  51.397  13.798  1.00  0.00    -0.266 N 
ATOM     26  H4  UNL     1      16.415  50.874  13.092  1.00  0.00     0.194 HD
BRANCH  25  27
HETATM   27  O1  UNL     1      17.795  52.334  13.529  1.00  0.00    -0.289 OA
ATOM     28  H1  UNL     1      18.683  52.058  13.725  1.00  0.00     0.244 HD
ENDBRANCH  25  27
ENDBRANCH   6  25
BRANCH   8  29
HETATM   29  C7  UNL     1      14.632  53.592  14.490  1.00  0.00     0.164 C 
HETATM   30  N5  UNL     1      13.375  53.561  13.882  1.00  0.00    -0.074 NA
BRANCH  29  31
HETATM   31  O2  UNL     1      15.532  54.255  13.814  1.00  0.00    -0.348 OA
ATOM     32  H2  UNL     1      15.852  53.805  13.041  1.00  0.00     0.219 HD
ENDBRANCH  29  31
ENDBRANCH   8  29
BRANCH   4  33
HETATM   33  N3  UNL     1      18.266  49.467  13.700  1.00  0.00    -0.383 N 
ATOM     34  H32 UNL     1      19.009  49.908  13.158  1.00  0.00     0.157 HD
ATOM     35  H31 UNL     1      17.449  49.104  13.209  1.00  0.00     0.157 HD
ENDBRANCH   4  33
BRANCH   1  36
HETATM   36  N1  UNL     1      19.771  47.327  17.472  1.00  0.00    -0.233 N 
ATOM     37  H12 UNL     1      19.598  46.360  17.201  1.00  0.00     0.174 HD
ATOM     38  H11 UNL     1      20.482  47.554  18.166  1.00  0.00     0.174 HD
ENDBRANCH   1  36
TORSDOF 11
ENDMDL
MODEL 5
REMARK VINA RESULT: -6.640160697      1.956      6.807
REMARK  11 active torsions:
REMARK  status: ('A' for Active; 'I' for Inactive)
REMARK    1  A    between atoms: N1_1  and  C1_4 
REMARK    2  A    between atoms: C2_7  and  N3_8 
REMARK    3  A    between atoms: C4_12  and  N4_13 
REMARK    4  A    between atoms: N4_13  and  O1_15 
REMARK    5  A    between atoms: C6_18  and  C7_19 
REMARK    6  A    between atoms: C7_19  and  O2_21 
REMARK    7  A    between atoms: C10_28  and  O3_29 
REMARK    8  A    between atoms: O3_29  and  C11_30 
REMARK    9  A    between atoms: C11_30  and  C12_31 
REMARK   10  A    between atoms: C12_31  and  O4_32 
REMARK   11  A    between atoms: O4_32  and  N8_33 
ROOT
HETATM    1  C1  UNL     1      15.060  51.781  20.920  1.00  0.00     0.692 A 
HETATM    2  N2  UNL     1      15.833  50.754  21.300  1.00  0.00    -0.174 N 
ATOM      3  H2  UNL     1      15.840  50.459  22.276  1.00  0.00     0.186 HD
HETATM    4  C2  UNL     1      16.597  50.112  20.403  1.00  0.00     0.146 A 
HETATM    5  C3  UNL     1      16.574  50.532  19.091  1.00  0.00     0.133 A 
HETATM    6  C4  UNL     1      17.326  49.812  18.179  1.00  0.00     0.100 A 
HETATM    7  C5  UNL     1      17.279  50.145  16.846  1.00  0.00     0.043 A 
HETATM    8  C6  UNL     1      17.835  49.673  15.684  1.00  0.00     0.068 A 
HETATM    9  C8  UNL     1      17.329  50.509  14.657  1.00  0.00     0.132 A 
HETATM   10  N6  UNL     1      17.656  50.375  13.277  1.00  0.00    -0.082 NA
HETATM   11  N7  UNL     1      16.520  51.408  15.202  1.00  0.00    -0.340 N 
ATOM     12  H7  UNL     1      16.028  52.128  14.672  1.00  0.00     0.167 HD
HETATM   13  C9  UNL     1      16.429  51.263  16.503  1.00  0.00     0.101 A 
HETATM   14  C10 UNL     1      15.674  51.995  17.445  1.00  0.00     0.193 A 
HETATM   15  N9  UNL     1      15.782  51.583  18.713  1.00  0.00    -0.212 N 
HETATM   16  N10 UNL     1      15.039  52.185  19.642  1.00  0.00    -0.123 N 
ATOM     17  H10 UNL     1      14.443  52.969  19.376  1.00  0.00     0.206 HD
ENDROOT
BRANCH  14  18
HETATM   18  O3  UNL     1      14.914  53.034  16.990  1.00  0.00    -0.331 OA
BRANCH  18  19
HETATM   19  C11 UNL     1      14.958  53.742  15.826  1.00  0.00     0.206 C 
BRANCH  19  20
HETATM   20  C12 UNL     1      14.170  53.449  14.627  1.00  0.00     0.227 C 
BRANCH  20  21
HETATM   21  O4  UNL     1      14.769  53.478  13.404  1.00  0.00    -0.285 OA
BRANCH  21  22
HETATM   22  N8  UNL     1      13.848  53.562  12.443  1.00  0.00    -0.311 N 
ATOM     23  H82 UNL     1      13.226  54.359  12.315  1.00  0.00     0.184 HD
ATOM     24  H81 UNL     1      13.863  52.720  11.867  1.00  0.00     0.184 HD
ENDBRANCH  21  22
ENDBRANCH  20  21
ENDBRANCH  19  20
ENDBRANCH  18  19
ENDBRANCH  14  18
BRANCH   6  25
HETATM   25  N4  UNL     1      18.244  48.833  18.657  1.00  0.00    -0.266 N 
ATOM     26  H4  UNL     1      17.978  47.899  18.968  1.00  0.00     0.194 HD
BRANCH  25  27
HETATM   27  O1  UNL     1      19.467  49.281  18.647  1.00  0.00    -0.289 OA
ATOM     28  H1  UNL     1      19.951  48.955  17.898  1.00  0.00     0.244 HD
ENDBRANCH  25  27
ENDBRANCH   6  25
BRANCH   8  29
HETATM   29  C7  UNL     1      18.717  48.554  15.450  1.00  0.00     0.164 C 
HETATM   30  N5  UNL     1      20.067  48.358  15.748  1.00  0.00    -0.074 NA
BRANCH  29  31
HETATM   31  O2  UNL     1      18.152  47.537  14.857  1.00  0.00    -0.348 OA
ATOM     32  H2  UNL     1      18.646  47.186  14.125  1.00  0.00     0.219 HD
ENDBRANCH  29  31
ENDBRANCH   8  29
BRANCH   4  33
HETATM   33  N3  UNL     1      17.309  49.080  20.797  1.00  0.00    -0.383 N 
ATOM     34  H32 UNL     1      16.943  48.380  21.441  1.00  0.00     0.157 HD
ATOM     35  H31 UNL     1      18.272  48.993  20.472  1.00  0.00     0.157 HD
ENDBRANCH   4  33
BRANCH   1  36
HETATM   36  N1  UNL     1      14.312  52.410  21.796  1.00  0.00    -0.233 N 
ATOM     37  H12 UNL     1      14.367  52.136  22.777  1.00  0.00     0.174 HD
ATOM     38  H11 UNL     1      13.685  53.158  21.499  1.00  0.00     0.174 HD
ENDBRANCH   1  36
TORSDOF 11
ENDMDL
