MODEL 1
REMARK VINA RESULT: -7.066697203      0.000      0.000
REMARK  10 active torsions:
REMARK  status: ('A' for Active; 'I' for Inactive)
REMARK    1  A    between atoms: N1_1  and  C1_4 
REMARK    2  A    between atoms: C2_7  and  S1_8 
REMARK    3  A    between atoms: S1_8  and  S2_9 
REMARK    4  A    between atoms: S2_9  and  C3_10 
REMARK    5  A    between atoms: C3_10  and  C4_11 
REMARK    6  A    between atoms: C4_11  and  N3_12 
REMARK       I    between atoms: N3_12  and  C5_14 
REMARK       I    between atoms: C5_14  and  N4_16 
REMARK    7  A    between atoms: N4_16  and  S3_18 
REMARK    8  A    between atoms: S3_18  and  N5_21 
REMARK    9  A    between atoms: N5_21  and  O4_23 
REMARK   10  A    between atoms: O4_23  and  N6_24 
ROOT
HETATM    1  N3  UNL     1      15.548  52.659  16.545  1.00  0.00    -0.342 N 
ATOM      2  H3  UNL     1      15.309  53.638  16.696  1.00  0.00     0.164 HD
HETATM    3  C5  UNL     1      15.521  51.818  17.674  1.00  0.00     0.330 C 
HETATM    4  O1  UNL     1      15.807  50.606  17.581  1.00  0.00    -0.246 OA
HETATM    5  N4  UNL     1      15.169  52.301  18.975  1.00  0.00    -0.217 N 
ATOM      6  H4  UNL     1      14.931  53.286  19.092  1.00  0.00     0.185 HD
ENDROOT
BRANCH   1   7
HETATM    7  C4  UNL     1      15.882  52.271  15.193  1.00  0.00     0.135 C 
BRANCH   7   8
HETATM    8  C3  UNL     1      17.350  52.312  14.997  1.00  0.00     0.106 C 
BRANCH   8   9
HETATM    9  S2  UNL     1      18.102  50.944  14.156  1.00  0.00    -0.089 SA
BRANCH   9  10
HETATM   10  S1  UNL     1      17.941  49.180  15.261  1.00  0.00    -0.039 SA
BRANCH  10  11
HETATM   11  C2  UNL     1      19.493  48.986  16.216  1.00  0.00     0.089 A 
HETATM   12  N2  UNL     1      20.353  48.017  16.074  1.00  0.00    -0.330 N 
HETATM   13  C1  UNL     1      21.441  47.995  16.841  1.00  0.00     0.142 A 
ATOM     14  H2  UNL     1      20.195  47.283  15.383  1.00  0.00     0.168 HD
HETATM   15  S4  UNL     1      21.262  49.385  17.805  1.00  0.00    -0.064 SA
HETATM   16  C6  UNL     1      19.778  49.940  17.172  1.00  0.00     0.091 A 
BRANCH  13  17
HETATM   17  N1  UNL     1      22.411  47.104  16.840  1.00  0.00    -0.380 N 
ATOM     18  H12 UNL     1      22.351  46.088  16.900  1.00  0.00     0.158 HD
ATOM     19  H11 UNL     1      23.415  47.274  16.777  1.00  0.00     0.158 HD
ENDBRANCH  13  17
ENDBRANCH  10  11
ENDBRANCH   9  10
ENDBRANCH   8   9
ENDBRANCH   7   8
ENDBRANCH   1   7
BRANCH   5  20
HETATM   20  S3  UNL     1      15.138  51.267  20.338  1.00  0.00     0.347 S 
HETATM   21  O2  UNL     1      14.593  52.020  21.532  1.00  0.00    -0.180 OA
HETATM   22  O3  UNL     1      14.152  49.929  20.087  1.00  0.00    -0.180 OA
BRANCH  20  23
HETATM   23  N5  UNL     1      16.563  50.762  20.744  1.00  0.00    -0.150 N 
ATOM     24  H5  UNL     1      17.270  51.405  21.102  1.00  0.00     0.211 HD
BRANCH  23  25
HETATM   25  O4  UNL     1      16.827  49.420  20.602  1.00  0.00    -0.153 OA
BRANCH  25  26
HETATM   26  N6  UNL     1      17.044  48.910  19.345  1.00  0.00    -0.285 N 
ATOM     27  H62 UNL     1      17.525  49.480  18.648  1.00  0.00     0.186 HD
ATOM     28  H61 UNL     1      16.720  47.967  19.128  1.00  0.00     0.186 HD
ENDBRANCH  25  26
ENDBRANCH  23  25
ENDBRANCH  20  23
ENDBRANCH   5  20
TORSDOF 10
ENDMDL
MODEL 2
REMARK VINA RESULT: -7.050036950      2.317      5.091
REMARK  10 active torsions:
REMARK  status: ('A' for Active; 'I' for Inactive)
REMARK    1  A    between atoms: N1_1  and  C1_4 
REMARK    2  A    between atoms: C2_7  and  S1_8 
REMARK    3  A    between atoms: S1_8  and  S2_9 
REMARK    4  A    between atoms: S2_9  and  C3_10 
REMARK    5  A    between atoms: C3_10  and  C4_11 
REMARK    6  A    between atoms: C4_11  and  N3_12 
REMARK       I    between atoms: N3_12  and  C5_14 
REMARK       I    between atoms: C5_14  and  N4_16 
REMARK    7  A    between atoms: N4_16  and  S3_18 
REMARK    8  A    between atoms: S3_18  and  N5_21 
REMARK    9  A    between atoms: N5_21  and  O4_23 
REMARK   10  A    between atoms: O4_23  and  N6_24 
ROOT
HETATM    1  N3  UNL     1      17.862  50.031  17.747  1.00  0.00    -0.342 N 
ATOM      2  H3  UNL     1      17.862  50.865  17.160  1.00  0.00     0.164 HD
HETATM    3  C5  UNL     1      16.869  49.958  18.743  1.00  0.00     0.330 C 
HETATM    4  O1  UNL     1      16.800  48.976  19.512  1.00  0.00    -0.246 OA
HETATM    5  N4  UNL     1      15.898  50.992  18.928  1.00  0.00    -0.217 N 
ATOM      6  H4  UNL     1      15.923  51.812  18.322  1.00  0.00     0.185 HD
ENDROOT
BRANCH   1   7
HETATM    7  C4  UNL     1      18.880  49.043  17.475  1.00  0.00     0.135 C 
BRANCH   7   8
HETATM    8  C3  UNL     1      19.028  48.849  16.013  1.00  0.00     0.106 C 
BRANCH   8   9
HETATM    9  S2  UNL     1      17.734  49.471  14.971  1.00  0.00    -0.089 SA
BRANCH   9  10
HETATM   10  S1  UNL     1      18.097  51.442  14.388  1.00  0.00    -0.039 SA
BRANCH  10  11
HETATM   11  C2  UNL     1      16.501  52.340  14.459  1.00  0.00     0.089 A 
HETATM   12  N2  UNL     1      15.832  52.779  13.430  1.00  0.00    -0.330 N 
HETATM   13  C1  UNL     1      14.685  53.424  13.628  1.00  0.00     0.142 A 
ATOM     14  H2  UNL     1      16.185  52.631  12.484  1.00  0.00     0.168 HD
HETATM   15  S4  UNL     1      14.526  53.420  15.321  1.00  0.00    -0.064 SA
HETATM   16  C6  UNL     1      15.960  52.580  15.706  1.00  0.00     0.091 A 
BRANCH  13  17
HETATM   17  N1  UNL     1      13.880  53.934  12.718  1.00  0.00    -0.380 N 
ATOM     18  H12 UNL     1      13.769  53.673  11.739  1.00  0.00     0.158 HD
ATOM     19  H11 UNL     1      13.211  54.696  12.833  1.00  0.00     0.158 HD
ENDBRANCH  13  17
ENDBRANCH  10  11
ENDBRANCH   9  10
ENDBRANCH   8   9
ENDBRANCH   7   8
ENDBRANCH   1   7
BRANCH   5  20
HETATM   20  S3  UNL     1      14.696  50.889  20.141  1.00  0.00     0.347 S 
HETATM   21  O2  UNL     1      13.703  52.017  19.967  1.00  0.00    -0.180 OA
HETATM   22  O3  UNL     1      13.844  49.443  20.056  1.00  0.00    -0.180 OA
BRANCH  20  23
HETATM   23  N5  UNL     1      15.283  51.033  21.586  1.00  0.00    -0.150 N 
ATOM     24  H5  UNL     1      16.069  50.461  21.897  1.00  0.00     0.211 HD
BRANCH  23  25
HETATM   25  O4  UNL     1      14.700  51.958  22.419  1.00  0.00    -0.153 OA
BRANCH  25  26
HETATM   26  N6  UNL     1      15.224  53.227  22.481  1.00  0.00    -0.285 N 
ATOM     27  H62 UNL     1      16.164  53.400  22.122  1.00  0.00     0.186 HD
ATOM     28  H61 UNL     1      14.663  53.977  22.885  1.00  0.00     0.186 HD
ENDBRANCH  25  26
ENDBRANCH  23  25
ENDBRANCH  20  23
ENDBRANCH   5  20
TORSDOF 10
ENDMDL
MODEL 3
REMARK VINA RESULT: -6.867857772      1.118      1.999
REMARK  10 active torsions:
REMARK  status: ('A' for Active; 'I' for Inactive)
REMARK    1  A    between atoms: N1_1  and  C1_4 
REMARK    2  A    between atoms: C2_7  and  S1_8 
REMARK    3  A    between atoms: S1_8  and  S2_9 
REMARK    4  A    between atoms: S2_9  and  C3_10 
REMARK    5  A    between atoms: C3_10  and  C4_11 
REMARK    6  A    between atoms: C4_11  and  N3_12 
REMARK       I    between atoms: N3_12  and  C5_14 
REMARK       I    between atoms: C5_14  and  N4_16 
REMARK    7  A    between atoms: N4_16  and  S3_18 
REMARK    8  A    between atoms: S3_18  and  N5_21 
REMARK    9  A    between atoms: N5_21  and  O4_23 
REMARK   10  A    between atoms: O4_23  and  N6_24 
ROOT
HETATM    1  N3  UNL     1      15.437  52.326  16.572  1.00  0.00    -0.342 N 
ATOM      2  H3  UNL     1      15.025  53.249  16.702  1.00  0.00     0.164 HD
HETATM    3  C5  UNL     1      15.699  51.579  17.735  1.00  0.00     0.330 C 
HETATM    4  O1  UNL     1      16.209  50.441  17.669  1.00  0.00    -0.246 OA
HETATM    5  N4  UNL     1      15.398  52.076  19.043  1.00  0.00    -0.217 N 
ATOM      6  H4  UNL     1      14.982  53.002  19.140  1.00  0.00     0.185 HD
ENDROOT
BRANCH   1   7
HETATM    7  C4  UNL     1      15.696  51.915  15.210  1.00  0.00     0.135 C 
BRANCH   7   8
HETATM    8  C3  UNL     1      17.073  52.296  14.814  1.00  0.00     0.106 C 
BRANCH   8   9
HETATM    9  S2  UNL     1      18.100  51.033  14.109  1.00  0.00    -0.089 SA
BRANCH   9  10
HETATM   10  S1  UNL     1      17.924  49.231  15.147  1.00  0.00    -0.039 SA
BRANCH  10  11
HETATM   11  C2  UNL     1      19.428  49.041  16.177  1.00  0.00     0.089 A 
HETATM   12  N2  UNL     1      20.296  48.073  16.079  1.00  0.00    -0.330 N 
HETATM   13  C1  UNL     1      21.344  48.054  16.899  1.00  0.00     0.142 A 
ATOM     14  H2  UNL     1      20.174  47.339  15.381  1.00  0.00     0.168 HD
HETATM   15  S4  UNL     1      21.115  49.444  17.852  1.00  0.00    -0.064 SA
HETATM   16  C6  UNL     1      19.662  49.996  17.146  1.00  0.00     0.091 A 
BRANCH  13  17
HETATM   17  N1  UNL     1      22.315  47.166  16.945  1.00  0.00    -0.380 N 
ATOM     18  H12 UNL     1      23.159  47.104  16.376  1.00  0.00     0.158 HD
ATOM     19  H11 UNL     1      22.398  46.364  17.571  1.00  0.00     0.158 HD
ENDBRANCH  13  17
ENDBRANCH  10  11
ENDBRANCH   9  10
ENDBRANCH   8   9
ENDBRANCH   7   8
ENDBRANCH   1   7
BRANCH   5  20
HETATM   20  S3  UNL     1      15.719  51.155  20.449  1.00  0.00     0.347 S 
HETATM   21  O2  UNL     1      14.682  50.061  20.585  1.00  0.00    -0.180 OA
HETATM   22  O3  UNL     1      17.228  50.420  20.386  1.00  0.00    -0.180 OA
BRANCH  20  23
HETATM   23  N5  UNL     1      15.637  52.008  21.760  1.00  0.00    -0.150 N 
ATOM     24  H5  UNL     1      16.425  52.059  22.407  1.00  0.00     0.211 HD
BRANCH  23  25
HETATM   25  O4  UNL     1      14.466  52.684  22.007  1.00  0.00    -0.153 OA
BRANCH  25  26
HETATM   26  N6  UNL     1      14.451  53.667  22.968  1.00  0.00    -0.285 N 
ATOM     27  H62 UNL     1      14.347  53.408  23.949  1.00  0.00     0.186 HD
ATOM     28  H61 UNL     1      14.543  54.642  22.682  1.00  0.00     0.186 HD
ENDBRANCH  25  26
ENDBRANCH  23  25
ENDBRANCH  20  23
ENDBRANCH   5  20
TORSDOF 10
ENDMDL
MODEL 4
REMARK VINA RESULT: -6.849804940      1.553      2.406
REMARK  10 active torsions:
REMARK  status: ('A' for Active; 'I' for Inactive)
REMARK    1  A    between atoms: N1_1  and  C1_4 
REMARK    2  A    between atoms: C2_7  and  S1_8 
REMARK    3  A    between atoms: S1_8  and  S2_9 
REMARK    4  A    between atoms: S2_9  and  C3_10 
REMARK    5  A    between atoms: C3_10  and  C4_11 
REMARK    6  A    between atoms: C4_11  and  N3_12 
REMARK       I    between atoms: N3_12  and  C5_14 
REMARK       I    between atoms: C5_14  and  N4_16 
REMARK    7  A    between atoms: N4_16  and  S3_18 
REMARK    8  A    between atoms: S3_18  and  N5_21 
REMARK    9  A    between atoms: N5_21  and  O4_23 
REMARK   10  A    between atoms: O4_23  and  N6_24 
ROOT
HETATM    1  N3  UNL     1      15.374  52.372  16.549  1.00  0.00    -0.342 N 
ATOM      2  H3  UNL     1      14.950  53.286  16.703  1.00  0.00     0.164 HD
HETATM    3  C5  UNL     1      15.672  51.609  17.694  1.00  0.00     0.330 C 
HETATM    4  O1  UNL     1      16.198  50.480  17.597  1.00  0.00    -0.246 OA
HETATM    5  N4  UNL     1      15.392  52.079  19.016  1.00  0.00    -0.217 N 
ATOM      6  H4  UNL     1      14.963  52.997  19.137  1.00  0.00     0.185 HD
ENDROOT
BRANCH   1   7
HETATM    7  C4  UNL     1      15.610  51.987  15.176  1.00  0.00     0.135 C 
BRANCH   7   8
HETATM    8  C3  UNL     1      16.963  52.416  14.749  1.00  0.00     0.106 C 
BRANCH   8   9
HETATM    9  S2  UNL     1      17.991  51.208  13.956  1.00  0.00    -0.089 SA
BRANCH   9  10
HETATM   10  S1  UNL     1      17.731  49.311  14.787  1.00  0.00    -0.039 SA
BRANCH  10  11
HETATM   11  C2  UNL     1      19.029  49.085  16.060  1.00  0.00     0.089 A 
HETATM   12  N2  UNL     1      19.253  49.886  17.064  1.00  0.00    -0.330 N 
HETATM   13  C1  UNL     1      20.237  49.603  17.914  1.00  0.00     0.142 A 
ATOM     14  H2  UNL     1      18.681  50.720  17.196  1.00  0.00     0.168 HD
HETATM   15  S4  UNL     1      20.882  48.157  17.292  1.00  0.00    -0.064 SA
HETATM   16  C6  UNL     1      19.846  47.978  15.948  1.00  0.00     0.091 A 
BRANCH  13  17
HETATM   17  N1  UNL     1      20.607  50.289  18.976  1.00  0.00    -0.380 N 
ATOM     18  H12 UNL     1      21.189  51.124  19.032  1.00  0.00     0.158 HD
ATOM     19  H11 UNL     1      20.373  50.104  19.952  1.00  0.00     0.158 HD
ENDBRANCH  13  17
ENDBRANCH  10  11
ENDBRANCH   9  10
ENDBRANCH   8   9
ENDBRANCH   7   8
ENDBRANCH   1   7
BRANCH   5  20
HETATM   20  S3  UNL     1      15.757  51.140  20.399  1.00  0.00     0.347 S 
HETATM   21  O2  UNL     1      14.746  50.022  20.533  1.00  0.00    -0.180 OA
HETATM   22  O3  UNL     1      17.280  50.439  20.296  1.00  0.00    -0.180 OA
BRANCH  20  23
HETATM   23  N5  UNL     1      15.682  51.968  21.727  1.00  0.00    -0.150 N 
ATOM     24  H5  UNL     1      16.460  51.982  22.386  1.00  0.00     0.211 HD
BRANCH  23  25
HETATM   25  O4  UNL     1      14.528  52.674  21.971  1.00  0.00    -0.153 OA
BRANCH  25  26
HETATM   26  N6  UNL     1      14.528  53.640  22.950  1.00  0.00    -0.285 N 
ATOM     27  H62 UNL     1      15.310  54.292  23.011  1.00  0.00     0.186 HD
ATOM     28  H61 UNL     1      13.744  53.688  23.600  1.00  0.00     0.186 HD
ENDBRANCH  25  26
ENDBRANCH  23  25
ENDBRANCH  20  23
ENDBRANCH   5  20
TORSDOF 10
ENDMDL
MODEL 5
REMARK VINA RESULT: -6.784964622      4.717      8.438
REMARK  10 active torsions:
REMARK  status: ('A' for Active; 'I' for Inactive)
REMARK    1  A    between atoms: N1_1  and  C1_4 
REMARK    2  A    between atoms: C2_7  and  S1_8 
REMARK    3  A    between atoms: S1_8  and  S2_9 
REMARK    4  A    between atoms: S2_9  and  C3_10 
REMARK    5  A    between atoms: C3_10  and  C4_11 
REMARK    6  A    between atoms: C4_11  and  N3_12 
REMARK       I    between atoms: N3_12  and  C5_14 
REMARK       I    between atoms: C5_14  and  N4_16 
REMARK    7  A    between atoms: N4_16  and  S3_18 
REMARK    8  A    between atoms: S3_18  and  N5_21 
REMARK    9  A    between atoms: N5_21  and  O4_23 
REMARK   10  A    between atoms: O4_23  and  N6_24 
ROOT
HETATM    1  N3  UNL     1      16.475  50.559  19.109  1.00  0.00    -0.342 N 
ATOM      2  H3  UNL     1      15.953  51.399  18.859  1.00  0.00     0.164 HD
HETATM    3  C5  UNL     1      17.251  49.968  18.094  1.00  0.00     0.330 C 
HETATM    4  O1  UNL     1      17.916  48.934  18.311  1.00  0.00    -0.246 OA
HETATM    5  N4  UNL     1      17.319  50.515  16.773  1.00  0.00    -0.217 N 
ATOM      6  H4  UNL     1      16.788  51.358  16.555  1.00  0.00     0.185 HD
ENDROOT
BRANCH   1   7
HETATM    7  C4  UNL     1      16.344  50.092  20.471  1.00  0.00     0.135 C 
BRANCH   7   8
HETATM    8  C3  UNL     1      15.224  50.790  21.145  1.00  0.00     0.106 C 
BRANCH   8   9
HETATM    9  S2  UNL     1      15.582  52.337  21.935  1.00  0.00    -0.089 SA
BRANCH   9  10
HETATM   10  S1  UNL     1      14.599  52.510  23.769  1.00  0.00    -0.039 SA
BRANCH  10  11
HETATM   11  C2  UNL     1      14.581  54.286  24.218  1.00  0.00     0.089 A 
HETATM   12  N2  UNL     1      14.846  55.275  23.412  1.00  0.00    -0.330 N 
HETATM   13  C1  UNL     1      14.802  56.522  23.875  1.00  0.00     0.142 A 
ATOM     14  H2  UNL     1      15.086  55.095  22.436  1.00  0.00     0.168 HD
HETATM   15  S4  UNL     1      14.371  56.313  25.507  1.00  0.00    -0.064 SA
HETATM   16  C6  UNL     1      14.266  54.610  25.523  1.00  0.00     0.091 A 
BRANCH  13  17
HETATM   17  N1  UNL     1      15.037  57.636  23.213  1.00  0.00    -0.380 N 
ATOM     18  H12 UNL     1      15.758  58.340  23.373  1.00  0.00     0.158 HD
ATOM     19  H11 UNL     1      14.531  58.002  22.407  1.00  0.00     0.158 HD
ENDBRANCH  13  17
ENDBRANCH  10  11
ENDBRANCH   9  10
ENDBRANCH   8   9
ENDBRANCH   7   8
ENDBRANCH   1   7
BRANCH   5  20
HETATM   20  S3  UNL     1      18.268  49.788  15.549  1.00  0.00     0.347 S 
HETATM   21  O2  UNL     1      17.930  50.409  14.211  1.00  0.00    -0.180 OA
HETATM   22  O3  UNL     1      19.912  50.014  15.814  1.00  0.00    -0.180 OA
BRANCH  20  23
HETATM   23  N5  UNL     1      17.996  48.252  15.407  1.00  0.00    -0.150 N 
ATOM     24  H5  UNL     1      17.055  47.895  15.244  1.00  0.00     0.211 HD
BRANCH  23  25
HETATM   25  O4  UNL     1      19.074  47.404  15.509  1.00  0.00    -0.153 OA
BRANCH  25  26
HETATM   26  N6  UNL     1      19.741  47.311  16.707  1.00  0.00    -0.285 N 
ATOM     27  H62 UNL     1      19.418  47.858  17.505  1.00  0.00     0.186 HD
ATOM     28  H61 UNL     1      20.552  46.695  16.778  1.00  0.00     0.186 HD
ENDBRANCH  25  26
ENDBRANCH  23  25
ENDBRANCH  20  23
ENDBRANCH   5  20
TORSDOF 10
ENDMDL
