MODEL 1
REMARK VINA RESULT: -3.728405483      0.000      0.000
REMARK  2 active torsions:
REMARK  status: ('A' for Active; 'I' for Inactive)
REMARK    1  A    between atoms: O1_2  and  C2_3 
REMARK    2  A    between atoms: C4_5  and  N1_6 
REMARK       I    between atoms: N1_6  and  C5_8 
REMARK       I    between atoms: C5_8  and  N2_9 
REMARK       I    between atoms: C5_8  and  N3_13 
ROOT
HETATM    1  N1  UNL     1      30.695  67.378  74.514  1.00  0.00    -0.326 N 
ATOM      2  H1  UNL     1      31.479  66.998  75.044  1.00  0.00     0.164 HD
HETATM    3  C5  UNL     1      30.744  67.361  73.070  1.00  0.00     0.481 C 
HETATM    4  N2  UNL     1      30.678  68.735  72.613  1.00  0.00    -0.033 N 
ATOM      5  H21 UNL     1      30.712  68.722  71.594  1.00  0.00     0.278 HD
ATOM      6  H22 UNL     1      31.399  69.326  73.027  1.00  0.00     0.278 HD
ATOM      7  H23 UNL     1      29.868  69.236  72.977  1.00  0.00     0.278 HD
HETATM    8  N3  UNL     1      31.899  66.685  72.559  1.00  0.00    -0.033 N 
ATOM      9  H31 UNL     1      31.933  66.672  71.540  1.00  0.00     0.278 HD
ATOM     10  H32 UNL     1      31.966  65.740  72.937  1.00  0.00     0.278 HD
ATOM     11  H33 UNL     1      32.755  67.080  72.948  1.00  0.00     0.278 HD
ENDROOT
BRANCH   1  12
HETATM   12  C4  UNL     1      29.585  67.910  75.207  1.00  0.00     0.122 A 
HETATM   13  C3  UNL     1      29.449  69.225  75.620  1.00  0.00     0.106 A 
HETATM   14  C2  UNL     1      28.227  69.305  76.254  1.00  0.00     0.160 A 
HETATM   15  N5  UNL     1      27.691  68.073  76.199  1.00  0.00    -0.278 N 
HETATM   16  N4  UNL     1      28.493  67.221  75.574  1.00  0.00    -0.284 N 
ATOM     17  H5  UNL     1      26.782  67.825  76.589  1.00  0.00     0.189 HD
ATOM     18  H4  UNL     1      28.314  66.231  75.405  1.00  0.00     0.188 HD
BRANCH  14  19
HETATM   19  O1  UNL     1      27.654  70.452  76.841  1.00  0.00    -0.340 OA
HETATM   20  C1  UNL     1      28.460  71.602  76.982  1.00  0.00     0.211 C 
ENDBRANCH  14  19
ENDBRANCH   1  12
TORSDOF 2
ENDMDL
MODEL 2
REMARK VINA RESULT: -3.007184925      3.255      3.742
REMARK  2 active torsions:
REMARK  status: ('A' for Active; 'I' for Inactive)
REMARK    1  A    between atoms: O1_2  and  C2_3 
REMARK    2  A    between atoms: C4_5  and  N1_6 
REMARK       I    between atoms: N1_6  and  C5_8 
REMARK       I    between atoms: C5_8  and  N2_9 
REMARK       I    between atoms: C5_8  and  N3_13 
ROOT
HETATM    1  N1  UNL     1      30.842  67.428  72.245  1.00  0.00    -0.326 N 
ATOM      2  H1  UNL     1      31.084  67.027  71.339  1.00  0.00     0.164 HD
HETATM    3  C5  UNL     1      31.748  67.259  73.357  1.00  0.00     0.481 C 
HETATM    4  N2  UNL     1      31.041  66.530  74.392  1.00  0.00    -0.033 N 
ATOM      5  H21 UNL     1      31.681  66.410  75.177  1.00  0.00     0.278 HD
ATOM      6  H22 UNL     1      30.651  65.648  74.060  1.00  0.00     0.278 HD
ATOM      7  H23 UNL     1      30.163  66.973  74.659  1.00  0.00     0.278 HD
HETATM    8  N3  UNL     1      32.970  66.607  72.987  1.00  0.00    -0.033 N 
ATOM      9  H31 UNL     1      33.609  66.487  73.772  1.00  0.00     0.278 HD
ATOM     10  H32 UNL     1      33.425  67.096  72.217  1.00  0.00     0.278 HD
ATOM     11  H33 UNL     1      32.782  65.715  72.529  1.00  0.00     0.278 HD
ENDROOT
BRANCH   1  12
HETATM   12  C4  UNL     1      29.628  68.138  72.385  1.00  0.00     0.122 A 
HETATM   13  C3  UNL     1      28.366  67.569  72.446  1.00  0.00     0.106 A 
HETATM   14  C2  UNL     1      27.479  68.616  72.580  1.00  0.00     0.160 A 
HETATM   15  N5  UNL     1      28.219  69.740  72.596  1.00  0.00    -0.278 N 
HETATM   16  N4  UNL     1      29.513  69.472  72.480  1.00  0.00    -0.284 N 
ATOM     17  H5  UNL     1      27.833  70.679  72.687  1.00  0.00     0.189 HD
ATOM     18  H4  UNL     1      30.274  70.151  72.464  1.00  0.00     0.188 HD
BRANCH  14  19
HETATM   19  O1  UNL     1      26.076  68.525  72.682  1.00  0.00    -0.340 OA
HETATM   20  C1  UNL     1      25.300  68.916  71.569  1.00  0.00     0.211 C 
ENDBRANCH  14  19
ENDBRANCH   1  12
TORSDOF 2
ENDMDL
MODEL 3
REMARK VINA RESULT: -2.730122009      2.474      2.772
REMARK  2 active torsions:
REMARK  status: ('A' for Active; 'I' for Inactive)
REMARK    1  A    between atoms: O1_2  and  C2_3 
REMARK    2  A    between atoms: C4_5  and  N1_6 
REMARK       I    between atoms: N1_6  and  C5_8 
REMARK       I    between atoms: C5_8  and  N2_9 
REMARK       I    between atoms: C5_8  and  N3_13 
ROOT
HETATM    1  N1  UNL     1      30.713  66.785  74.224  1.00  0.00    -0.326 N 
ATOM      2  H1  UNL     1      31.182  66.232  74.941  1.00  0.00     0.164 HD
HETATM    3  C5  UNL     1      31.457  67.212  73.061  1.00  0.00     0.481 C 
HETATM    4  N2  UNL     1      31.450  68.662  73.045  1.00  0.00    -0.033 N 
ATOM      5  H21 UNL     1      31.975  68.963  72.225  1.00  0.00     0.278 HD
ATOM      6  H22 UNL     1      31.800  69.070  73.912  1.00  0.00     0.278 HD
ATOM      7  H23 UNL     1      30.510  69.054  73.081  1.00  0.00     0.278 HD
HETATM    8  N3  UNL     1      32.789  66.686  73.028  1.00  0.00    -0.033 N 
ATOM      9  H31 UNL     1      33.314  66.987  72.208  1.00  0.00     0.278 HD
ATOM     10  H32 UNL     1      32.782  65.668  73.102  1.00  0.00     0.278 HD
ATOM     11  H33 UNL     1      33.292  66.911  73.886  1.00  0.00     0.278 HD
ENDROOT
BRANCH   1  12
HETATM   12  C4  UNL     1      29.349  67.116  74.387  1.00  0.00     0.122 A 
HETATM   13  C3  UNL     1      28.459  67.391  73.362  1.00  0.00     0.106 A 
HETATM   14  C2  UNL     1      27.249  67.663  73.965  1.00  0.00     0.160 A 
HETATM   15  N5  UNL     1      27.452  67.544  75.289  1.00  0.00    -0.278 N 
HETATM   16  N4  UNL     1      28.707  67.216  75.562  1.00  0.00    -0.284 N 
ATOM     17  H5  UNL     1      26.729  67.688  75.995  1.00  0.00     0.189 HD
ATOM     18  H4  UNL     1      29.109  67.069  76.489  1.00  0.00     0.188 HD
BRANCH  14  19
HETATM   19  O1  UNL     1      26.041  67.998  73.320  1.00  0.00    -0.340 OA
HETATM   20  C1  UNL     1      26.107  68.515  72.008  1.00  0.00     0.211 C 
ENDBRANCH  14  19
ENDBRANCH   1  12
TORSDOF 2
ENDMDL
MODEL 4
REMARK VINA RESULT: -2.323562703      2.699      4.818
REMARK  2 active torsions:
REMARK  status: ('A' for Active; 'I' for Inactive)
REMARK    1  A    between atoms: O1_2  and  C2_3 
REMARK    2  A    between atoms: C4_5  and  N1_6 
REMARK       I    between atoms: N1_6  and  C5_8 
REMARK       I    between atoms: C5_8  and  N2_9 
REMARK       I    between atoms: C5_8  and  N3_13 
ROOT
HETATM    1  N1  UNL     1      29.966  70.015  75.547  1.00  0.00    -0.326 N 
ATOM      2  H1  UNL     1      30.774  70.561  75.846  1.00  0.00     0.164 HD
HETATM    3  C5  UNL     1      28.661  70.334  76.079  1.00  0.00     0.481 C 
HETATM    4  N2  UNL     1      28.179  69.166  76.788  1.00  0.00    -0.033 N 
ATOM      5  H21 UNL     1      27.258  69.391  77.163  1.00  0.00     0.278 HD
ATOM      6  H22 UNL     1      28.829  68.839  77.503  1.00  0.00     0.278 HD
ATOM      7  H23 UNL     1      28.178  68.324  76.212  1.00  0.00     0.278 HD
HETATM    8  N3  UNL     1      28.668  71.498  76.914  1.00  0.00    -0.033 N 
ATOM      9  H31 UNL     1      27.748  71.724  77.289  1.00  0.00     0.278 HD
ATOM     10  H32 UNL     1      29.067  72.298  76.422  1.00  0.00     0.278 HD
ATOM     11  H33 UNL     1      29.355  71.406  77.662  1.00  0.00     0.278 HD
ENDROOT
BRANCH   1  12
HETATM   12  C4  UNL     1      30.147  68.963  74.622  1.00  0.00     0.122 A 
HETATM   13  C3  UNL     1      29.789  67.640  74.828  1.00  0.00     0.106 A 
HETATM   14  C2  UNL     1      30.145  66.962  73.682  1.00  0.00     0.160 A 
HETATM   15  N5  UNL     1      30.686  67.875  72.855  1.00  0.00    -0.278 N 
HETATM   16  N4  UNL     1      30.697  69.083  73.403  1.00  0.00    -0.284 N 
ATOM     17  H5  UNL     1      31.044  67.665  71.923  1.00  0.00     0.189 HD
ATOM     18  H4  UNL     1      31.055  69.939  72.980  1.00  0.00     0.188 HD
BRANCH  14  19
HETATM   19  O1  UNL     1      29.974  65.586  73.427  1.00  0.00    -0.340 OA
HETATM   20  C1  UNL     1      28.929  64.910  74.093  1.00  0.00     0.211 C 
ENDBRANCH  14  19
ENDBRANCH   1  12
TORSDOF 2
ENDMDL
MODEL 5
REMARK VINA RESULT: -2.315968947      2.947      3.308
REMARK  2 active torsions:
REMARK  status: ('A' for Active; 'I' for Inactive)
REMARK    1  A    between atoms: O1_2  and  C2_3 
REMARK    2  A    between atoms: C4_5  and  N1_6 
REMARK       I    between atoms: N1_6  and  C5_8 
REMARK       I    between atoms: C5_8  and  N2_9 
REMARK       I    between atoms: C5_8  and  N3_13 
ROOT
HETATM    1  N1  UNL     1      30.091  66.790  73.615  1.00  0.00    -0.326 N 
ATOM      2  H1  UNL     1      30.292  65.987  74.211  1.00  0.00     0.164 HD
HETATM    3  C5  UNL     1      31.175  67.444  72.919  1.00  0.00     0.481 C 
HETATM    4  N2  UNL     1      31.229  68.817  73.381  1.00  0.00    -0.033 N 
ATOM      5  H21 UNL     1      31.994  69.278  72.890  1.00  0.00     0.278 HD
ATOM      6  H22 UNL     1      31.306  68.891  74.396  1.00  0.00     0.278 HD
ATOM      7  H23 UNL     1      30.339  69.305  73.279  1.00  0.00     0.278 HD
HETATM    8  N3  UNL     1      32.431  66.775  73.090  1.00  0.00    -0.033 N 
ATOM      9  H31 UNL     1      33.196  67.236  72.598  1.00  0.00     0.278 HD
ATOM     10  H32 UNL     1      32.362  65.794  72.818  1.00  0.00     0.278 HD
ATOM     11  H33 UNL     1      32.650  66.658  74.079  1.00  0.00     0.278 HD
ENDROOT
BRANCH   1  12
HETATM   12  C4  UNL     1      28.757  67.239  73.488  1.00  0.00     0.122 A 
HETATM   13  C3  UNL     1      28.263  68.008  72.446  1.00  0.00     0.106 A 
HETATM   14  C2  UNL     1      26.928  68.217  72.722  1.00  0.00     0.160 A 
HETATM   15  N5  UNL     1      26.678  67.584  73.883  1.00  0.00    -0.278 N 
HETATM   16  N4  UNL     1      27.765  66.992  74.358  1.00  0.00    -0.284 N 
ATOM     17  H5  UNL     1      25.767  67.563  74.340  1.00  0.00     0.189 HD
ATOM     18  H4  UNL     1      27.835  66.452  75.221  1.00  0.00     0.188 HD
BRANCH  14  19
HETATM   19  O1  UNL     1      26.009  68.946  71.941  1.00  0.00    -0.340 OA
HETATM   20  C1  UNL     1      24.634  68.669  72.096  1.00  0.00     0.211 C 
ENDBRANCH  14  19
ENDBRANCH   1  12
TORSDOF 2
ENDMDL
