MODEL 1
REMARK VINA RESULT: -3.495846597      0.000      0.000
REMARK  4 active torsions:
REMARK  status: ('A' for Active; 'I' for Inactive)
REMARK    1  A    between atoms: C2_2  and  N1_4 
REMARK    2  A    between atoms: N1_4  and  N2_6 
REMARK    3  A    between atoms: N2_6  and  C4_8 
REMARK    4  A    between atoms: C5_11  and  N4_12 
ROOT
HETATM    1  C4  UNL     1      29.806  68.066  74.929  1.00  0.00     0.712 A 
HETATM    2  N3  UNL     1      29.745  69.328  75.387  1.00  0.00    -0.021 N 
ATOM      3  H3  UNL     1      30.452  69.998  75.084  1.00  0.00     0.203 HD
HETATM    4  C5  UNL     1      28.774  69.739  76.240  1.00  0.00     0.691 A 
HETATM    5  N5  UNL     1      27.845  68.848  76.634  1.00  0.00    -0.187 N 
ATOM      6  H5  UNL     1      27.100  69.124  77.274  1.00  0.00     0.185 HD
HETATM    7  C6  UNL     1      27.915  67.588  76.168  1.00  0.00     0.215 A 
HETATM    8  N6  UNL     1      28.881  67.172  75.320  1.00  0.00    -0.185 N 
ATOM      9  H6  UNL     1      28.907  66.208  74.986  1.00  0.00     0.185 HD
ENDROOT
BRANCH   1  10
HETATM   10  N2  UNL     1      30.807  67.624  74.017  1.00  0.00    -0.135 N 
ATOM     11  H2  UNL     1      31.750  67.505  74.388  1.00  0.00     0.205 HD
BRANCH  10  12
HETATM   12  N1  UNL     1      30.622  67.345  72.689  1.00  0.00    -0.318 N 
ATOM     13  H1  UNL     1      31.085  66.553  72.242  1.00  0.00     0.181 HD
BRANCH  12  14
HETATM   14  C2  UNL     1      29.758  68.207  71.960  1.00  0.00     0.091 C 
HETATM   15  C1  UNL     1      30.036  69.677  72.145  1.00  0.00     0.033 C 
HETATM   16  C3  UNL     1      28.294  67.933  72.118  1.00  0.00     0.033 C 
ENDBRANCH  12  14
ENDBRANCH  10  12
ENDBRANCH   1  10
BRANCH   4  17
HETATM   17  N4  UNL     1      28.764  70.942  76.653  1.00  0.00    -0.234 N 
ATOM     18  H42 UNL     1      28.666  71.729  76.011  1.00  0.00     0.174 HD
ATOM     19  H41 UNL     1      28.849  71.136  77.651  1.00  0.00     0.174 HD
ENDBRANCH   4  17
TORSDOF 4
ENDMDL
MODEL 2
REMARK VINA RESULT: -2.913343810      1.484      1.979
REMARK  4 active torsions:
REMARK  status: ('A' for Active; 'I' for Inactive)
REMARK    1  A    between atoms: C2_2  and  N1_4 
REMARK    2  A    between atoms: N1_4  and  N2_6 
REMARK    3  A    between atoms: N2_6  and  C4_8 
REMARK    4  A    between atoms: C5_11  and  N4_12 
ROOT
HETATM    1  C4  UNL     1      29.534  66.714  74.158  1.00  0.00     0.712 A 
HETATM    2  N3  UNL     1      29.157  67.578  75.117  1.00  0.00    -0.021 N 
ATOM      3  H3  UNL     1      29.734  68.401  75.294  1.00  0.00     0.203 HD
HETATM    4  C5  UNL     1      28.035  67.392  75.855  1.00  0.00     0.691 A 
HETATM    5  N5  UNL     1      27.280  66.305  75.613  1.00  0.00    -0.187 N 
ATOM      6  H5  UNL     1      26.429  66.134  76.150  1.00  0.00     0.185 HD
HETATM    7  C6  UNL     1      27.665  65.447  74.651  1.00  0.00     0.215 A 
HETATM    8  N6  UNL     1      28.783  65.626  73.914  1.00  0.00    -0.185 N 
ATOM      9  H6  UNL     1      29.049  64.955  73.193  1.00  0.00     0.185 HD
ENDROOT
BRANCH   1  10
HETATM   10  N2  UNL     1      30.698  66.906  73.361  1.00  0.00    -0.135 N 
ATOM     11  H2  UNL     1      31.532  66.383  73.626  1.00  0.00     0.205 HD
BRANCH  10  12
HETATM   12  N1  UNL     1      30.802  67.730  72.271  1.00  0.00    -0.318 N 
ATOM     13  H1  UNL     1      31.217  67.406  71.397  1.00  0.00     0.181 HD
BRANCH  12  14
HETATM   14  C2  UNL     1      30.307  69.054  72.410  1.00  0.00     0.091 C 
HETATM   15  C1  UNL     1      30.835  69.800  73.610  1.00  0.00     0.033 C 
HETATM   16  C3  UNL     1      28.818  69.197  72.327  1.00  0.00     0.033 C 
ENDBRANCH  12  14
ENDBRANCH  10  12
ENDBRANCH   1  10
BRANCH   4  17
HETATM   17  N4  UNL     1      27.726  68.234  76.757  1.00  0.00    -0.234 N 
ATOM     18  H42 UNL     1      26.756  68.406  77.020  1.00  0.00     0.174 HD
ATOM     19  H41 UNL     1      28.461  68.752  77.239  1.00  0.00     0.174 HD
ENDBRANCH   4  17
TORSDOF 4
ENDMDL
MODEL 3
REMARK VINA RESULT: -2.882922889      1.725      3.841
REMARK  4 active torsions:
REMARK  status: ('A' for Active; 'I' for Inactive)
REMARK    1  A    between atoms: C2_2  and  N1_4 
REMARK    2  A    between atoms: N1_4  and  N2_6 
REMARK    3  A    between atoms: N2_6  and  C4_8 
REMARK    4  A    between atoms: C5_11  and  N4_12 
ROOT
HETATM    1  C4  UNL     1      29.816  67.822  74.769  1.00  0.00     0.712 A 
HETATM    2  N3  UNL     1      29.707  68.848  73.907  1.00  0.00    -0.021 N 
ATOM      3  H3  UNL     1      29.048  69.599  74.114  1.00  0.00     0.203 HD
HETATM    4  C5  UNL     1      30.444  68.917  72.770  1.00  0.00     0.691 A 
HETATM    5  N5  UNL     1      31.311  67.922  72.506  1.00  0.00    -0.187 N 
ATOM      6  H5  UNL     1      31.881  67.942  71.660  1.00  0.00     0.185 HD
HETATM    7  C6  UNL     1      31.413  66.901  73.376  1.00  0.00     0.215 A 
HETATM    8  N6  UNL     1      30.680  66.826  74.508  1.00  0.00    -0.185 N 
ATOM      9  H6  UNL     1      30.780  66.037  75.147  1.00  0.00     0.185 HD
ENDROOT
BRANCH   1  10
HETATM   10  N2  UNL     1      29.064  67.746  75.976  1.00  0.00    -0.135 N 
ATOM     11  H2  UNL     1      29.566  67.924  76.846  1.00  0.00     0.205 HD
BRANCH  10  12
HETATM   12  N1  UNL     1      27.729  67.456  76.077  1.00  0.00    -0.318 N 
ATOM     13  H1  UNL     1      27.187  67.728  76.897  1.00  0.00     0.181 HD
BRANCH  12  14
HETATM   14  C2  UNL     1      27.133  66.760  74.991  1.00  0.00     0.091 C 
HETATM   15  C1  UNL     1      27.741  65.412  74.699  1.00  0.00     0.033 C 
HETATM   16  C3  UNL     1      26.987  67.547  73.725  1.00  0.00     0.033 C 
ENDBRANCH  12  14
ENDBRANCH  10  12
ENDBRANCH   1  10
BRANCH   4  17
HETATM   17  N4  UNL     1      30.297  69.904  71.982  1.00  0.00    -0.234 N 
ATOM     18  H42 UNL     1      29.434  70.446  71.955  1.00  0.00     0.174 HD
ATOM     19  H41 UNL     1      31.060  70.172  71.360  1.00  0.00     0.174 HD
ENDBRANCH   4  17
TORSDOF 4
ENDMDL
MODEL 4
REMARK VINA RESULT: -2.730428046      1.416      2.635
REMARK  4 active torsions:
REMARK  status: ('A' for Active; 'I' for Inactive)
REMARK    1  A    between atoms: C2_2  and  N1_4 
REMARK    2  A    between atoms: N1_4  and  N2_6 
REMARK    3  A    between atoms: N2_6  and  C4_8 
REMARK    4  A    between atoms: C5_11  and  N4_12 
ROOT
HETATM    1  C4  UNL     1      29.520  68.136  74.924  1.00  0.00     0.712 A 
HETATM    2  N3  UNL     1      29.159  66.915  74.491  1.00  0.00    -0.021 N 
ATOM      3  H3  UNL     1      29.726  66.458  73.777  1.00  0.00     0.203 HD
HETATM    4  C5  UNL     1      28.066  66.273  74.974  1.00  0.00     0.691 A 
HETATM    5  N5  UNL     1      27.326  66.883  75.918  1.00  0.00    -0.187 N 
ATOM      6  H5  UNL     1      26.498  66.428  76.303  1.00  0.00     0.185 HD
HETATM    7  C6  UNL     1      27.697  68.104  76.345  1.00  0.00     0.215 A 
HETATM    8  N6  UNL     1      28.783  68.750  75.866  1.00  0.00    -0.185 N 
ATOM      9  H6  UNL     1      29.036  69.677  76.210  1.00  0.00     0.185 HD
ENDROOT
BRANCH   1  10
HETATM   10  N2  UNL     1      30.675  68.815  74.442  1.00  0.00    -0.135 N 
ATOM     11  H2  UNL     1      31.549  68.653  74.943  1.00  0.00     0.205 HD
BRANCH  10  12
HETATM   12  N1  UNL     1      30.722  69.664  73.368  1.00  0.00    -0.318 N 
ATOM     13  H1  UNL     1      31.301  70.504  73.380  1.00  0.00     0.181 HD
BRANCH  12  14
HETATM   14  C2  UNL     1      29.928  69.325  72.239  1.00  0.00     0.091 C 
HETATM   15  C1  UNL     1      28.455  69.602  72.401  1.00  0.00     0.033 C 
HETATM   16  C3  UNL     1      30.140  67.946  71.695  1.00  0.00     0.033 C 
ENDBRANCH  12  14
ENDBRANCH  10  12
ENDBRANCH   1  10
BRANCH   4  17
HETATM   17  N4  UNL     1      27.762  65.122  74.526  1.00  0.00    -0.234 N 
ATOM     18  H42 UNL     1      28.090  64.267  74.974  1.00  0.00     0.174 HD
ATOM     19  H41 UNL     1      27.168  65.042  73.700  1.00  0.00     0.174 HD
ENDBRANCH   4  17
TORSDOF 4
ENDMDL
MODEL 5
REMARK VINA RESULT: -2.712391741      1.571      4.114
REMARK  4 active torsions:
REMARK  status: ('A' for Active; 'I' for Inactive)
REMARK    1  A    between atoms: C2_2  and  N1_4 
REMARK    2  A    between atoms: N1_4  and  N2_6 
REMARK    3  A    between atoms: N2_6  and  C4_8 
REMARK    4  A    between atoms: C5_11  and  N4_12 
ROOT
HETATM    1  C4  UNL     1      29.471  68.557  74.477  1.00  0.00     0.712 A 
HETATM    2  N3  UNL     1      30.462  67.674  74.263  1.00  0.00    -0.021 N 
ATOM      3  H3  UNL     1      30.675  66.986  74.987  1.00  0.00     0.203 HD
HETATM    4  C5  UNL     1      31.188  67.667  73.118  1.00  0.00     0.691 A 
HETATM    5  N5  UNL     1      30.899  68.577  72.169  1.00  0.00    -0.187 N 
ATOM      6  H5  UNL     1      31.425  68.599  71.295  1.00  0.00     0.185 HD
HETATM    7  C6  UNL     1      29.905  69.455  72.392  1.00  0.00     0.215 A 
HETATM    8  N6  UNL     1      29.180  69.468  73.532  1.00  0.00    -0.185 N 
ATOM      9  H6  UNL     1      28.434  70.149  73.671  1.00  0.00     0.185 HD
ENDROOT
BRANCH   1  10
HETATM   10  N2  UNL     1      28.687  68.564  75.665  1.00  0.00    -0.135 N 
ATOM     11  H2  UNL     1      28.853  69.324  76.325  1.00  0.00     0.205 HD
BRANCH  10  12
HETATM   12  N1  UNL     1      27.730  67.644  76.005  1.00  0.00    -0.318 N 
ATOM     13  H1  UNL     1      27.391  67.559  76.964  1.00  0.00     0.181 HD
BRANCH  12  14
HETATM   14  C2  UNL     1      27.232  66.813  74.966  1.00  0.00     0.091 C 
HETATM   15  C1  UNL     1      28.057  65.579  74.698  1.00  0.00     0.033 C 
HETATM   16  C3  UNL     1      26.914  67.512  73.680  1.00  0.00     0.033 C 
ENDBRANCH  12  14
ENDBRANCH  10  12
ENDBRANCH   1  10
BRANCH   4  17
HETATM   17  N4  UNL     1      32.122  66.816  72.967  1.00  0.00    -0.234 N 
ATOM     18  H42 UNL     1      32.186  65.982  73.550  1.00  0.00     0.174 HD
ATOM     19  H41 UNL     1      32.825  66.960  72.242  1.00  0.00     0.174 HD
ENDBRANCH   4  17
TORSDOF 4
ENDMDL
