MODEL 1
REMARK VINA RESULT: -6.454051895      0.000      0.000
REMARK  1 active torsions:
REMARK  status: ('A' for Active; 'I' for Inactive)
REMARK       I    between atoms: C7_10  and  N3_11 
REMARK    1  A    between atoms: N3_11  and  C8_13 
ROOT
HETATM    1  C1  UNL     1      22.908   8.113  14.596  1.00  0.00    -0.009 C 
HETATM    2  C2  UNL     1      22.669   9.182  15.312  1.00  0.00    -0.002 C 
HETATM    3  C3  UNL     1      23.432   9.486  16.553  1.00  0.00     0.139 C 
HETATM    4  C4  UNL     1      24.739   8.724  16.547  1.00  0.00     0.148 C 
HETATM    5  N1  UNL     1      24.631   7.374  16.150  1.00  0.00    -0.391 N 
HETATM    6  C5  UNL     1      23.947   7.110  14.941  1.00  0.00     0.145 C 
HETATM    7  C6  UNL     1      24.419   6.427  17.204  1.00  0.00     0.259 C 
HETATM    8  N2  UNL     1      23.218   6.658  17.961  1.00  0.00    -0.211 N 
ATOM      9  H2  UNL     1      22.884   5.821  18.440  1.00  0.00     0.179 HD
HETATM   10  C7  UNL     1      22.475   7.677  18.168  1.00  0.00     0.672 C 
HETATM   11  N3  UNL     1      21.358   7.424  19.012  1.00  0.00    -0.220 N 
ATOM     12  H3  UNL     1      20.462   7.201  18.579  1.00  0.00     0.178 HD
HETATM   13  N4  UNL     1      22.647   8.975  17.663  1.00  0.00    -0.217 N 
ATOM     14  H4  UNL     1      22.125   9.691  18.167  1.00  0.00     0.178 HD
ENDROOT
BRANCH  11  15
HETATM   15  C8  UNL     1      21.435   7.467  20.459  1.00  0.00     0.119 C 
HETATM   16  C9  UNL     1      22.723   6.876  20.985  1.00  0.00     0.113 C 
HETATM   17  S1  UNL     1      22.276   5.913  22.479  1.00  0.00    -0.084 SA
HETATM   18  S2  UNL     1      20.868   7.129  23.526  1.00  0.00    -0.025 SA
HETATM   19  S3  UNL     1      21.044   9.088  22.659  1.00  0.00    -0.084 SA
HETATM   20  C10 UNL     1      21.267   8.913  20.870  1.00  0.00     0.113 C 
ENDBRANCH  11  15
TORSDOF 1
ENDMDL
MODEL 2
REMARK VINA RESULT: -6.275530131      6.027      8.633
REMARK  1 active torsions:
REMARK  status: ('A' for Active; 'I' for Inactive)
REMARK       I    between atoms: C7_10  and  N3_11 
REMARK    1  A    between atoms: N3_11  and  C8_13 
ROOT
HETATM    1  C1  UNL     1      19.592   1.701  23.304  1.00  0.00    -0.009 C 
HETATM    2  C2  UNL     1      19.759   0.823  22.349  1.00  0.00    -0.002 C 
HETATM    3  C3  UNL     1      21.079   0.188  22.084  1.00  0.00     0.139 C 
HETATM    4  C4  UNL     1      21.958   0.310  23.309  1.00  0.00     0.148 C 
HETATM    5  N1  UNL     1      21.947   1.584  23.917  1.00  0.00    -0.391 N 
HETATM    6  C5  UNL     1      20.683   2.148  24.207  1.00  0.00     0.145 C 
HETATM    7  C6  UNL     1      22.947   2.503  23.463  1.00  0.00     0.259 C 
HETATM    8  N2  UNL     1      22.876   2.794  22.057  1.00  0.00    -0.211 N 
ATOM      9  H2  UNL     1      23.318   3.681  21.813  1.00  0.00     0.179 HD
HETATM   10  C7  UNL     1      22.383   2.191  21.044  1.00  0.00     0.672 C 
HETATM   11  N3  UNL     1      22.557   2.881  19.811  1.00  0.00    -0.220 N 
ATOM     12  H3  UNL     1      21.801   3.480  19.478  1.00  0.00     0.178 HD
HETATM   13  N4  UNL     1      21.710   0.960  21.029  1.00  0.00    -0.217 N 
ATOM     14  H4  UNL     1      21.654   0.527  20.107  1.00  0.00     0.178 HD
ENDROOT
BRANCH  11  15
HETATM   15  C8  UNL     1      23.758   2.772  19.008  1.00  0.00     0.119 C 
HETATM   16  C9  UNL     1      23.784   1.507  18.180  1.00  0.00     0.113 C 
HETATM   17  S1  UNL     1      25.507   0.884  18.246  1.00  0.00    -0.084 SA
HETATM   18  S2  UNL     1      26.735   2.617  18.030  1.00  0.00    -0.025 SA
HETATM   19  S3  UNL     1      25.428   4.161  17.305  1.00  0.00    -0.084 SA
HETATM   20  C10 UNL     1      23.831   4.013  18.146  1.00  0.00     0.113 C 
ENDBRANCH  11  15
TORSDOF 1
ENDMDL
MODEL 3
REMARK VINA RESULT: -6.157431842      5.619      8.255
REMARK  1 active torsions:
REMARK  status: ('A' for Active; 'I' for Inactive)
REMARK       I    between atoms: C7_10  and  N3_11 
REMARK    1  A    between atoms: N3_11  and  C8_13 
ROOT
HETATM    1  C1  UNL     1      19.311   1.565  23.270  1.00  0.00    -0.009 C 
HETATM    2  C2  UNL     1      19.620   0.917  22.177  1.00  0.00    -0.002 C 
HETATM    3  C3  UNL     1      21.024   0.539  21.855  1.00  0.00     0.139 C 
HETATM    4  C4  UNL     1      21.856   0.552  23.117  1.00  0.00     0.148 C 
HETATM    5  N1  UNL     1      21.647   1.672  23.950  1.00  0.00    -0.391 N 
HETATM    6  C5  UNL     1      20.309   1.983  24.286  1.00  0.00     0.145 C 
HETATM    7  C6  UNL     1      22.506   2.794  23.718  1.00  0.00     0.259 C 
HETATM    8  N2  UNL     1      22.413   3.334  22.388  1.00  0.00    -0.211 N 
ATOM      9  H2  UNL     1      22.723   4.305  22.332  1.00  0.00     0.179 HD
HETATM   10  C7  UNL     1      22.030   2.869  21.261  1.00  0.00     0.672 C 
HETATM   11  N3  UNL     1      22.118   3.798  20.186  1.00  0.00    -0.220 N 
ATOM     12  H3  UNL     1      21.287   4.335  19.938  1.00  0.00     0.178 HD
HETATM   13  N4  UNL     1      21.549   1.580  20.989  1.00  0.00    -0.217 N 
ATOM     14  H4  UNL     1      21.572   1.326  20.002  1.00  0.00     0.178 HD
ENDROOT
BRANCH  11  15
HETATM   15  C8  UNL     1      23.334   4.017  19.428  1.00  0.00     0.119 C 
HETATM   16  C9  UNL     1      23.668   5.485  19.287  1.00  0.00     0.113 C 
HETATM   17  S1  UNL     1      24.273   5.712  17.572  1.00  0.00    -0.084 SA
HETATM   18  S2  UNL     1      25.543   4.037  17.200  1.00  0.00    -0.025 SA
HETATM   19  S3  UNL     1      25.949   3.185  19.132  1.00  0.00    -0.084 SA
HETATM   20  C10 UNL     1      24.437   3.250  20.125  1.00  0.00     0.113 C 
ENDBRANCH  11  15
TORSDOF 1
ENDMDL
MODEL 4
REMARK VINA RESULT: -6.137262051      6.659      9.043
REMARK  1 active torsions:
REMARK  status: ('A' for Active; 'I' for Inactive)
REMARK       I    between atoms: C7_10  and  N3_11 
REMARK    1  A    between atoms: N3_11  and  C8_13 
ROOT
HETATM    1  C1  UNL     1      19.213   0.332  22.472  1.00  0.00    -0.009 C 
HETATM    2  C2  UNL     1      20.226  -0.495  22.464  1.00  0.00    -0.002 C 
HETATM    3  C3  UNL     1      21.605  -0.055  22.813  1.00  0.00     0.139 C 
HETATM    4  C4  UNL     1      21.544   1.228  23.610  1.00  0.00     0.148 C 
HETATM    5  N1  UNL     1      20.650   2.195  23.101  1.00  0.00    -0.391 N 
HETATM    6  C5  UNL     1      19.330   1.770  22.825  1.00  0.00     0.145 C 
HETATM    7  C6  UNL     1      21.206   3.136  22.176  1.00  0.00     0.259 C 
HETATM    8  N2  UNL     1      21.765   2.532  20.996  1.00  0.00    -0.211 N 
ATOM      9  H2  UNL     1      21.820   3.179  20.209  1.00  0.00     0.179 HD
HETATM   10  C7  UNL     1      22.208   1.368  20.714  1.00  0.00     0.672 C 
HETATM   11  N3  UNL     1      22.676   1.229  19.377  1.00  0.00    -0.220 N 
ATOM     12  H3  UNL     1      22.037   0.857  18.675  1.00  0.00     0.178 HD
HETATM   13  N4  UNL     1      22.275   0.252  21.563  1.00  0.00    -0.217 N 
ATOM     14  H4  UNL     1      22.911  -0.477  21.242  1.00  0.00     0.178 HD
ENDROOT
BRANCH  11  15
HETATM   15  C8  UNL     1      24.019   1.592  18.969  1.00  0.00     0.119 C 
HETATM   16  C9  UNL     1      24.842   2.134  20.115  1.00  0.00     0.113 C 
HETATM   17  S1  UNL     1      25.810   3.535  19.436  1.00  0.00    -0.084 SA
HETATM   18  S2  UNL     1      26.498   2.865  17.529  1.00  0.00    -0.025 SA
HETATM   19  S3  UNL     1      26.213   0.735  17.531  1.00  0.00    -0.084 SA
HETATM   20  C10 UNL     1      24.646   0.359  18.355  1.00  0.00     0.113 C 
ENDBRANCH  11  15
TORSDOF 1
ENDMDL
MODEL 5
REMARK VINA RESULT: -6.107327896      5.097      6.599
REMARK  1 active torsions:
REMARK  status: ('A' for Active; 'I' for Inactive)
REMARK       I    between atoms: C7_10  and  N3_11 
REMARK    1  A    between atoms: N3_11  and  C8_13 
ROOT
HETATM    1  C1  UNL     1      26.865   2.459  17.599  1.00  0.00    -0.009 C 
HETATM    2  C2  UNL     1      26.185   1.344  17.670  1.00  0.00    -0.002 C 
HETATM    3  C3  UNL     1      24.703   1.332  17.810  1.00  0.00     0.139 C 
HETATM    4  C4  UNL     1      24.138   2.661  17.362  1.00  0.00     0.148 C 
HETATM    5  N1  UNL     1      24.839   3.790  17.839  1.00  0.00    -0.391 N 
HETATM    6  C5  UNL     1      26.241   3.805  17.650  1.00  0.00     0.145 C 
HETATM    7  C6  UNL     1      24.373   4.338  19.077  1.00  0.00     0.259 C 
HETATM    8  N2  UNL     1      24.422   3.414  20.178  1.00  0.00    -0.211 N 
ATOM      9  H2  UNL     1      24.447   3.881  21.086  1.00  0.00     0.179 HD
HETATM   10  C7  UNL     1      24.441   2.140  20.275  1.00  0.00     0.672 C 
HETATM   11  N3  UNL     1      24.492   1.656  21.612  1.00  0.00    -0.220 N 
ATOM     12  H3  UNL     1      25.402   1.426  22.011  1.00  0.00     0.178 HD
HETATM   13  N4  UNL     1      24.418   1.206  19.228  1.00  0.00    -0.217 N 
ATOM     14  H4  UNL     1      24.153   0.264  19.516  1.00  0.00     0.178 HD
ENDROOT
BRANCH  11  15
HETATM   15  C8  UNL     1      23.311   1.475  22.432  1.00  0.00     0.119 C 
HETATM   16  C9  UNL     1      22.718   0.091  22.289  1.00  0.00     0.113 C 
HETATM   17  S1  UNL     1      20.898   0.311  22.259  1.00  0.00    -0.084 SA
HETATM   18  S2  UNL     1      20.487   1.766  23.768  1.00  0.00    -0.025 SA
HETATM   19  S3  UNL     1      22.274   1.880  24.958  1.00  0.00    -0.084 SA
HETATM   20  C10 UNL     1      23.710   1.775  23.860  1.00  0.00     0.113 C 
ENDBRANCH  11  15
TORSDOF 1
ENDMDL
