MODEL 1
REMARK VINA RESULT: -7.975137202      0.000      0.000
REMARK  3 active torsions:
REMARK  status: ('A' for Active; 'I' for Inactive)
REMARK    1  A    between atoms: N1_1  and  C1_4 
REMARK    2  A    between atoms: C2_7  and  N3_8 
REMARK    3  A    between atoms: N3_8  and  C3_10 
ROOT
HETATM    1  N3  UNL     1      26.770   3.604  15.164  1.00  0.00    -0.316 N 
ATOM      2  H3  UNL     1      27.566   3.338  14.585  1.00  0.00     0.170 HD
ENDROOT
BRANCH   1   3
HETATM    3  C2  UNL     1      26.241   2.745  16.033  1.00  0.00     0.159 A 
HETATM    4  N2  UNL     1      25.566   1.691  15.589  1.00  0.00    -0.316 N 
HETATM    5  C1  UNL     1      25.039   0.836  16.445  1.00  0.00     0.151 A 
ATOM      6  H2  UNL     1      25.455   1.543  14.586  1.00  0.00     0.170 HD
HETATM    7  S3  UNL     1      25.272   1.159  18.104  1.00  0.00    -0.013 SA
HETATM    8  S2  UNL     1      26.368   2.900  17.730  1.00  0.00    -0.013 SA
BRANCH   5   9
HETATM    9  N1  UNL     1      24.348  -0.245  16.095  1.00  0.00    -0.379 N 
ATOM     10  H12 UNL     1      23.338  -0.248  16.237  1.00  0.00     0.158 HD
ATOM     11  H11 UNL     1      24.760  -1.084  15.688  1.00  0.00     0.158 HD
ENDBRANCH   5   9
ENDBRANCH   1   3
BRANCH   1  12
HETATM   12  C3  UNL     1      26.193   4.908  15.065  1.00  0.00     0.151 A 
HETATM   13  N4  UNL     1      26.060   5.634  13.965  1.00  0.00    -0.339 N 
HETATM   14  C4  UNL     1      25.513   6.808  14.026  1.00  0.00     0.024 A 
ATOM     15  H4  UNL     1      26.388   5.269  13.070  1.00  0.00     0.168 HD
HETATM   16  C5  UNL     1      25.091   7.247  15.254  1.00  0.00     0.009 A 
HETATM   17  C9  UNL     1      25.260   7.806  12.910  1.00  0.00     0.058 C 
HETATM   18  S1  UNL     1      25.512   5.929  16.254  1.00  0.00    -0.057 SA
HETATM   19  C6  UNL     1      24.440   8.590  15.466  1.00  0.00     0.048 C 
HETATM   20  C7  UNL     1      23.523   8.921  14.345  1.00  0.00     0.006 C 
HETATM   21  C8  UNL     1      23.822   8.250  13.057  1.00  0.00     0.006 C 
ENDBRANCH   1  12
TORSDOF 3
ENDMDL
MODEL 2
REMARK VINA RESULT: -7.524152874      1.504      1.614
REMARK  3 active torsions:
REMARK  status: ('A' for Active; 'I' for Inactive)
REMARK    1  A    between atoms: N1_1  and  C1_4 
REMARK    2  A    between atoms: C2_7  and  N3_8 
REMARK    3  A    between atoms: N3_8  and  C3_10 
ROOT
HETATM    1  N3  UNL     1      26.638   3.579  15.431  1.00  0.00    -0.316 N 
ATOM      2  H3  UNL     1      27.429   3.227  14.891  1.00  0.00     0.170 HD
ENDROOT
BRANCH   1   3
HETATM    3  C2  UNL     1      26.050   2.821  16.355  1.00  0.00     0.159 A 
HETATM    4  N2  UNL     1      26.607   2.695  17.554  1.00  0.00    -0.316 N 
HETATM    5  C1  UNL     1      26.030   1.946  18.474  1.00  0.00     0.151 A 
ATOM      6  H2  UNL     1      27.481   3.177  17.763  1.00  0.00     0.170 HD
HETATM    7  S3  UNL     1      24.570   1.176  18.041  1.00  0.00    -0.013 SA
HETATM    8  S2  UNL     1      24.587   1.974  16.109  1.00  0.00    -0.013 SA
BRANCH   5   9
HETATM    9  N1  UNL     1      26.512   1.760  19.700  1.00  0.00    -0.379 N 
ATOM     10  H12 UNL     1      26.380   0.852  20.145  1.00  0.00     0.158 HD
ATOM     11  H11 UNL     1      27.012   2.469  20.235  1.00  0.00     0.158 HD
ENDBRANCH   5   9
ENDBRANCH   1   3
BRANCH   1  12
HETATM   12  C3  UNL     1      26.132   4.898  15.215  1.00  0.00     0.151 A 
HETATM   13  N4  UNL     1      26.017   5.523  14.053  1.00  0.00    -0.339 N 
HETATM   14  C4  UNL     1      25.538   6.727  14.009  1.00  0.00     0.024 A 
ATOM     15  H4  UNL     1      26.307   5.057  13.192  1.00  0.00     0.168 HD
HETATM   16  C5  UNL     1      25.164   7.303  15.196  1.00  0.00     0.009 A 
HETATM   17  C9  UNL     1      25.317   7.627  12.807  1.00  0.00     0.058 C 
HETATM   18  S1  UNL     1      25.532   6.064  16.311  1.00  0.00    -0.057 SA
HETATM   19  C6  UNL     1      24.593   8.695  15.288  1.00  0.00     0.048 C 
HETATM   20  C7  UNL     1      23.674   8.970  14.154  1.00  0.00     0.006 C 
HETATM   21  C8  UNL     1      23.909   8.164  12.931  1.00  0.00     0.006 C 
ENDBRANCH   1  12
TORSDOF 3
ENDMDL
MODEL 3
REMARK VINA RESULT: -7.473683063      1.769      1.848
REMARK  3 active torsions:
REMARK  status: ('A' for Active; 'I' for Inactive)
REMARK    1  A    between atoms: N1_1  and  C1_4 
REMARK    2  A    between atoms: C2_7  and  N3_8 
REMARK    3  A    between atoms: N3_8  and  C3_10 
ROOT
HETATM    1  N3  UNL     1      25.616   5.060  17.877  1.00  0.00    -0.316 N 
ATOM      2  H3  UNL     1      25.856   5.253  18.850  1.00  0.00     0.170 HD
ENDROOT
BRANCH   1   3
HETATM    3  C2  UNL     1      25.611   3.812  17.410  1.00  0.00     0.159 A 
HETATM    4  N2  UNL     1      24.759   2.925  17.911  1.00  0.00    -0.316 N 
HETATM    5  C1  UNL     1      24.749   1.688  17.453  1.00  0.00     0.151 A 
ATOM      6  H2  UNL     1      24.112   3.201  18.650  1.00  0.00     0.170 HD
HETATM    7  S3  UNL     1      25.862   1.312  16.215  1.00  0.00    -0.013 SA
HETATM    8  S2  UNL     1      26.649   3.249  16.176  1.00  0.00    -0.013 SA
BRANCH   5   9
HETATM    9  N1  UNL     1      23.934   0.733  17.891  1.00  0.00    -0.379 N 
ATOM     10  H12 UNL     1      24.021  -0.204  17.498  1.00  0.00     0.158 HD
ATOM     11  H11 UNL     1      23.217   0.870  18.604  1.00  0.00     0.158 HD
ENDBRANCH   5   9
ENDBRANCH   1   3
BRANCH   1  12
HETATM   12  C3  UNL     1      25.274   6.119  16.981  1.00  0.00     0.151 A 
HETATM   13  N4  UNL     1      25.685   6.262  15.730  1.00  0.00    -0.339 N 
HETATM   14  C4  UNL     1      25.291   7.280  15.031  1.00  0.00     0.024 A 
ATOM     15  H4  UNL     1      26.311   5.570  15.316  1.00  0.00     0.168 HD
HETATM   16  C5  UNL     1      24.449   8.177  15.638  1.00  0.00     0.009 A 
HETATM   17  C9  UNL     1      25.628   7.646  13.597  1.00  0.00     0.058 C 
HETATM   18  S1  UNL     1      24.277   7.491  17.191  1.00  0.00    -0.057 SA
HETATM   19  C6  UNL     1      23.917   9.403  14.941  1.00  0.00     0.048 C 
HETATM   20  C7  UNL     1      23.585   9.109  13.523  1.00  0.00     0.006 C 
HETATM   21  C8  UNL     1      24.314   7.966  12.920  1.00  0.00     0.006 C 
ENDBRANCH   1  12
TORSDOF 3
ENDMDL
MODEL 4
REMARK VINA RESULT: -7.468539296      1.583      1.751
REMARK  3 active torsions:
REMARK  status: ('A' for Active; 'I' for Inactive)
REMARK    1  A    between atoms: N1_1  and  C1_4 
REMARK    2  A    between atoms: C2_7  and  N3_8 
REMARK    3  A    between atoms: N3_8  and  C3_10 
ROOT
HETATM    1  N3  UNL     1      25.800   4.910  17.883  1.00  0.00    -0.316 N 
ATOM      2  H3  UNL     1      26.395   5.079  18.694  1.00  0.00     0.170 HD
ENDROOT
BRANCH   1   3
HETATM    3  C2  UNL     1      25.379   3.681  17.589  1.00  0.00     0.159 A 
HETATM    4  N2  UNL     1      25.823   3.078  16.492  1.00  0.00    -0.316 N 
HETATM    5  C1  UNL     1      25.410   1.861  16.194  1.00  0.00     0.151 A 
ATOM      6  H2  UNL     1      26.483   3.557  15.879  1.00  0.00     0.170 HD
HETATM    7  S3  UNL     1      24.308   1.133  17.273  1.00  0.00    -0.013 SA
HETATM    8  S2  UNL     1      24.279   2.791  18.546  1.00  0.00    -0.013 SA
BRANCH   5   9
HETATM    9  N1  UNL     1      25.798   1.179  15.120  1.00  0.00    -0.379 N 
ATOM     10  H12 UNL     1      26.678   0.665  15.157  1.00  0.00     0.158 HD
ATOM     11  H11 UNL     1      25.271   1.133  14.247  1.00  0.00     0.158 HD
ENDBRANCH   5   9
ENDBRANCH   1   3
BRANCH   1  12
HETATM   12  C3  UNL     1      25.396   5.984  17.033  1.00  0.00     0.151 A 
HETATM   13  N4  UNL     1      25.817   6.220  15.799  1.00  0.00    -0.339 N 
HETATM   14  C4  UNL     1      25.360   7.240  15.142  1.00  0.00     0.024 A 
ATOM     15  H4  UNL     1      26.501   5.599  15.366  1.00  0.00     0.168 HD
HETATM   16  C5  UNL     1      24.443   8.040  15.773  1.00  0.00     0.009 A 
HETATM   17  C9  UNL     1      25.694   7.702  13.735  1.00  0.00     0.058 C 
HETATM   18  S1  UNL     1      24.295   7.266  17.288  1.00  0.00    -0.057 SA
HETATM   19  C6  UNL     1      23.832   9.256  15.126  1.00  0.00     0.048 C 
HETATM   20  C7  UNL     1      23.549   9.010  13.688  1.00  0.00     0.006 C 
HETATM   21  C8  UNL     1      24.373   7.957  13.047  1.00  0.00     0.006 C 
ENDBRANCH   1  12
TORSDOF 3
ENDMDL
MODEL 5
REMARK VINA RESULT: -7.359743499      3.060      3.084
REMARK  3 active torsions:
REMARK  status: ('A' for Active; 'I' for Inactive)
REMARK    1  A    between atoms: N1_1  and  C1_4 
REMARK    2  A    between atoms: C2_7  and  N3_8 
REMARK    3  A    between atoms: N3_8  and  C3_10 
ROOT
HETATM    1  N3  UNL     1      25.455   4.596  17.792  1.00  0.00    -0.316 N 
ATOM      2  H3  UNL     1      26.208   3.952  17.551  1.00  0.00     0.170 HD
ENDROOT
BRANCH   1   3
HETATM    3  C2  UNL     1      24.694   4.386  18.865  1.00  0.00     0.159 A 
HETATM    4  N2  UNL     1      23.463   3.911  18.715  1.00  0.00    -0.316 N 
HETATM    5  C1  UNL     1      22.703   3.700  19.772  1.00  0.00     0.151 A 
ATOM      6  H2  UNL     1      23.104   3.710  17.781  1.00  0.00     0.170 HD
HETATM    7  S3  UNL     1      23.380   4.062  21.296  1.00  0.00    -0.013 SA
HETATM    8  S2  UNL     1      25.196   4.687  20.469  1.00  0.00    -0.013 SA
BRANCH   5   9
HETATM    9  N1  UNL     1      21.460   3.228  19.721  1.00  0.00    -0.379 N 
ATOM     10  H12 UNL     1      21.262   2.322  20.146  1.00  0.00     0.158 HD
ATOM     11  H11 UNL     1      20.678   3.713  19.281  1.00  0.00     0.158 HD
ENDBRANCH   5   9
ENDBRANCH   1   3
BRANCH   1  12
HETATM   12  C3  UNL     1      25.189   5.748  16.990  1.00  0.00     0.151 A 
HETATM   13  N4  UNL     1      25.589   5.956  15.744  1.00  0.00    -0.339 N 
HETATM   14  C4  UNL     1      25.270   7.056  15.137  1.00  0.00     0.024 A 
ATOM     15  H4  UNL     1      26.147   5.250  15.263  1.00  0.00     0.168 HD
HETATM   16  C5  UNL     1      24.518   7.968  15.831  1.00  0.00     0.009 A 
HETATM   17  C9  UNL     1      25.612   7.506  13.727  1.00  0.00     0.058 C 
HETATM   18  S1  UNL     1      24.316   7.177  17.330  1.00  0.00    -0.057 SA
HETATM   19  C6  UNL     1      24.079   9.285  15.245  1.00  0.00     0.048 C 
HETATM   20  C7  UNL     1      23.699   9.134  13.817  1.00  0.00     0.006 C 
HETATM   21  C8  UNL     1      24.319   7.987  13.110  1.00  0.00     0.006 C 
ENDBRANCH   1  12
TORSDOF 3
ENDMDL
