MODEL 1
REMARK VINA RESULT: -7.532412114      0.000      0.000
REMARK  1 active torsions:
REMARK  status: ('A' for Active; 'I' for Inactive)
REMARK    1  A    between atoms: C5_8  and  N2_9 
ROOT
HETATM    1  N2  UNL     1      25.535   5.870  15.720  1.00  0.00    -0.276 N 
HETATM    2  C6  UNL     1      26.186   4.776  15.032  1.00  0.00     0.152 C 
HETATM    3  C7  UNL     1      25.779   3.519  15.744  1.00  0.00     0.048 C 
HETATM    4  C8  UNL     1      25.974   3.587  17.230  1.00  0.00     0.153 C 
HETATM    5  C9  UNL     1      25.153   2.513  17.849  1.00  0.00     0.070 C 
HETATM    6  N3  UNL     1      24.498   1.690  18.330  1.00  0.00    -0.197 NA
HETATM    7  C10 UNL     1      25.632   4.894  17.820  1.00  0.00     0.091 C 
HETATM    8  S2  UNL     1      25.496   4.993  19.613  1.00  0.00    -0.035 SA
HETATM    9  N4  UNL     1      25.435   5.929  17.104  1.00  0.00    -0.292 N 
ATOM     10  H4  UNL     1      25.201   6.815  17.554  1.00  0.00     0.187 HD
ENDROOT
BRANCH   1  11
HETATM   11  C5  UNL     1      24.989   6.902  14.912  1.00  0.00     0.126 A 
HETATM   12  C4  UNL     1      24.359   7.942  15.541  1.00  0.00     0.091 A 
HETATM   13  C3  UNL     1      23.820   8.947  14.766  1.00  0.00     0.105 A 
HETATM   14  N1  UNL     1      23.936   8.864  13.446  1.00  0.00    -0.337 N 
HETATM   15  S1  UNL     1      23.072  10.183  15.528  1.00  0.00    -0.060 SA
HETATM   16  C2  UNL     1      24.567   7.818  12.849  1.00  0.00     0.079 A 
ATOM     17  H1  UNL     1      23.540   9.603  12.864  1.00  0.00     0.168 HD
HETATM   18  C1  UNL     1      24.686   7.739  11.391  1.00  0.00     0.089 C 
HETATM   19  N5  UNL     1      25.109   6.809  13.591  1.00  0.00    -0.331 N 
ATOM     20  H5  UNL     1      25.585   6.020  13.153  1.00  0.00     0.168 HD
ENDBRANCH   1  11
TORSDOF 1
ENDMDL
MODEL 2
REMARK VINA RESULT: -7.386775687      1.465      2.084
REMARK  1 active torsions:
REMARK  status: ('A' for Active; 'I' for Inactive)
REMARK    1  A    between atoms: C5_8  and  N2_9 
ROOT
HETATM    1  N2  UNL     1      25.457   5.935  15.784  1.00  0.00    -0.276 N 
HETATM    2  C6  UNL     1      26.094   4.843  15.079  1.00  0.00     0.152 C 
HETATM    3  C7  UNL     1      25.684   3.582  15.784  1.00  0.00     0.048 C 
HETATM    4  C8  UNL     1      25.894   3.635  17.269  1.00  0.00     0.153 C 
HETATM    5  C9  UNL     1      25.071   2.562  17.885  1.00  0.00     0.070 C 
HETATM    6  N3  UNL     1      24.415   1.739  18.365  1.00  0.00    -0.197 NA
HETATM    7  C10 UNL     1      25.566   4.940  17.874  1.00  0.00     0.091 C 
HETATM    8  S2  UNL     1      25.448   5.023  19.669  1.00  0.00    -0.035 SA
HETATM    9  N4  UNL     1      25.370   5.982  17.169  1.00  0.00    -0.292 N 
ATOM     10  H4  UNL     1      25.146   6.865  17.629  1.00  0.00     0.187 HD
ENDROOT
BRANCH   1  11
HETATM   11  C5  UNL     1      24.910   6.978  14.990  1.00  0.00     0.126 A 
HETATM   12  C4  UNL     1      25.035   6.882  13.630  1.00  0.00     0.091 A 
HETATM   13  C3  UNL     1      24.512   7.891  12.850  1.00  0.00     0.105 A 
HETATM   14  N1  UNL     1      23.909   8.911  13.450  1.00  0.00    -0.337 N 
HETATM   15  S1  UNL     1      24.667   7.764  11.230  1.00  0.00    -0.060 SA
HETATM   16  C2  UNL     1      23.800   8.980  14.804  1.00  0.00     0.079 A 
ATOM     17  H1  UNL     1      23.519   9.663  12.881  1.00  0.00     0.168 HD
HETATM   18  C1  UNL     1      23.134  10.112  15.452  1.00  0.00     0.089 C 
HETATM   19  N5  UNL     1      24.309   7.995  15.600  1.00  0.00    -0.331 N 
ATOM     20  H5  UNL     1      24.232   8.037  16.617  1.00  0.00     0.168 HD
ENDBRANCH   1  11
TORSDOF 1
ENDMDL
MODEL 3
REMARK VINA RESULT: -7.163608549      2.449      3.408
REMARK  1 active torsions:
REMARK  status: ('A' for Active; 'I' for Inactive)
REMARK    1  A    between atoms: C5_8  and  N2_9 
ROOT
HETATM    1  N2  UNL     1      25.539   4.958  17.195  1.00  0.00    -0.276 N 
HETATM    2  C6  UNL     1      25.964   4.569  15.868  1.00  0.00     0.152 C 
HETATM    3  C7  UNL     1      25.567   3.132  15.695  1.00  0.00     0.048 C 
HETATM    4  C8  UNL     1      26.012   2.251  16.826  1.00  0.00     0.153 C 
HETATM    5  C9  UNL     1      25.210   1.001  16.773  1.00  0.00     0.070 C 
HETATM    6  N3  UNL     1      24.571   0.036  16.744  1.00  0.00    -0.197 NA
HETATM    7  C10 UNL     1      25.893   2.878  18.155  1.00  0.00     0.091 C 
HETATM    8  S2  UNL     1      26.067   1.816  19.599  1.00  0.00    -0.035 SA
HETATM    9  N4  UNL     1      25.676   4.125  18.298  1.00  0.00    -0.292 N 
ATOM     10  H4  UNL     1      25.601   4.517  19.237  1.00  0.00     0.187 HD
ENDROOT
BRANCH   1  11
HETATM   11  C5  UNL     1      24.963   6.248  17.333  1.00  0.00     0.126 A 
HETATM   12  C4  UNL     1      24.757   6.983  16.195  1.00  0.00     0.091 A 
HETATM   13  C3  UNL     1      24.203   8.239  16.317  1.00  0.00     0.105 A 
HETATM   14  N1  UNL     1      23.892   8.682  17.530  1.00  0.00    -0.337 N 
HETATM   15  S1  UNL     1      23.962   9.104  14.953  1.00  0.00    -0.060 SA
HETATM   16  C2  UNL     1      24.107   7.929  18.642  1.00  0.00     0.079 A 
ATOM     17  H1  UNL     1      23.481   9.610  17.630  1.00  0.00     0.168 HD
HETATM   18  C1  UNL     1      23.759   8.432  19.973  1.00  0.00     0.089 C 
HETATM   19  N5  UNL     1      24.655   6.682  18.551  1.00  0.00    -0.331 N 
ATOM     20  H5  UNL     1      24.820   6.111  19.379  1.00  0.00     0.168 HD
ENDBRANCH   1  11
TORSDOF 1
ENDMDL
MODEL 4
REMARK VINA RESULT: -7.094998993      2.313      2.839
REMARK  1 active torsions:
REMARK  status: ('A' for Active; 'I' for Inactive)
REMARK    1  A    between atoms: C5_8  and  N2_9 
ROOT
HETATM    1  N2  UNL     1      25.543   4.931  17.055  1.00  0.00    -0.276 N 
HETATM    2  C6  UNL     1      25.961   4.512  15.735  1.00  0.00     0.152 C 
HETATM    3  C7  UNL     1      25.556   3.073  15.594  1.00  0.00     0.048 C 
HETATM    4  C8  UNL     1      26.000   2.214  16.742  1.00  0.00     0.153 C 
HETATM    5  C9  UNL     1      25.190   0.968  16.719  1.00  0.00     0.070 C 
HETATM    6  N3  UNL     1      24.546   0.007  16.712  1.00  0.00    -0.197 NA
HETATM    7  C10 UNL     1      25.889   2.870  18.058  1.00  0.00     0.091 C 
HETATM    8  S2  UNL     1      26.061   1.838  19.525  1.00  0.00    -0.035 SA
HETATM    9  N4  UNL     1      25.679   4.121  18.175  1.00  0.00    -0.292 N 
ATOM     10  H4  UNL     1      25.610   4.534  19.106  1.00  0.00     0.187 HD
ENDROOT
BRANCH   1  11
HETATM   11  C5  UNL     1      24.974   6.227  17.167  1.00  0.00     0.126 A 
HETATM   12  C4  UNL     1      24.649   6.679  18.418  1.00  0.00     0.091 A 
HETATM   13  C3  UNL     1      24.092   7.934  18.537  1.00  0.00     0.105 A 
HETATM   14  N1  UNL     1      23.896   8.651  17.436  1.00  0.00    -0.337 N 
HETATM   15  S1  UNL     1      23.709   8.462  20.034  1.00  0.00    -0.060 SA
HETATM   16  C2  UNL     1      24.229   8.176  16.206  1.00  0.00     0.079 A 
ATOM     17  H1  UNL     1      23.484   9.581  17.515  1.00  0.00     0.168 HD
HETATM   18  C1  UNL     1      24.005   8.977  15.001  1.00  0.00     0.089 C 
HETATM   19  N5  UNL     1      24.782   6.936  16.059  1.00  0.00    -0.331 N 
ATOM     20  H5  UNL     1      25.035   6.571  15.140  1.00  0.00     0.168 HD
ENDBRANCH   1  11
TORSDOF 1
ENDMDL
MODEL 5
REMARK VINA RESULT: -6.885037024      2.215      3.237
REMARK  1 active torsions:
REMARK  status: ('A' for Active; 'I' for Inactive)
REMARK    1  A    between atoms: C5_8  and  N2_9 
ROOT
HETATM    1  N2  UNL     1      25.651   4.189  16.907  1.00  0.00    -0.276 N 
HETATM    2  C6  UNL     1      26.791   3.624  16.218  1.00  0.00     0.152 C 
HETATM    3  C7  UNL     1      26.448   2.191  15.927  1.00  0.00     0.048 C 
HETATM    4  C8  UNL     1      25.953   1.443  17.130  1.00  0.00     0.153 C 
HETATM    5  C9  UNL     1      25.246   0.225  16.651  1.00  0.00     0.070 C 
HETATM    6  N3  UNL     1      24.680  -0.711  16.277  1.00  0.00    -0.197 NA
HETATM    7  C10 UNL     1      25.068   2.233  18.006  1.00  0.00     0.091 C 
HETATM    8  S2  UNL     1      24.146   1.354  19.278  1.00  0.00    -0.035 SA
HETATM    9  N4  UNL     1      24.947   3.496  17.883  1.00  0.00    -0.292 N 
ATOM     10  H4  UNL     1      24.325   4.004  18.511  1.00  0.00     0.187 HD
ENDROOT
BRANCH   1  11
HETATM   11  C5  UNL     1      25.269   5.507  16.541  1.00  0.00     0.126 A 
HETATM   12  C4  UNL     1      25.381   5.864  15.224  1.00  0.00     0.091 A 
HETATM   13  C3  UNL     1      25.017   7.142  14.858  1.00  0.00     0.105 A 
HETATM   14  N1  UNL     1      24.573   7.971  15.796  1.00  0.00    -0.337 N 
HETATM   15  S1  UNL     1      25.154   7.556  13.284  1.00  0.00    -0.060 SA
HETATM   16  C2  UNL     1      24.472   7.588  17.097  1.00  0.00     0.079 A 
ATOM     17  H1  UNL     1      24.302   8.919  15.535  1.00  0.00     0.168 HD
HETATM   18  C1  UNL     1      23.983   8.513  18.121  1.00  0.00     0.089 C 
HETATM   19  N5  UNL     1      24.826   6.329  17.488  1.00  0.00    -0.331 N 
ATOM     20  H5  UNL     1      24.754   6.032  18.461  1.00  0.00     0.168 HD
ENDBRANCH   1  11
TORSDOF 1
ENDMDL
