MODEL 1
REMARK VINA RESULT: -6.041681520      0.000      0.000
REMARK  5 active torsions:
REMARK  status: ('A' for Active; 'I' for Inactive)
REMARK    1  A    between atoms: C2_2  and  C3_3 
REMARK    2  A    between atoms: C3_3  and  S1_7 
REMARK    3  A    between atoms: S1_7  and  C4_8 
REMARK    4  A    between atoms: C4_8  and  O1_10 
REMARK    5  A    between atoms: O1_10  and  N2_11 
ROOT
HETATM    1  O1  UNL     1      24.334   5.825  18.298  1.00  0.00    -0.219 OA
ENDROOT
BRANCH   1   2
HETATM    2  C4  UNL     1      24.211   4.568  18.842  1.00  0.00     0.208 C 
HETATM    3  S2  UNL     1      23.063   4.351  19.984  1.00  0.00    -0.042 SA
BRANCH   2   4
HETATM    4  S1  UNL     1      25.202   3.180  18.395  1.00  0.00    -0.038 SA
BRANCH   4   5
HETATM    5  C3  UNL     1      24.804   2.445  16.841  1.00  0.00     0.047 C 
HETATM    6  N1  UNL     1      23.936   1.493  16.825  1.00  0.00    -0.397 N 
ATOM      7  H12 UNL     1      23.705   1.068  15.927  1.00  0.00     0.156 HD
ATOM      8  H11 UNL     1      23.493   1.177  17.688  1.00  0.00     0.156 HD
BRANCH   5   9
HETATM    9  C2  UNL     1      25.443   2.901  15.594  1.00  0.00     0.060 C 
HETATM   10  C1  UNL     1      26.896   3.300  15.766  1.00  0.00     0.012 C 
ENDBRANCH   5   9
ENDBRANCH   4   5
ENDBRANCH   2   4
ENDBRANCH   1   2
BRANCH   1  11
HETATM   11  N2  UNL     1      25.239   6.009  17.293  1.00  0.00    -0.265 N 
HETATM   12  C5  UNL     1      25.077   6.746  16.280  1.00  0.00     0.043 C 
HETATM   13  C6  UNL     1      23.838   7.518  16.065  1.00  0.00     0.327 C 
HETATM   14  C9  UNL     1      26.139   6.857  15.264  1.00  0.00     0.038 C 
HETATM   15  N3  UNL     1      24.033   8.229  14.806  1.00  0.00     0.093 N 
HETATM   16  C7  UNL     1      24.276   7.279  13.729  1.00  0.00     0.273 C 
HETATM   17  C11 UNL     1      25.199   9.098  14.865  1.00  0.00     0.273 C 
HETATM   18  C8  UNL     1      25.512   6.452  13.927  1.00  0.00     0.041 C 
HETATM   19  C10 UNL     1      26.457   8.364  15.214  1.00  0.00     0.041 C 
ATOM     20  H2  UNL     1      26.124   5.506  17.367  1.00  0.00     0.194 HD
ENDBRANCH   1  11
TORSDOF 5
ENDMDL
MODEL 2
REMARK VINA RESULT: -5.912527671      2.366      5.626
REMARK  5 active torsions:
REMARK  status: ('A' for Active; 'I' for Inactive)
REMARK    1  A    between atoms: C2_2  and  C3_3 
REMARK    2  A    between atoms: C3_3  and  S1_7 
REMARK    3  A    between atoms: S1_7  and  C4_8 
REMARK    4  A    between atoms: C4_8  and  O1_10 
REMARK    5  A    between atoms: O1_10  and  N2_11 
ROOT
HETATM    1  O1  UNL     1      25.018   6.508  18.029  1.00  0.00    -0.219 OA
ENDROOT
BRANCH   1   2
HETATM    2  C4  UNL     1      24.325   7.679  18.229  1.00  0.00     0.208 C 
HETATM    3  S2  UNL     1      23.990   8.101  19.771  1.00  0.00    -0.042 SA
BRANCH   2   4
HETATM    4  S1  UNL     1      23.777   8.752  16.942  1.00  0.00    -0.038 SA
BRANCH   4   5
HETATM    5  C3  UNL     1      24.143   8.207  15.304  1.00  0.00     0.047 C 
HETATM    6  N1  UNL     1      24.746   7.077  15.163  1.00  0.00    -0.397 N 
ATOM      7  H12 UNL     1      24.958   6.761  14.216  1.00  0.00     0.156 HD
ATOM      8  H11 UNL     1      25.002   6.517  15.976  1.00  0.00     0.156 HD
BRANCH   5   9
HETATM    9  C2  UNL     1      23.773   9.015  14.129  1.00  0.00     0.060 C 
HETATM   10  C1  UNL     1      24.083   8.341  12.806  1.00  0.00     0.012 C 
ENDBRANCH   5   9
ENDBRANCH   4   5
ENDBRANCH   2   4
ENDBRANCH   1   2
BRANCH   1  11
HETATM   11  N2  UNL     1      24.342   5.329  18.149  1.00  0.00    -0.265 N 
HETATM   12  C5  UNL     1      24.868   4.181  18.214  1.00  0.00     0.043 C 
HETATM   13  C6  UNL     1      26.329   3.986  18.165  1.00  0.00     0.327 C 
HETATM   14  C9  UNL     1      24.020   2.981  18.343  1.00  0.00     0.038 C 
HETATM   15  N3  UNL     1      26.536   2.545  18.265  1.00  0.00     0.093 N 
HETATM   16  C7  UNL     1      25.859   1.867  17.169  1.00  0.00     0.273 C 
HETATM   17  C11 UNL     1      25.969   2.015  19.497  1.00  0.00     0.273 C 
HETATM   18  C8  UNL     1      24.372   2.066  17.167  1.00  0.00     0.041 C 
HETATM   19  C10 UNL     1      24.508   2.312  19.642  1.00  0.00     0.041 C 
ATOM     20  H2  UNL     1      23.324   5.378  18.188  1.00  0.00     0.194 HD
ENDBRANCH   1  11
TORSDOF 5
ENDMDL
MODEL 3
REMARK VINA RESULT: -5.842271304      2.497      5.406
REMARK  5 active torsions:
REMARK  status: ('A' for Active; 'I' for Inactive)
REMARK    1  A    between atoms: C2_2  and  C3_3 
REMARK    2  A    between atoms: C3_3  and  S1_7 
REMARK    3  A    between atoms: S1_7  and  C4_8 
REMARK    4  A    between atoms: C4_8  and  O1_10 
REMARK    5  A    between atoms: O1_10  and  N2_11 
ROOT
HETATM    1  O1  UNL     1      24.491   6.551  17.521  1.00  0.00    -0.219 OA
ENDROOT
BRANCH   1   2
HETATM    2  C4  UNL     1      24.670   7.649  16.711  1.00  0.00     0.208 C 
HETATM    3  S2  UNL     1      23.659   8.914  16.925  1.00  0.00    -0.042 SA
BRANCH   2   4
HETATM    4  S1  UNL     1      25.909   7.784  15.465  1.00  0.00    -0.038 SA
BRANCH   4   5
HETATM    5  C3  UNL     1      25.604   6.850  13.999  1.00  0.00     0.047 C 
HETATM    6  N1  UNL     1      25.809   5.578  14.037  1.00  0.00    -0.397 N 
ATOM      7  H12 UNL     1      25.632   5.038  13.190  1.00  0.00     0.156 HD
ATOM      8  H11 UNL     1      26.138   5.129  14.892  1.00  0.00     0.156 HD
BRANCH   5   9
HETATM    9  C2  UNL     1      25.128   7.499  12.765  1.00  0.00     0.060 C 
HETATM   10  C1  UNL     1      24.025   8.514  12.999  1.00  0.00     0.012 C 
ENDBRANCH   5   9
ENDBRANCH   4   5
ENDBRANCH   2   4
ENDBRANCH   1   2
BRANCH   1  11
HETATM   11  N2  UNL     1      25.446   5.576  17.508  1.00  0.00    -0.265 N 
HETATM   12  C5  UNL     1      25.262   4.360  17.799  1.00  0.00     0.043 C 
HETATM   13  C6  UNL     1      23.940   3.844  18.203  1.00  0.00     0.327 C 
HETATM   14  C9  UNL     1      26.384   3.405  17.744  1.00  0.00     0.038 C 
HETATM   15  N3  UNL     1      24.136   2.419  18.454  1.00  0.00     0.093 N 
HETATM   16  C7  UNL     1      25.136   2.229  19.495  1.00  0.00     0.273 C 
HETATM   17  C11 UNL     1      24.635   1.738  17.268  1.00  0.00     0.273 C 
HETATM   18  C8  UNL     1      26.488   2.770  19.134  1.00  0.00     0.041 C 
HETATM   19  C10 UNL     1      25.912   2.325  16.751  1.00  0.00     0.041 C 
ATOM     20  H2  UNL     1      26.390   5.853  17.240  1.00  0.00     0.194 HD
ENDBRANCH   1  11
TORSDOF 5
ENDMDL
MODEL 4
REMARK VINA RESULT: -5.830844202      2.725      6.085
REMARK  5 active torsions:
REMARK  status: ('A' for Active; 'I' for Inactive)
REMARK    1  A    between atoms: C2_2  and  C3_3 
REMARK    2  A    between atoms: C3_3  and  S1_7 
REMARK    3  A    between atoms: S1_7  and  C4_8 
REMARK    4  A    between atoms: C4_8  and  O1_10 
REMARK    5  A    between atoms: O1_10  and  N2_11 
ROOT
HETATM    1  O1  UNL     1      25.320   6.326  16.733  1.00  0.00    -0.219 OA
ENDROOT
BRANCH   1   2
HETATM    2  C4  UNL     1      25.754   6.577  15.452  1.00  0.00     0.208 C 
HETATM    3  S2  UNL     1      26.215   5.296  14.550  1.00  0.00    -0.042 SA
BRANCH   2   4
HETATM    4  S1  UNL     1      25.847   8.178  14.721  1.00  0.00    -0.038 SA
BRANCH   4   5
HETATM    5  C3  UNL     1      24.328   8.792  14.065  1.00  0.00     0.047 C 
HETATM    6  N1  UNL     1      24.005   8.452  12.864  1.00  0.00    -0.397 N 
ATOM      7  H12 UNL     1      23.128   8.807  12.485  1.00  0.00     0.156 HD
ATOM      8  H11 UNL     1      24.612   7.846  12.314  1.00  0.00     0.156 HD
BRANCH   5   9
HETATM    9  C2  UNL     1      23.451   9.668  14.861  1.00  0.00     0.060 C 
HETATM   10  C1  UNL     1      23.443   9.337  16.341  1.00  0.00     0.012 C 
ENDBRANCH   5   9
ENDBRANCH   4   5
ENDBRANCH   2   4
ENDBRANCH   1   2
BRANCH   1  11
HETATM   11  N2  UNL     1      25.540   5.086  17.259  1.00  0.00    -0.265 N 
HETATM   12  C5  UNL     1      24.965   4.603  18.276  1.00  0.00     0.043 C 
HETATM   13  C6  UNL     1      23.952   5.361  19.035  1.00  0.00     0.327 C 
HETATM   14  C9  UNL     1      25.295   3.244  18.741  1.00  0.00     0.038 C 
HETATM   15  N3  UNL     1      23.534   4.479  20.119  1.00  0.00     0.093 N 
HETATM   16  C7  UNL     1      24.680   4.124  20.944  1.00  0.00     0.273 C 
HETATM   17  C11 UNL     1      22.989   3.232  19.604  1.00  0.00     0.273 C 
HETATM   18  C8  UNL     1      25.747   3.377  20.199  1.00  0.00     0.041 C 
HETATM   19  C10 UNL     1      23.947   2.498  18.716  1.00  0.00     0.041 C 
ATOM     20  H2  UNL     1      26.229   4.497  16.790  1.00  0.00     0.194 HD
ENDBRANCH   1  11
TORSDOF 5
ENDMDL
MODEL 5
REMARK VINA RESULT: -5.778828221      2.288      5.805
REMARK  5 active torsions:
REMARK  status: ('A' for Active; 'I' for Inactive)
REMARK    1  A    between atoms: C2_2  and  C3_3 
REMARK    2  A    between atoms: C3_3  and  S1_7 
REMARK    3  A    between atoms: S1_7  and  C4_8 
REMARK    4  A    between atoms: C4_8  and  O1_10 
REMARK    5  A    between atoms: O1_10  and  N2_11 
ROOT
HETATM    1  O1  UNL     1      24.533   6.065  18.672  1.00  0.00    -0.219 OA
ENDROOT
BRANCH   1   2
HETATM    2  C4  UNL     1      24.492   6.994  17.658  1.00  0.00     0.208 C 
HETATM    3  S2  UNL     1      23.995   8.502  18.041  1.00  0.00    -0.042 SA
BRANCH   2   4
HETATM    4  S1  UNL     1      24.935   6.671  15.983  1.00  0.00    -0.038 SA
BRANCH   4   5
HETATM    5  C3  UNL     1      25.274   8.102  15.008  1.00  0.00     0.047 C 
HETATM    6  N1  UNL     1      26.491   8.523  14.954  1.00  0.00    -0.397 N 
ATOM      7  H12 UNL     1      26.688   9.350  14.390  1.00  0.00     0.156 HD
ATOM      8  H11 UNL     1      27.233   8.041  15.461  1.00  0.00     0.156 HD
BRANCH   5   9
HETATM    9  C2  UNL     1      24.203   8.799  14.275  1.00  0.00     0.060 C 
HETATM   10  C1  UNL     1      24.072   8.360  12.829  1.00  0.00     0.012 C 
ENDBRANCH   5   9
ENDBRANCH   4   5
ENDBRANCH   2   4
ENDBRANCH   1   2
BRANCH   1  11
HETATM   11  N2  UNL     1      25.479   5.083  18.609  1.00  0.00    -0.265 N 
HETATM   12  C5  UNL     1      25.250   3.842  18.535  1.00  0.00     0.043 C 
HETATM   13  C6  UNL     1      23.878   3.301  18.508  1.00  0.00     0.327 C 
HETATM   14  C9  UNL     1      26.367   2.882  18.472  1.00  0.00     0.038 C 
HETATM   15  N3  UNL     1      24.030   1.852  18.421  1.00  0.00     0.093 N 
HETATM   16  C7  UNL     1      24.787   1.361  19.564  1.00  0.00     0.273 C 
HETATM   17  C11 UNL     1      24.777   1.470  17.231  1.00  0.00     0.273 C 
HETATM   18  C8  UNL     1      26.179   1.913  19.644  1.00  0.00     0.041 C 
HETATM   19  C10 UNL     1      26.129   2.110  17.160  1.00  0.00     0.041 C 
ATOM     20  H2  UNL     1      26.456   5.376  18.624  1.00  0.00     0.194 HD
ENDBRANCH   1  11
TORSDOF 5
ENDMDL
