MODEL 1
REMARK VINA RESULT: -6.768930269      0.000      0.000
REMARK  3 active torsions:
REMARK  status: ('A' for Active; 'I' for Inactive)
REMARK    1  A    between atoms: C2_2  and  O1_3 
REMARK    2  A    between atoms: O1_3  and  C3_4 
REMARK       I    between atoms: C3_4  and  N1_6 
REMARK    3  A    between atoms: N1_6  and  C4_8 
ROOT
HETATM    1  C4  UNL     1      25.101   6.437  16.932  1.00  0.00     0.132 A 
HETATM    2  N2  UNL     1      24.553   6.332  18.154  1.00  0.00    -0.284 N 
ATOM      3  H2  UNL     1      24.244   7.157  18.669  1.00  0.00     0.188 HD
HETATM    4  N3  UNL     1      24.430   5.122  18.663  1.00  0.00    -0.290 N 
ATOM      5  H3  UNL     1      24.017   5.012  19.589  1.00  0.00     0.187 HD
HETATM    6  C5  UNL     1      24.843   4.008  17.980  1.00  0.00     0.119 A 
HETATM    7  S1  UNL     1      24.840   2.333  18.318  1.00  0.00    -0.039 SA
HETATM    8  C6  UNL     1      25.550   1.787  16.869  1.00  0.00     0.145 A 
HETATM    9  S2  UNL     1      25.907   0.239  16.394  1.00  0.00    -0.052 SA
HETATM   10  N4  UNL     1      25.760   2.907  16.187  1.00  0.00    -0.339 N 
ATOM     11  H4  UNL     1      26.186   2.886  15.260  1.00  0.00     0.167 HD
HETATM   12  C7  UNL     1      25.403   4.049  16.742  1.00  0.00     0.079 A 
HETATM   13  C8  UNL     1      25.534   5.338  16.200  1.00  0.00     0.013 A 
HETATM   14  C9  UNL     1      26.118   5.586  14.872  1.00  0.00     0.055 C 
ENDROOT
BRANCH   1  15
HETATM   15  N1  UNL     1      25.236   7.632  16.398  1.00  0.00    -0.287 N 
HETATM   16  C3  UNL     1      24.066   8.423  16.282  1.00  0.00     0.366 C 
HETATM   17  O2  UNL     1      23.625   9.085  17.254  1.00  0.00    -0.238 OA
ATOM     18  H1  UNL     1      26.143   7.975  16.083  1.00  0.00     0.172 HD
BRANCH  16  19
HETATM   19  O1  UNL     1      23.336   8.514  15.086  1.00  0.00    -0.304 OA
BRANCH  19  20
HETATM   20  C2  UNL     1      23.870   9.135  13.933  1.00  0.00     0.176 C 
HETATM   21  C1  UNL     1      24.217   8.148  12.859  1.00  0.00     0.034 C 
ENDBRANCH  19  20
ENDBRANCH  16  19
ENDBRANCH   1  15
TORSDOF 3
ENDMDL
MODEL 2
REMARK VINA RESULT: -6.667244470      2.278      2.768
REMARK  3 active torsions:
REMARK  status: ('A' for Active; 'I' for Inactive)
REMARK    1  A    between atoms: C2_2  and  O1_3 
REMARK    2  A    between atoms: O1_3  and  C3_4 
REMARK       I    between atoms: C3_4  and  N1_6 
REMARK    3  A    between atoms: N1_6  and  C4_8 
ROOT
HETATM    1  C4  UNL     1      25.533   4.750  16.466  1.00  0.00     0.132 A 
HETATM    2  N2  UNL     1      25.246   5.795  17.260  1.00  0.00    -0.284 N 
ATOM      3  H2  UNL     1      25.528   6.743  17.010  1.00  0.00     0.188 HD
HETATM    4  N3  UNL     1      24.586   5.549  18.375  1.00  0.00    -0.290 N 
ATOM      5  H3  UNL     1      24.354   6.324  18.996  1.00  0.00     0.187 HD
HETATM    6  C5  UNL     1      24.204   4.279  18.719  1.00  0.00     0.119 A 
HETATM    7  S1  UNL     1      23.362   3.606  20.045  1.00  0.00    -0.039 SA
HETATM    8  C6  UNL     1      23.391   1.975  19.555  1.00  0.00     0.145 A 
HETATM    9  S2  UNL     1      22.766   0.640  20.315  1.00  0.00    -0.052 SA
HETATM   10  N4  UNL     1      24.043   2.013  18.398  1.00  0.00    -0.339 N 
ATOM     11  H4  UNL     1      24.214   1.160  17.865  1.00  0.00     0.167 HD
HETATM   12  C7  UNL     1      24.463   3.183  17.959  1.00  0.00     0.079 A 
HETATM   13  C8  UNL     1      25.166   3.445  16.771  1.00  0.00     0.013 A 
HETATM   14  C9  UNL     1      25.540   2.387  15.819  1.00  0.00     0.055 C 
ENDROOT
BRANCH   1  15
HETATM   15  N1  UNL     1      26.190   4.966  15.347  1.00  0.00    -0.287 N 
HETATM   16  C3  UNL     1      25.983   6.213  14.707  1.00  0.00     0.366 C 
HETATM   17  O2  UNL     1      26.597   7.246  15.075  1.00  0.00    -0.238 OA
ATOM     18  H1  UNL     1      26.822   4.266  14.957  1.00  0.00     0.172 HD
BRANCH  16  19
HETATM   19  O1  UNL     1      25.092   6.369  13.634  1.00  0.00    -0.304 OA
BRANCH  19  20
HETATM   20  C2  UNL     1      25.153   7.488  12.772  1.00  0.00     0.176 C 
HETATM   21  C1  UNL     1      24.028   8.452  13.002  1.00  0.00     0.034 C 
ENDBRANCH  19  20
ENDBRANCH  16  19
ENDBRANCH   1  15
TORSDOF 3
ENDMDL
MODEL 3
REMARK VINA RESULT: -6.486258309      1.874      2.093
REMARK  3 active torsions:
REMARK  status: ('A' for Active; 'I' for Inactive)
REMARK    1  A    between atoms: C2_2  and  O1_3 
REMARK    2  A    between atoms: O1_3  and  C3_4 
REMARK       I    between atoms: C3_4  and  N1_6 
REMARK    3  A    between atoms: N1_6  and  C4_8 
ROOT
HETATM    1  C4  UNL     1      25.227   6.190  16.472  1.00  0.00     0.132 A 
HETATM    2  N2  UNL     1      24.698   6.978  17.422  1.00  0.00    -0.284 N 
ATOM      3  H2  UNL     1      24.388   7.927  17.211  1.00  0.00     0.188 HD
HETATM    4  N3  UNL     1      24.594   6.479  18.639  1.00  0.00    -0.290 N 
ATOM      5  H3  UNL     1      24.196   7.056  19.380  1.00  0.00     0.187 HD
HETATM    6  C5  UNL     1      25.008   5.207  18.932  1.00  0.00     0.119 A 
HETATM    7  S1  UNL     1      25.028   4.257  20.352  1.00  0.00    -0.039 SA
HETATM    8  C6  UNL     1      25.722   2.846  19.698  1.00  0.00     0.145 A 
HETATM    9  S2  UNL     1      26.088   1.412  20.446  1.00  0.00    -0.052 SA
HETATM   10  N4  UNL     1      25.911   3.159  18.421  1.00  0.00    -0.339 N 
ATOM     11  H4  UNL     1      26.322   2.489  17.771  1.00  0.00     0.167 HD
HETATM   12  C7  UNL     1      25.550   4.361  18.016  1.00  0.00     0.079 A 
HETATM   13  C8  UNL     1      25.659   4.893  16.720  1.00  0.00     0.013 A 
HETATM   14  C9  UNL     1      26.221   4.131  15.594  1.00  0.00     0.055 C 
ENDROOT
BRANCH   1  15
HETATM   15  N1  UNL     1      25.341   6.661  15.249  1.00  0.00    -0.287 N 
HETATM   16  C3  UNL     1      25.683   8.029  15.113  1.00  0.00     0.366 C 
HETATM   17  O2  UNL     1      26.875   8.416  15.200  1.00  0.00    -0.238 OA
ATOM     18  H1  UNL     1      25.191   6.066  14.434  1.00  0.00     0.172 HD
BRANCH  16  19
HETATM   19  O1  UNL     1      24.722   9.024  14.876  1.00  0.00    -0.304 OA
BRANCH  19  20
HETATM   20  C2  UNL     1      23.619   8.805  14.018  1.00  0.00     0.176 C 
HETATM   21  C1  UNL     1      24.039   8.400  12.636  1.00  0.00     0.034 C 
ENDBRANCH  19  20
ENDBRANCH  16  19
ENDBRANCH   1  15
TORSDOF 3
ENDMDL
MODEL 4
REMARK VINA RESULT: -6.480702171      3.986      6.221
REMARK  3 active torsions:
REMARK  status: ('A' for Active; 'I' for Inactive)
REMARK    1  A    between atoms: C2_2  and  O1_3 
REMARK    2  A    between atoms: O1_3  and  C3_4 
REMARK       I    between atoms: C3_4  and  N1_6 
REMARK    3  A    between atoms: N1_6  and  C4_8 
ROOT
HETATM    1  C4  UNL     1      26.278   3.911  16.512  1.00  0.00     0.132 A 
HETATM    2  N2  UNL     1      26.761   3.700  15.277  1.00  0.00    -0.284 N 
ATOM      3  H2  UNL     1      27.283   2.853  15.050  1.00  0.00     0.188 HD
HETATM    4  N3  UNL     1      26.535   4.629  14.368  1.00  0.00    -0.290 N 
ATOM      5  H3  UNL     1      26.890   4.494  13.421  1.00  0.00     0.187 HD
HETATM    6  C5  UNL     1      25.837   5.769  14.663  1.00  0.00     0.119 A 
HETATM    7  S1  UNL     1      25.367   7.146  13.767  1.00  0.00    -0.039 SA
HETATM    8  C6  UNL     1      24.548   7.981  15.005  1.00  0.00     0.145 A 
HETATM    9  S2  UNL     1      23.778   9.449  14.949  1.00  0.00    -0.052 SA
HETATM   10  N4  UNL     1      24.668   7.173  16.053  1.00  0.00    -0.339 N 
ATOM     11  H4  UNL     1      24.264   7.422  16.956  1.00  0.00     0.167 HD
HETATM   12  C7  UNL     1      25.323   6.040  15.892  1.00  0.00     0.079 A 
HETATM   13  C8  UNL     1      25.563   5.050  16.860  1.00  0.00     0.013 A 
HETATM   14  C9  UNL     1      25.087   5.164  18.248  1.00  0.00     0.055 C 
ENDROOT
BRANCH   1  15
HETATM   15  N1  UNL     1      26.488   3.001  17.439  1.00  0.00    -0.287 N 
HETATM   16  C3  UNL     1      25.819   1.760  17.288  1.00  0.00     0.366 C 
HETATM   17  O2  UNL     1      26.271   0.862  16.535  1.00  0.00    -0.238 OA
ATOM     18  H1  UNL     1      27.105   3.180  18.231  1.00  0.00     0.172 HD
BRANCH  16  19
HETATM   19  O1  UNL     1      24.626   1.462  17.965  1.00  0.00    -0.304 OA
BRANCH  19  20
HETATM   20  C2  UNL     1      24.502   1.626  19.364  1.00  0.00     0.176 C 
HETATM   21  C1  UNL     1      23.229   2.321  19.750  1.00  0.00     0.034 C 
ENDBRANCH  19  20
ENDBRANCH  16  19
ENDBRANCH   1  15
TORSDOF 3
ENDMDL
MODEL 5
REMARK VINA RESULT: -6.462259161      1.494      1.918
REMARK  3 active torsions:
REMARK  status: ('A' for Active; 'I' for Inactive)
REMARK    1  A    between atoms: C2_2  and  O1_3 
REMARK    2  A    between atoms: O1_3  and  C3_4 
REMARK       I    between atoms: C3_4  and  N1_6 
REMARK    3  A    between atoms: N1_6  and  C4_8 
ROOT
HETATM    1  C4  UNL     1      25.109   7.681  16.130  1.00  0.00     0.132 A 
HETATM    2  N2  UNL     1      24.441   8.122  17.208  1.00  0.00    -0.284 N 
ATOM      3  H2  UNL     1      24.125   9.089  17.277  1.00  0.00     0.188 HD
HETATM    4  N3  UNL     1      24.208   7.256  18.176  1.00  0.00    -0.290 N 
ATOM      5  H3  UNL     1      23.701   7.563  19.006  1.00  0.00     0.187 HD
HETATM    6  C5  UNL     1      24.628   5.955  18.094  1.00  0.00     0.119 A 
HETATM    7  S1  UNL     1      24.508   4.596  19.123  1.00  0.00    -0.039 SA
HETATM    8  C6  UNL     1      25.327   3.469  18.142  1.00  0.00     0.145 A 
HETATM    9  S2  UNL     1      25.650   1.868  18.428  1.00  0.00    -0.052 SA
HETATM   10  N4  UNL     1      25.659   4.179  17.069  1.00  0.00    -0.339 N 
ATOM     11  H4  UNL     1      26.170   3.752  16.296  1.00  0.00     0.167 HD
HETATM   12  C7  UNL     1      25.308   5.449  17.031  1.00  0.00     0.079 A 
HETATM   13  C8  UNL     1      25.555   6.371  16.000  1.00  0.00     0.013 A 
HETATM   14  C9  UNL     1      26.277   6.012  14.769  1.00  0.00     0.055 C 
ENDROOT
BRANCH   1  15
HETATM   15  N1  UNL     1      25.355   8.522  15.149  1.00  0.00    -0.287 N 
HETATM   16  C3  UNL     1      24.237   9.059  14.464  1.00  0.00     0.366 C 
HETATM   17  O2  UNL     1      23.597  10.037  14.924  1.00  0.00    -0.238 OA
ATOM     18  H1  UNL     1      26.309   8.777  14.893  1.00  0.00     0.172 HD
BRANCH  16  19
HETATM   19  O1  UNL     1      23.782   8.538  13.242  1.00  0.00    -0.304 OA
BRANCH  19  20
HETATM   20  C2  UNL     1      24.644   7.844  12.362  1.00  0.00     0.176 C 
HETATM   21  C1  UNL     1      24.167   7.886  10.940  1.00  0.00     0.034 C 
ENDBRANCH  19  20
ENDBRANCH  16  19
ENDBRANCH   1  15
TORSDOF 3
ENDMDL
