MODEL 1
REMARK VINA RESULT: -6.055755970      0.000      0.000
REMARK  6 active torsions:
REMARK  status: ('A' for Active; 'I' for Inactive)
REMARK    1  A    between atoms: C2_2  and  N2_6 
REMARK    2  A    between atoms: N2_6  and  N3_8 
REMARK    3  A    between atoms: C3_10  and  N4_11 
REMARK    4  A    between atoms: C3_10  and  S1_18 
REMARK    5  A    between atoms: S1_18  and  S2_19 
REMARK    6  A    between atoms: S2_19  and  C8_20 
ROOT
HETATM    1  N3  UNL     1      23.169   6.647  18.396  1.00  0.00    -0.278 N 
ATOM      2  H3  UNL     1      23.437   5.804  17.888  1.00  0.00     0.189 HD
HETATM    3  C3  UNL     1      23.328   6.721  19.660  1.00  0.00     0.172 C 
ENDROOT
BRANCH   3   4
HETATM    4  N4  UNL     1      22.956   7.887  20.352  1.00  0.00    -0.319 N 
HETATM    5  C4  UNL     1      22.197   7.793  21.383  1.00  0.00     0.119 C 
HETATM    6  C5  UNL     1      21.651   6.534  21.941  1.00  0.00     0.086 C 
HETATM    7  O1  UNL     1      21.742   8.839  22.171  1.00  0.00    -0.339 OA
HETATM    8  C6  UNL     1      21.401   6.957  23.395  1.00  0.00     0.035 C 
HETATM    9  C7  UNL     1      20.840   8.366  23.160  1.00  0.00     0.177 C 
ATOM     10  H4  UNL     1      23.287   8.799  20.038  1.00  0.00     0.169 HD
ENDBRANCH   3   4
BRANCH   3  11
HETATM   11  S1  UNL     1      24.025   5.314  20.496  1.00  0.00    -0.012 SA
BRANCH  11  12
HETATM   12  S2  UNL     1      23.132   3.567  19.690  1.00  0.00    -0.017 SA
BRANCH  12  13
HETATM   13  C8  UNL     1      24.006   3.141  18.205  1.00  0.00     0.159 C 
HETATM   14  N5  UNL     1      23.825   2.003  17.667  1.00  0.00    -0.382 N 
ATOM     15  H52 UNL     1      23.172   1.356  18.108  1.00  0.00     0.157 HD
ATOM     16  H51 UNL     1      24.328   1.758  16.814  1.00  0.00     0.157 HD
HETATM   17  N6  UNL     1      24.918   4.046  17.588  1.00  0.00    -0.074 NA
ENDBRANCH  12  13
ENDBRANCH  11  12
ENDBRANCH   3  11
BRANCH   1  18
HETATM   18  N2  UNL     1      22.624   7.739  17.723  1.00  0.00    -0.288 N 
ATOM     19  H2  UNL     1      21.774   8.198  18.049  1.00  0.00     0.188 HD
BRANCH  18  20
HETATM   20  C2  UNL     1      23.319   8.188  16.547  1.00  0.00     0.085 C 
HETATM   21  C1  UNL     1      22.773   9.216  15.649  1.00  0.00     0.090 C 
HETATM   22  N1  UNL     1      24.452   7.643  16.313  1.00  0.00    -0.388 N 
ATOM     23  H12 UNL     1      24.945   7.962  15.479  1.00  0.00     0.157 HD
ATOM     24  H11 UNL     1      24.830   6.930  16.937  1.00  0.00     0.157 HD
ENDBRANCH  18  20
ENDBRANCH   1  18
TORSDOF 6
ENDMDL
MODEL 2
REMARK VINA RESULT: -6.050409298      2.784      5.372
REMARK  6 active torsions:
REMARK  status: ('A' for Active; 'I' for Inactive)
REMARK    1  A    between atoms: C2_2  and  N2_6 
REMARK    2  A    between atoms: N2_6  and  N3_8 
REMARK    3  A    between atoms: C3_10  and  N4_11 
REMARK    4  A    between atoms: C3_10  and  S1_18 
REMARK    5  A    between atoms: S1_18  and  S2_19 
REMARK    6  A    between atoms: S2_19  and  C8_20 
ROOT
HETATM    1  N3  UNL     1      22.051   8.192  22.081  1.00  0.00    -0.278 N 
ATOM      2  H3  UNL     1      22.717   7.659  22.641  1.00  0.00     0.189 HD
HETATM    3  C3  UNL     1      21.940   7.979  20.828  1.00  0.00     0.172 C 
ENDROOT
BRANCH   3   4
HETATM    4  N4  UNL     1      21.019   8.719  20.065  1.00  0.00    -0.319 N 
HETATM    5  C4  UNL     1      21.309   9.029  18.855  1.00  0.00     0.119 C 
HETATM    6  C5  UNL     1      22.564   8.674  18.149  1.00  0.00     0.086 C 
HETATM    7  O1  UNL     1      20.517   9.749  17.974  1.00  0.00    -0.339 OA
HETATM    8  C6  UNL     1      22.092   8.734  16.691  1.00  0.00     0.035 C 
HETATM    9  C7  UNL     1      21.208   9.988  16.758  1.00  0.00     0.177 C 
ATOM     10  H4  UNL     1      20.128   9.006  20.471  1.00  0.00     0.169 HD
ENDBRANCH   3   4
BRANCH   3  11
HETATM   11  S1  UNL     1      22.977   6.732  20.099  1.00  0.00    -0.012 SA
BRANCH  11  12
HETATM   12  S2  UNL     1      23.179   5.151  21.500  1.00  0.00    -0.017 SA
BRANCH  12  13
HETATM   13  C8  UNL     1      22.453   3.696  20.792  1.00  0.00     0.159 C 
HETATM   14  N5  UNL     1      22.876   3.255  19.676  1.00  0.00    -0.382 N 
ATOM     15  H52 UNL     1      23.633   3.756  19.211  1.00  0.00     0.157 HD
ATOM     16  H51 UNL     1      22.458   2.418  19.269  1.00  0.00     0.157 HD
HETATM   17  N6  UNL     1      21.396   2.994  21.442  1.00  0.00    -0.074 NA
ENDBRANCH  12  13
ENDBRANCH  11  12
ENDBRANCH   3  11
BRANCH   1  18
HETATM   18  N2  UNL     1      21.247   9.165  22.672  1.00  0.00    -0.288 N 
ATOM     19  H2  UNL     1      21.027  10.039  22.194  1.00  0.00     0.188 HD
BRANCH  18  20
HETATM   20  C2  UNL     1      20.741   8.879  23.987  1.00  0.00     0.085 C 
HETATM   21  C1  UNL     1      20.975   7.596  24.663  1.00  0.00     0.090 C 
HETATM   22  N1  UNL     1      20.066   9.808  24.551  1.00  0.00    -0.388 N 
ATOM     23  H12 UNL     1      19.708   9.605  25.484  1.00  0.00     0.157 HD
ATOM     24  H11 UNL     1      19.904  10.699  24.081  1.00  0.00     0.157 HD
ENDBRANCH  18  20
ENDBRANCH   1  18
TORSDOF 6
ENDMDL
MODEL 3
REMARK VINA RESULT: -6.029357649      5.955      7.033
REMARK  6 active torsions:
REMARK  status: ('A' for Active; 'I' for Inactive)
REMARK    1  A    between atoms: C2_2  and  N2_6 
REMARK    2  A    between atoms: N2_6  and  N3_8 
REMARK    3  A    between atoms: C3_10  and  N4_11 
REMARK    4  A    between atoms: C3_10  and  S1_18 
REMARK    5  A    between atoms: S1_18  and  S2_19 
REMARK    6  A    between atoms: S2_19  and  C8_20 
ROOT
HETATM    1  N3  UNL     1      25.594   1.597  15.848  1.00  0.00    -0.278 N 
ATOM      2  H3  UNL     1      25.286   1.265  14.933  1.00  0.00     0.189 HD
HETATM    3  C3  UNL     1      26.164   0.804  16.668  1.00  0.00     0.172 C 
ENDROOT
BRANCH   3   4
HETATM    4  N4  UNL     1      26.585   1.271  17.926  1.00  0.00    -0.319 N 
HETATM    5  C4  UNL     1      25.810   1.137  18.939  1.00  0.00     0.119 C 
HETATM    6  C5  UNL     1      24.464   0.518  18.921  1.00  0.00     0.086 C 
HETATM    7  O1  UNL     1      26.073   1.542  20.239  1.00  0.00    -0.339 OA
HETATM    8  C6  UNL     1      24.331   0.092  20.390  1.00  0.00     0.035 C 
HETATM    9  C7  UNL     1      24.943   1.324  21.071  1.00  0.00     0.177 C 
ATOM     10  H4  UNL     1      27.499   1.712  18.031  1.00  0.00     0.169 HD
ENDBRANCH   3   4
BRANCH   3  11
HETATM   11  S1  UNL     1      26.400  -0.886  16.167  1.00  0.00    -0.012 SA
BRANCH  11  12
HETATM   12  S2  UNL     1      28.422  -1.112  15.565  1.00  0.00    -0.017 SA
BRANCH  12  13
HETATM   13  C8  UNL     1      28.883   0.334  14.645  1.00  0.00     0.159 C 
HETATM   14  N5  UNL     1      28.538   0.448  13.427  1.00  0.00    -0.382 N 
ATOM     15  H52 UNL     1      27.996  -0.305  13.003  1.00  0.00     0.157 HD
ATOM     16  H51 UNL     1      28.803   1.279  12.899  1.00  0.00     0.157 HD
HETATM   17  N6  UNL     1      29.639   1.388  15.238  1.00  0.00    -0.074 NA
ENDBRANCH  12  13
ENDBRANCH  11  12
ENDBRANCH   3  11
BRANCH   1  18
HETATM   18  N2  UNL     1      25.401   2.926  16.222  1.00  0.00    -0.288 N 
ATOM     19  H2  UNL     1      24.821   3.177  17.022  1.00  0.00     0.188 HD
BRANCH  18  20
HETATM   20  C2  UNL     1      26.059   3.926  15.426  1.00  0.00     0.085 C 
HETATM   21  C1  UNL     1      25.378   5.141  14.958  1.00  0.00     0.090 C 
HETATM   22  N1  UNL     1      27.286   3.707  15.140  1.00  0.00    -0.388 N 
ATOM     23  H12 UNL     1      27.754   4.417  14.575  1.00  0.00     0.157 HD
ATOM     24  H11 UNL     1      27.760   2.864  15.465  1.00  0.00     0.157 HD
ENDBRANCH  18  20
ENDBRANCH   1  18
TORSDOF 6
ENDMDL
MODEL 4
REMARK VINA RESULT: -6.024068740      2.605      6.085
REMARK  6 active torsions:
REMARK  status: ('A' for Active; 'I' for Inactive)
REMARK    1  A    between atoms: C2_2  and  N2_6 
REMARK    2  A    between atoms: N2_6  and  N3_8 
REMARK    3  A    between atoms: C3_10  and  N4_11 
REMARK    4  A    between atoms: C3_10  and  S1_18 
REMARK    5  A    between atoms: S1_18  and  S2_19 
REMARK    6  A    between atoms: S2_19  and  C8_20 
ROOT
HETATM    1  N3  UNL     1      23.165   5.603  19.489  1.00  0.00    -0.278 N 
ATOM      2  H3  UNL     1      22.633   5.373  20.328  1.00  0.00     0.189 HD
HETATM    3  C3  UNL     1      23.292   6.816  19.113  1.00  0.00     0.172 C 
ENDROOT
BRANCH   3   4
HETATM    4  N4  UNL     1      24.027   7.123  17.954  1.00  0.00    -0.319 N 
HETATM    5  C4  UNL     1      23.478   7.815  17.024  1.00  0.00     0.119 C 
HETATM    6  C5  UNL     1      22.094   8.346  17.046  1.00  0.00     0.086 C 
HETATM    7  O1  UNL     1      24.061   8.201  15.827  1.00  0.00    -0.339 OA
HETATM    8  C6  UNL     1      22.229   9.521  16.069  1.00  0.00     0.035 C 
HETATM    9  C7  UNL     1      23.118   8.868  15.002  1.00  0.00     0.177 C 
ATOM     10  H4  UNL     1      24.989   6.798  17.854  1.00  0.00     0.169 HD
ENDBRANCH   3   4
BRANCH   3  11
HETATM   11  S1  UNL     1      22.516   8.079  20.095  1.00  0.00    -0.012 SA
BRANCH  11  12
HETATM   12  S2  UNL     1      21.796   7.172  21.873  1.00  0.00    -0.017 SA
BRANCH  12  13
HETATM   13  C8  UNL     1      21.236   8.461  22.957  1.00  0.00     0.159 C 
HETATM   14  N5  UNL     1      21.655   9.651  22.795  1.00  0.00    -0.382 N 
ATOM     15  H52 UNL     1      22.310   9.836  22.036  1.00  0.00     0.157 HD
ATOM     16  H51 UNL     1      21.333  10.391  23.419  1.00  0.00     0.157 HD
HETATM   17  N6  UNL     1      20.320   8.201  24.018  1.00  0.00    -0.074 NA
ENDBRANCH  12  13
ENDBRANCH  11  12
ENDBRANCH   3  11
BRANCH   1  18
HETATM   18  N2  UNL     1      23.767   4.598  18.732  1.00  0.00    -0.288 N 
ATOM     19  H2  UNL     1      24.493   4.807  18.048  1.00  0.00     0.188 HD
BRANCH  18  20
HETATM   20  C2  UNL     1      23.315   3.253  18.965  1.00  0.00     0.085 C 
HETATM   21  C1  UNL     1      22.633   2.849  20.201  1.00  0.00     0.090 C 
HETATM   22  N1  UNL     1      23.539   2.410  18.029  1.00  0.00    -0.388 N 
ATOM     23  H12 UNL     1      23.219   1.456  18.194  1.00  0.00     0.157 HD
ATOM     24  H11 UNL     1      24.013   2.690  17.171  1.00  0.00     0.157 HD
ENDBRANCH  18  20
ENDBRANCH   1  18
TORSDOF 6
ENDMDL
MODEL 5
REMARK VINA RESULT: -6.018352148      1.434      1.554
REMARK  6 active torsions:
REMARK  status: ('A' for Active; 'I' for Inactive)
REMARK    1  A    between atoms: C2_2  and  N2_6 
REMARK    2  A    between atoms: N2_6  and  N3_8 
REMARK    3  A    between atoms: C3_10  and  N4_11 
REMARK    4  A    between atoms: C3_10  and  S1_18 
REMARK    5  A    between atoms: S1_18  and  S2_19 
REMARK    6  A    between atoms: S2_19  and  C8_20 
ROOT
HETATM    1  N3  UNL     1      23.008   6.860  18.413  1.00  0.00    -0.278 N 
ATOM      2  H3  UNL     1      23.233   6.034  17.858  1.00  0.00     0.189 HD
HETATM    3  C3  UNL     1      23.217   6.873  19.672  1.00  0.00     0.172 C 
ENDROOT
BRANCH   3   4
HETATM    4  N4  UNL     1      22.904   8.017  20.427  1.00  0.00    -0.319 N 
HETATM    5  C4  UNL     1      22.156   7.901  21.464  1.00  0.00     0.119 C 
HETATM    6  C5  UNL     1      21.566   6.638  21.966  1.00  0.00     0.086 C 
HETATM    7  O1  UNL     1      21.755   8.923  22.311  1.00  0.00    -0.339 OA
HETATM    8  C6  UNL     1      21.354   6.995  23.443  1.00  0.00     0.035 C 
HETATM    9  C7  UNL     1      20.848   8.437  23.289  1.00  0.00     0.177 C 
ATOM     10  H4  UNL     1      23.267   8.930  20.154  1.00  0.00     0.169 HD
ENDBRANCH   3   4
BRANCH   3  11
HETATM   11  S1  UNL     1      23.909   5.414  20.417  1.00  0.00    -0.012 SA
BRANCH  11  12
HETATM   12  S2  UNL     1      23.376   3.751  19.213  1.00  0.00    -0.017 SA
BRANCH  12  13
HETATM   13  C8  UNL     1      22.396   2.651  20.202  1.00  0.00     0.159 C 
HETATM   14  N5  UNL     1      22.320   1.419  19.895  1.00  0.00    -0.382 N 
ATOM     15  H52 UNL     1      22.833   1.090  19.077  1.00  0.00     0.157 HD
ATOM     16  H51 UNL     1      21.757   0.788  20.464  1.00  0.00     0.157 HD
HETATM   17  N6  UNL     1      21.680   3.111  21.346  1.00  0.00    -0.074 NA
ENDBRANCH  12  13
ENDBRANCH  11  12
ENDBRANCH   3  11
BRANCH   1  18
HETATM   18  N2  UNL     1      22.467   7.994  17.809  1.00  0.00    -0.288 N 
ATOM     19  H2  UNL     1      21.713   8.523  18.247  1.00  0.00     0.188 HD
BRANCH  18  20
HETATM   20  C2  UNL     1      23.022   8.382  16.542  1.00  0.00     0.085 C 
HETATM   21  C1  UNL     1      22.483   9.494  15.748  1.00  0.00     0.090 C 
HETATM   22  N1  UNL     1      24.024   7.702  16.129  1.00  0.00    -0.388 N 
ATOM     23  H12 UNL     1      24.418   7.978  15.229  1.00  0.00     0.157 HD
ATOM     24  H11 UNL     1      24.399   6.930  16.680  1.00  0.00     0.157 HD
ENDBRANCH  18  20
ENDBRANCH   1  18
TORSDOF 6
ENDMDL
