MODEL 1
REMARK VINA RESULT: -6.636439514      0.000      0.000
REMARK  6 active torsions:
REMARK  status: ('A' for Active; 'I' for Inactive)
REMARK    1  A    between atoms: C3_3  and  O1_4 
REMARK    2  A    between atoms: O1_4  and  C4_5 
REMARK    3  A    between atoms: C4_5  and  C5_9 
REMARK    4  A    between atoms: C5_9  and  O2_10 
REMARK    5  A    between atoms: N2_12  and  O3_14 
REMARK    6  A    between atoms: C12_24  and  O6_25 
ROOT
HETATM    1  C1  UNL     1      24.725  -0.694  18.876  1.00  0.00     0.015 C 
HETATM    2  C2  UNL     1      25.346   0.036  18.134  1.00  0.00    -0.073 C 
HETATM    3  C3  UNL     1      26.137   0.928  17.226  1.00  0.00     0.184 C 
HETATM    4  C6  UNL     1      25.141   1.396  16.216  1.00  0.00     0.231 C 
HETATM    5  O4  UNL     1      24.104   2.059  16.971  1.00  0.00    -0.344 OA
HETATM    6  C7  UNL     1      24.384   2.967  17.964  1.00  0.00     0.103 A 
HETATM    7  C8  UNL     1      23.677   3.980  18.597  1.00  0.00     0.071 A 
HETATM    8  C9  UNL     1      24.523   4.546  19.527  1.00  0.00     0.052 A 
HETATM    9  C10 UNL     1      24.182   5.671  20.437  1.00  0.00     0.077 C 
HETATM   10  O5  UNL     1      25.652   3.922  19.460  1.00  0.00    -0.314 OA
HETATM   11  C11 UNL     1      25.618   2.972  18.541  1.00  0.00     0.119 A 
HETATM   12  C12 UNL     1      26.648   2.020  18.117  1.00  0.00     0.227 C 
ENDROOT
BRANCH   3  13
HETATM   13  O1  UNL     1      27.197   0.169  16.795  1.00  0.00    -0.303 OA
BRANCH  13  14
HETATM   14  C4  UNL     1      27.584  -0.038  15.505  1.00  0.00     0.192 C 
HETATM   15  N1  UNL     1      26.723  -0.643  14.765  1.00  0.00    -0.376 N 
ATOM     16  H12 UNL     1      25.816  -0.946  15.121  1.00  0.00     0.158 HD
ATOM     17  H11 UNL     1      27.012  -0.798  13.799  1.00  0.00     0.158 HD
BRANCH  14  18
HETATM   18  C5  UNL     1      28.874   0.393  14.998  1.00  0.00     0.212 C 
HETATM   19  N2  UNL     1      29.044   1.620  14.668  1.00  0.00    -0.244 N 
ATOM     20  H2  UNL     1      29.944   1.941  14.311  1.00  0.00     0.196 HD
BRANCH  18  21
HETATM   21  O2  UNL     1      29.916  -0.545  14.881  1.00  0.00    -0.342 OA
ATOM     22  H2  UNL     1      30.017  -1.213  15.549  1.00  0.00     0.219 HD
ENDBRANCH  18  21
BRANCH  19  23
HETATM   23  O3  UNL     1      27.998   2.492  14.802  1.00  0.00    -0.288 OA
ATOM     24  H3  UNL     1      28.065   3.353  14.406  1.00  0.00     0.244 HD
ENDBRANCH  19  23
ENDBRANCH  14  18
ENDBRANCH  13  14
ENDBRANCH   3  13
BRANCH  12  25
HETATM   25  O6  UNL     1      27.693   2.765  17.573  1.00  0.00    -0.385 OA
ATOM     26  H6  UNL     1      28.400   2.243  17.211  1.00  0.00     0.210 HD
ENDBRANCH  12  25
TORSDOF 6
ENDMDL
MODEL 2
REMARK VINA RESULT: -6.609658632      2.546      4.354
REMARK  6 active torsions:
REMARK  status: ('A' for Active; 'I' for Inactive)
REMARK    1  A    between atoms: C3_3  and  O1_4 
REMARK    2  A    between atoms: O1_4  and  C4_5 
REMARK    3  A    between atoms: C4_5  and  C5_9 
REMARK    4  A    between atoms: C5_9  and  O2_10 
REMARK    5  A    between atoms: N2_12  and  O3_14 
REMARK    6  A    between atoms: C12_24  and  O6_25 
ROOT
HETATM    1  C1  UNL     1      24.317   4.831  20.052  1.00  0.00     0.015 C 
HETATM    2  C2  UNL     1      24.542   3.885  19.328  1.00  0.00    -0.073 C 
HETATM    3  C3  UNL     1      24.798   2.720  18.419  1.00  0.00     0.184 C 
HETATM    4  C6  UNL     1      26.230   2.375  18.662  1.00  0.00     0.231 C 
HETATM    5  O4  UNL     1      26.326   2.081  20.073  1.00  0.00    -0.344 OA
HETATM    6  C7  UNL     1      25.422   1.268  20.716  1.00  0.00     0.103 A 
HETATM    7  C8  UNL     1      25.423   0.543  21.899  1.00  0.00     0.071 A 
HETATM    8  C9  UNL     1      24.198  -0.083  21.993  1.00  0.00     0.052 A 
HETATM    9  C10 UNL     1      23.759  -0.967  23.105  1.00  0.00     0.077 C 
HETATM   10  O5  UNL     1      23.512   0.242  20.948  1.00  0.00    -0.314 OA
HETATM   11  C11 UNL     1      24.201   1.046  20.156  1.00  0.00     0.119 A 
HETATM   12  C12 UNL     1      23.838   1.663  18.877  1.00  0.00     0.227 C 
ENDROOT
BRANCH   3  13
HETATM   13  O1  UNL     1      24.431   3.144  17.165  1.00  0.00    -0.303 OA
BRANCH  13  14
HETATM   14  C4  UNL     1      25.125   2.964  16.006  1.00  0.00     0.192 C 
HETATM   15  N1  UNL     1      24.997   1.803  15.466  1.00  0.00    -0.376 N 
ATOM     16  H12 UNL     1      24.418   1.071  15.877  1.00  0.00     0.158 HD
ATOM     17  H11 UNL     1      25.517   1.668  14.599  1.00  0.00     0.158 HD
BRANCH  14  18
HETATM   18  C5  UNL     1      25.948   4.005  15.420  1.00  0.00     0.212 C 
HETATM   19  N2  UNL     1      27.186   3.772  15.178  1.00  0.00    -0.244 N 
ATOM     20  H2  UNL     1      27.778   4.492  14.766  1.00  0.00     0.196 HD
BRANCH  18  21
HETATM   21  O2  UNL     1      25.371   5.255  15.126  1.00  0.00    -0.342 OA
ATOM     22  H2  UNL     1      25.211   5.491  14.220  1.00  0.00     0.219 HD
ENDBRANCH  18  21
BRANCH  19  23
HETATM   23  O3  UNL     1      27.696   2.539  15.483  1.00  0.00    -0.288 OA
ATOM     24  H3  UNL     1      27.338   1.774  15.049  1.00  0.00     0.244 HD
ENDBRANCH  19  23
ENDBRANCH  14  18
ENDBRANCH  13  14
ENDBRANCH   3  13
BRANCH  12  25
HETATM   25  O6  UNL     1      23.645   0.628  17.965  1.00  0.00    -0.385 OA
ATOM     26  H6  UNL     1      22.753   0.302  17.924  1.00  0.00     0.210 HD
ENDBRANCH  12  25
TORSDOF 6
ENDMDL
MODEL 3
REMARK VINA RESULT: -6.584234787      1.821      2.956
REMARK  6 active torsions:
REMARK  status: ('A' for Active; 'I' for Inactive)
REMARK    1  A    between atoms: C3_3  and  O1_4 
REMARK    2  A    between atoms: O1_4  and  C4_5 
REMARK    3  A    between atoms: C4_5  and  C5_9 
REMARK    4  A    between atoms: C5_9  and  O2_10 
REMARK    5  A    between atoms: N2_12  and  O3_14 
REMARK    6  A    between atoms: C12_24  and  O6_25 
ROOT
HETATM    1  C1  UNL     1      25.672   4.310  15.344  1.00  0.00     0.015 C 
HETATM    2  C2  UNL     1      25.553   3.319  16.032  1.00  0.00    -0.073 C 
HETATM    3  C3  UNL     1      25.388   2.085  16.865  1.00  0.00     0.184 C 
HETATM    4  C6  UNL     1      26.557   2.111  17.794  1.00  0.00     0.231 C 
HETATM    5  O4  UNL     1      26.449   3.356  18.519  1.00  0.00    -0.344 OA
HETATM    6  C7  UNL     1      25.266   3.783  19.073  1.00  0.00     0.103 A 
HETATM    7  C8  UNL     1      24.917   4.686  20.067  1.00  0.00     0.071 A 
HETATM    8  C9  UNL     1      23.542   4.671  20.167  1.00  0.00     0.052 A 
HETATM    9  C10 UNL     1      22.731   5.488  21.107  1.00  0.00     0.077 C 
HETATM   10  O5  UNL     1      23.097   3.823  19.299  1.00  0.00    -0.314 OA
HETATM   11  C11 UNL     1      24.088   3.267  18.623  1.00  0.00     0.119 A 
HETATM   12  C12 UNL     1      24.068   2.265  17.555  1.00  0.00     0.227 C 
ENDROOT
BRANCH   3  13
HETATM   13  O1  UNL     1      25.286   1.047  15.971  1.00  0.00    -0.303 OA
BRANCH  13  14
HETATM   14  C4  UNL     1      25.893  -0.170  16.059  1.00  0.00     0.192 C 
HETATM   15  N1  UNL     1      25.522  -0.897  17.054  1.00  0.00    -0.376 N 
ATOM     16  H12 UNL     1      24.824  -0.582  17.728  1.00  0.00     0.158 HD
ATOM     17  H11 UNL     1      25.976  -1.807  17.120  1.00  0.00     0.158 HD
BRANCH  14  18
HETATM   18  C5  UNL     1      26.886  -0.618  15.100  1.00  0.00     0.212 C 
HETATM   19  N2  UNL     1      26.519  -0.945  13.916  1.00  0.00    -0.244 N 
ATOM     20  H2  UNL     1      27.203  -1.261  13.230  1.00  0.00     0.196 HD
BRANCH  18  21
HETATM   21  O2  UNL     1      28.237  -0.684  15.489  1.00  0.00    -0.342 OA
ATOM     22  H2  UNL     1      28.595  -1.512  15.790  1.00  0.00     0.219 HD
ENDBRANCH  18  21
BRANCH  19  23
HETATM   23  O3  UNL     1      25.192  -0.862  13.590  1.00  0.00    -0.288 OA
ATOM     24  H3  UNL     1      24.952  -0.573  12.718  1.00  0.00     0.244 HD
ENDBRANCH  19  23
ENDBRANCH  14  18
ENDBRANCH  13  14
ENDBRANCH   3  13
BRANCH  12  25
HETATM   25  O6  UNL     1      23.540   1.096  18.101  1.00  0.00    -0.385 OA
ATOM     26  H6  UNL     1      23.158   1.204  18.964  1.00  0.00     0.210 HD
ENDBRANCH  12  25
TORSDOF 6
ENDMDL
MODEL 4
REMARK VINA RESULT: -6.496767895      1.993      3.104
REMARK  6 active torsions:
REMARK  status: ('A' for Active; 'I' for Inactive)
REMARK    1  A    between atoms: C3_3  and  O1_4 
REMARK    2  A    between atoms: O1_4  and  C4_5 
REMARK    3  A    between atoms: C4_5  and  C5_9 
REMARK    4  A    between atoms: C5_9  and  O2_10 
REMARK    5  A    between atoms: N2_12  and  O3_14 
REMARK    6  A    between atoms: C12_24  and  O6_25 
ROOT
HETATM    1  C1  UNL     1      28.066   3.198  18.024  1.00  0.00     0.015 C 
HETATM    2  C2  UNL     1      27.208   2.407  17.696  1.00  0.00    -0.073 C 
HETATM    3  C3  UNL     1      26.147   1.440  17.265  1.00  0.00     0.184 C 
HETATM    4  C6  UNL     1      26.189   0.366  18.302  1.00  0.00     0.231 C 
HETATM    5  O4  UNL     1      25.937   1.030  19.560  1.00  0.00    -0.344 OA
HETATM    6  C7  UNL     1      24.919   1.941  19.718  1.00  0.00     0.103 A 
HETATM    7  C8  UNL     1      24.224   2.458  20.802  1.00  0.00     0.071 A 
HETATM    8  C9  UNL     1      23.301   3.353  20.303  1.00  0.00     0.052 A 
HETATM    9  C10 UNL     1      22.337   4.145  21.111  1.00  0.00     0.077 C 
HETATM   10  O5  UNL     1      23.430   3.372  19.018  1.00  0.00    -0.314 OA
HETATM   11  C11 UNL     1      24.383   2.546  18.621  1.00  0.00     0.119 A 
HETATM   12  C12 UNL     1      24.878   2.238  17.277  1.00  0.00     0.227 C 
ENDROOT
BRANCH   3  13
HETATM   13  O1  UNL     1      26.455   1.109  15.969  1.00  0.00    -0.303 OA
BRANCH  13  14
HETATM   14  C4  UNL     1      26.580  -0.147  15.453  1.00  0.00     0.192 C 
HETATM   15  N1  UNL     1      27.761  -0.652  15.522  1.00  0.00    -0.376 N 
ATOM     16  H12 UNL     1      28.547  -0.147  15.933  1.00  0.00     0.158 HD
ATOM     17  H11 UNL     1      27.855  -1.591  15.136  1.00  0.00     0.158 HD
BRANCH  14  18
HETATM   18  C5  UNL     1      25.463  -0.866  14.869  1.00  0.00     0.212 C 
HETATM   19  N2  UNL     1      25.511  -1.216  13.637  1.00  0.00    -0.244 N 
ATOM     20  H2  UNL     1      24.735  -1.722  13.211  1.00  0.00     0.196 HD
BRANCH  18  21
HETATM   21  O2  UNL     1      24.345  -1.167  15.669  1.00  0.00    -0.342 OA
ATOM     22  H2  UNL     1      23.712  -1.807  15.363  1.00  0.00     0.219 HD
ENDBRANCH  18  21
BRANCH  19  23
HETATM   23  O3  UNL     1      26.622  -0.898  12.904  1.00  0.00    -0.288 OA
ATOM     24  H3  UNL     1      26.703  -1.242  12.022  1.00  0.00     0.244 HD
ENDBRANCH  19  23
ENDBRANCH  14  18
ENDBRANCH  13  14
ENDBRANCH   3  13
BRANCH  12  25
HETATM   25  O6  UNL     1      23.824   1.653  16.578  1.00  0.00    -0.385 OA
ATOM     26  H6  UNL     1      24.024   0.801  16.207  1.00  0.00     0.210 HD
ENDBRANCH  12  25
TORSDOF 6
ENDMDL
MODEL 5
REMARK VINA RESULT: -6.429331148      1.780      2.688
REMARK  6 active torsions:
REMARK  status: ('A' for Active; 'I' for Inactive)
REMARK    1  A    between atoms: C3_3  and  O1_4 
REMARK    2  A    between atoms: O1_4  and  C4_5 
REMARK    3  A    between atoms: C4_5  and  C5_9 
REMARK    4  A    between atoms: C5_9  and  O2_10 
REMARK    5  A    between atoms: N2_12  and  O3_14 
REMARK    6  A    between atoms: C12_24  and  O6_25 
ROOT
HETATM    1  C1  UNL     1      25.684   4.328  15.551  1.00  0.00     0.015 C 
HETATM    2  C2  UNL     1      25.891   3.277  16.118  1.00  0.00    -0.073 C 
HETATM    3  C3  UNL     1      26.136   1.963  16.798  1.00  0.00     0.184 C 
HETATM    4  C6  UNL     1      27.150   2.278  17.847  1.00  0.00     0.231 C 
HETATM    5  O4  UNL     1      26.547   3.294  18.679  1.00  0.00    -0.344 OA
HETATM    6  C7  UNL     1      25.256   3.193  19.140  1.00  0.00     0.103 A 
HETATM    7  C8  UNL     1      24.535   3.771  20.176  1.00  0.00     0.071 A 
HETATM    8  C9  UNL     1      23.259   3.254  20.122  1.00  0.00     0.052 A 
HETATM    9  C10 UNL     1      22.144   3.595  21.045  1.00  0.00     0.077 C 
HETATM   10  O5  UNL     1      23.213   2.429  19.128  1.00  0.00    -0.314 OA
HETATM   11  C11 UNL     1      24.381   2.358  18.513  1.00  0.00     0.119 A 
HETATM   12  C12 UNL     1      24.799   1.568  17.352  1.00  0.00     0.227 C 
ENDROOT
BRANCH   3  13
HETATM   13  O1  UNL     1      26.480   1.089  15.797  1.00  0.00    -0.303 OA
BRANCH  13  14
HETATM   14  C4  UNL     1      27.598   0.310  15.740  1.00  0.00     0.192 C 
HETATM   15  N1  UNL     1      27.588  -0.718  16.513  1.00  0.00    -0.376 N 
ATOM     16  H12 UNL     1      26.800  -0.934  17.124  1.00  0.00     0.158 HD
ATOM     17  H11 UNL     1      28.424  -1.301  16.472  1.00  0.00     0.158 HD
BRANCH  14  18
HETATM   18  C5  UNL     1      28.718   0.616  14.871  1.00  0.00     0.212 C 
HETATM   19  N2  UNL     1      28.722   0.177  13.666  1.00  0.00    -0.244 N 
ATOM     20  H2  UNL     1      29.501   0.383  13.042  1.00  0.00     0.196 HD
BRANCH  18  21
HETATM   21  O2  UNL     1      29.783   1.392  15.367  1.00  0.00    -0.342 OA
ATOM     22  H2  UNL     1      30.667   1.215  15.067  1.00  0.00     0.219 HD
ENDBRANCH  18  21
BRANCH  19  23
HETATM   23  O3  UNL     1      27.662  -0.573  13.234  1.00  0.00    -0.288 OA
ATOM     24  H3  UNL     1      27.822  -1.456  12.923  1.00  0.00     0.244 HD
ENDBRANCH  19  23
ENDBRANCH  14  18
ENDBRANCH  13  14
ENDBRANCH   3  13
BRANCH  12  25
HETATM   25  O6  UNL     1      24.701   0.226  17.715  1.00  0.00    -0.385 OA
ATOM     26  H6  UNL     1      25.232  -0.018  18.464  1.00  0.00     0.210 HD
ENDBRANCH  12  25
TORSDOF 6
ENDMDL
