MODEL 1
REMARK VINA RESULT: -6.283336906      0.000      0.000
REMARK  3 active torsions:
REMARK  status: ('A' for Active; 'I' for Inactive)
REMARK    1  A    between atoms: S1_2  and  C2_3 
REMARK    2  A    between atoms: C2_3  and  N1_5 
REMARK    3  A    between atoms: N1_5  and  C3_7 
ROOT
HETATM    1  C3  UNL     1      23.073   7.123  19.772  1.00  0.00     0.138 A 
HETATM    2  N2  UNL     1      22.373   7.406  20.855  1.00  0.00    -0.321 N 
ATOM      3  H2  UNL     1      22.620   6.887  21.699  1.00  0.00     0.169 HD
HETATM    4  C4  UNL     1      21.376   8.295  20.978  1.00  0.00     0.145 A 
HETATM    5  N3  UNL     1      20.740   8.513  22.074  1.00  0.00    -0.380 N 
ATOM      6  H31 UNL     1      19.982   9.189  22.167  1.00  0.00     0.158 HD
ATOM      7  H32 UNL     1      20.961   8.014  22.935  1.00  0.00     0.158 HD
HETATM    8  S3  UNL     1      21.004   9.135  19.531  1.00  0.00    -0.034 SA
HETATM    9  C5  UNL     1      22.002   8.650  18.224  1.00  0.00     0.109 A 
HETATM   10  N4  UNL     1      22.145   8.961  16.923  1.00  0.00    -0.339 N 
ATOM     11  H4  UNL     1      21.585   9.652  16.424  1.00  0.00     0.168 HD
HETATM   12  C6  UNL     1      23.130   8.229  16.373  1.00  0.00     0.078 A 
HETATM   13  C7  UNL     1      23.553   8.318  14.961  1.00  0.00     0.089 C 
HETATM   14  N5  UNL     1      23.604   7.452  17.355  1.00  0.00    -0.341 N 
ATOM     15  H5  UNL     1      24.364   6.781  17.246  1.00  0.00     0.167 HD
HETATM   16  C8  UNL     1      22.934   7.679  18.523  1.00  0.00     0.112 A 
ENDROOT
BRANCH   1  17
HETATM   17  N1  UNL     1      24.009   6.210  19.890  1.00  0.00    -0.326 N 
ATOM     18  H1  UNL     1      24.965   6.510  20.077  1.00  0.00     0.169 HD
BRANCH  17  19
HETATM   19  C2  UNL     1      23.742   4.825  19.767  1.00  0.00     0.139 C 
HETATM   20  S2  UNL     1      24.371   4.031  18.498  1.00  0.00    -0.053 SA
BRANCH  19  21
HETATM   21  S1  UNL     1      22.736   4.033  21.005  1.00  0.00    -0.105 SA
HETATM   22  C1  UNL     1      22.315   2.341  20.520  1.00  0.00     0.098 C 
ENDBRANCH  19  21
ENDBRANCH  17  19
ENDBRANCH   1  17
TORSDOF 3
ENDMDL
MODEL 2
REMARK VINA RESULT: -6.277160890      0.754      1.491
REMARK  3 active torsions:
REMARK  status: ('A' for Active; 'I' for Inactive)
REMARK    1  A    between atoms: S1_2  and  C2_3 
REMARK    2  A    between atoms: C2_3  and  N1_5 
REMARK    3  A    between atoms: N1_5  and  C3_7 
ROOT
HETATM    1  C3  UNL     1      23.093   7.107  19.768  1.00  0.00     0.138 A 
HETATM    2  N2  UNL     1      22.384   7.399  20.844  1.00  0.00    -0.321 N 
ATOM      3  H2  UNL     1      22.626   6.889  21.694  1.00  0.00     0.169 HD
HETATM    4  C4  UNL     1      21.383   8.286  20.949  1.00  0.00     0.145 A 
HETATM    5  N3  UNL     1      20.739   8.514  22.038  1.00  0.00    -0.380 N 
ATOM      6  H31 UNL     1      19.978   9.188  22.119  1.00  0.00     0.158 HD
ATOM      7  H32 UNL     1      20.955   8.023  22.906  1.00  0.00     0.158 HD
HETATM    8  S3  UNL     1      21.021   9.111  19.491  1.00  0.00    -0.034 SA
HETATM    9  C5  UNL     1      22.030   8.615  18.197  1.00  0.00     0.109 A 
HETATM   10  N4  UNL     1      22.182   8.914  16.894  1.00  0.00    -0.339 N 
ATOM     11  H4  UNL     1      21.624   9.599  16.384  1.00  0.00     0.168 HD
HETATM   12  C6  UNL     1      23.174   8.180  16.359  1.00  0.00     0.078 A 
HETATM   13  C7  UNL     1      23.607   8.256  14.950  1.00  0.00     0.089 C 
HETATM   14  N5  UNL     1      23.642   7.414  17.353  1.00  0.00    -0.341 N 
ATOM     15  H5  UNL     1      24.404   6.744  17.256  1.00  0.00     0.167 HD
HETATM   16  C8  UNL     1      22.962   7.650  18.513  1.00  0.00     0.112 A 
ENDROOT
BRANCH   1  17
HETATM   17  N1  UNL     1      24.030   6.198  19.902  1.00  0.00    -0.326 N 
ATOM     18  H1  UNL     1      24.979   6.501  20.122  1.00  0.00     0.169 HD
BRANCH  17  19
HETATM   19  C2  UNL     1      23.775   4.814  19.755  1.00  0.00     0.139 C 
HETATM   20  S2  UNL     1      22.856   4.078  20.874  1.00  0.00    -0.053 SA
BRANCH  19  21
HETATM   21  S1  UNL     1      24.472   3.957  18.358  1.00  0.00    -0.105 SA
HETATM   22  C1  UNL     1      26.043   3.170  18.790  1.00  0.00     0.098 C 
ENDBRANCH  19  21
ENDBRANCH  17  19
ENDBRANCH   1  17
TORSDOF 3
ENDMDL
MODEL 3
REMARK VINA RESULT: -6.250370594      1.914      5.651
REMARK  3 active torsions:
REMARK  status: ('A' for Active; 'I' for Inactive)
REMARK    1  A    between atoms: S1_2  and  C2_3 
REMARK    2  A    between atoms: C2_3  and  N1_5 
REMARK    3  A    between atoms: N1_5  and  C3_7 
ROOT
HETATM    1  C3  UNL     1      22.868   7.171  20.219  1.00  0.00     0.138 A 
HETATM    2  N2  UNL     1      23.317   6.057  19.669  1.00  0.00    -0.321 N 
ATOM      3  H2  UNL     1      23.762   6.154  18.756  1.00  0.00     0.169 HD
HETATM    4  C4  UNL     1      23.256   4.814  20.170  1.00  0.00     0.145 A 
HETATM    5  N3  UNL     1      23.719   3.776  19.569  1.00  0.00    -0.380 N 
ATOM      6  H31 UNL     1      23.673   2.831  19.949  1.00  0.00     0.158 HD
ATOM      7  H32 UNL     1      24.170   3.837  18.656  1.00  0.00     0.158 HD
HETATM    8  S3  UNL     1      22.499   4.712  21.704  1.00  0.00    -0.034 SA
HETATM    9  C5  UNL     1      21.976   6.242  22.273  1.00  0.00     0.109 A 
HETATM   10  N4  UNL     1      21.352   6.731  23.361  1.00  0.00    -0.339 N 
ATOM     11  H4  UNL     1      21.039   6.170  24.153  1.00  0.00     0.168 HD
HETATM   12  C6  UNL     1      21.201   8.062  23.254  1.00  0.00     0.078 A 
HETATM   13  C7  UNL     1      20.557   8.917  24.271  1.00  0.00     0.089 C 
HETATM   14  N5  UNL     1      21.742   8.401  22.077  1.00  0.00    -0.341 N 
ATOM     15  H5  UNL     1      21.780   9.352  21.711  1.00  0.00     0.167 HD
HETATM   16  C8  UNL     1      22.236   7.304  21.433  1.00  0.00     0.112 A 
ENDROOT
BRANCH   1  17
HETATM   17  N1  UNL     1      23.039   8.281  19.540  1.00  0.00    -0.326 N 
ATOM     18  H1  UNL     1      23.739   8.950  19.863  1.00  0.00     0.169 HD
BRANCH  17  19
HETATM   19  C2  UNL     1      22.291   8.587  18.379  1.00  0.00     0.139 C 
HETATM   20  S2  UNL     1      20.851   9.314  18.561  1.00  0.00    -0.053 SA
BRANCH  19  21
HETATM   21  S1  UNL     1      22.966   8.159  16.787  1.00  0.00    -0.105 SA
HETATM   22  C1  UNL     1      22.682   9.477  15.581  1.00  0.00     0.098 C 
ENDBRANCH  19  21
ENDBRANCH  17  19
ENDBRANCH   1  17
TORSDOF 3
ENDMDL
MODEL 4
REMARK VINA RESULT: -6.174989855      2.475      5.007
REMARK  3 active torsions:
REMARK  status: ('A' for Active; 'I' for Inactive)
REMARK    1  A    between atoms: S1_2  and  C2_3 
REMARK    2  A    between atoms: C2_3  and  N1_5 
REMARK    3  A    between atoms: N1_5  and  C3_7 
ROOT
HETATM    1  C3  UNL     1      22.344   7.940  21.422  1.00  0.00     0.138 A 
HETATM    2  N2  UNL     1      21.704   8.852  22.131  1.00  0.00    -0.321 N 
ATOM      3  H2  UNL     1      21.738   9.807  21.771  1.00  0.00     0.169 HD
HETATM    4  C4  UNL     1      21.016   8.672  23.268  1.00  0.00     0.145 A 
HETATM    5  N3  UNL     1      20.418   9.618  23.901  1.00  0.00    -0.380 N 
ATOM      6  H31 UNL     1      19.894   9.481  24.766  1.00  0.00     0.158 HD
ATOM      7  H32 UNL     1      20.430  10.582  23.569  1.00  0.00     0.158 HD
HETATM    8  S3  UNL     1      20.994   7.052  23.825  1.00  0.00    -0.034 SA
HETATM    9  C5  UNL     1      21.869   5.999  22.794  1.00  0.00     0.109 A 
HETATM   10  N4  UNL     1      22.169   4.688  22.746  1.00  0.00    -0.339 N 
ATOM     11  H4  UNL     1      21.873   3.997  23.435  1.00  0.00     0.168 HD
HETATM   12  C6  UNL     1      22.916   4.419  21.661  1.00  0.00     0.078 A 
HETATM   13  C7  UNL     1      23.420   3.079  21.302  1.00  0.00     0.089 C 
HETATM   14  N5  UNL     1      23.080   5.587  21.028  1.00  0.00    -0.341 N 
ATOM     15  H5  UNL     1      23.606   5.707  20.163  1.00  0.00     0.167 HD
HETATM   16  C8  UNL     1      22.447   6.596  21.694  1.00  0.00     0.112 A 
ENDROOT
BRANCH   1  17
HETATM   17  N1  UNL     1      22.953   8.350  20.334  1.00  0.00    -0.326 N 
ATOM     18  H1  UNL     1      23.910   8.693  20.408  1.00  0.00     0.169 HD
BRANCH  17  19
HETATM   19  C2  UNL     1      22.332   8.335  19.062  1.00  0.00     0.139 C 
HETATM   20  S2  UNL     1      23.015   7.450  17.884  1.00  0.00    -0.053 SA
BRANCH  19  21
HETATM   21  S1  UNL     1      20.844   9.282  18.823  1.00  0.00    -0.105 SA
HETATM   22  C1  UNL     1      20.700   9.853  17.112  1.00  0.00     0.098 C 
ENDBRANCH  19  21
ENDBRANCH  17  19
ENDBRANCH   1  17
TORSDOF 3
ENDMDL
MODEL 5
REMARK VINA RESULT: -6.164125114      2.230      5.017
REMARK  3 active torsions:
REMARK  status: ('A' for Active; 'I' for Inactive)
REMARK    1  A    between atoms: S1_2  and  C2_3 
REMARK    2  A    between atoms: C2_3  and  N1_5 
REMARK    3  A    between atoms: N1_5  and  C3_7 
ROOT
HETATM    1  C3  UNL     1      22.291   7.996  21.405  1.00  0.00     0.138 A 
HETATM    2  N2  UNL     1      21.660   8.886  22.148  1.00  0.00    -0.321 N 
ATOM      3  H2  UNL     1      21.658   9.845  21.798  1.00  0.00     0.169 HD
HETATM    4  C4  UNL     1      21.020   8.679  23.309  1.00  0.00     0.145 A 
HETATM    5  N3  UNL     1      20.426   9.604  23.975  1.00  0.00    -0.380 N 
ATOM      6  H31 UNL     1      19.940   9.446  24.858  1.00  0.00     0.158 HD
ATOM      7  H32 UNL     1      20.405  10.571  23.654  1.00  0.00     0.158 HD
HETATM    8  S3  UNL     1      21.056   7.052  23.848  1.00  0.00    -0.034 SA
HETATM    9  C5  UNL     1      21.913   6.030  22.771  1.00  0.00     0.109 A 
HETATM   10  N4  UNL     1      22.240   4.727  22.697  1.00  0.00    -0.339 N 
ATOM     11  H4  UNL     1      21.985   4.022  23.389  1.00  0.00     0.168 HD
HETATM   12  C6  UNL     1      22.950   4.486  21.581  1.00  0.00     0.078 A 
HETATM   13  C7  UNL     1      23.469   3.162  21.187  1.00  0.00     0.089 C 
HETATM   14  N5  UNL     1      23.063   5.664  20.955  1.00  0.00    -0.341 N 
ATOM     15  H5  UNL     1      23.553   5.805  20.072  1.00  0.00     0.167 HD
HETATM   16  C8  UNL     1      22.434   6.652  21.657  1.00  0.00     0.112 A 
ENDROOT
BRANCH   1  17
HETATM   17  N1  UNL     1      22.849   8.431  20.299  1.00  0.00    -0.326 N 
ATOM     18  H1  UNL     1      23.816   8.753  20.331  1.00  0.00     0.169 HD
BRANCH  17  19
HETATM   19  C2  UNL     1      22.159   8.472  19.064  1.00  0.00     0.139 C 
HETATM   20  S2  UNL     1      20.734   9.248  19.004  1.00  0.00    -0.053 SA
BRANCH  19  21
HETATM   21  S1  UNL     1      22.887   7.674  17.649  1.00  0.00    -0.105 SA
HETATM   22  C1  UNL     1      22.772   8.719  16.177  1.00  0.00     0.098 C 
ENDBRANCH  19  21
ENDBRANCH  17  19
ENDBRANCH   1  17
TORSDOF 3
ENDMDL
