MODEL 1
REMARK VINA RESULT: -6.128888915      0.000      0.000
REMARK  5 active torsions:
REMARK  status: ('A' for Active; 'I' for Inactive)
REMARK    1  A    between atoms: C3_3  and  N1_4 
REMARK    2  A    between atoms: N1_4  and  C4_6 
REMARK    3  A    between atoms: C4_6  and  N2_8 
REMARK    4  A    between atoms: N2_8  and  N3_10 
REMARK    5  A    between atoms: C5_12  and  C6_13 
ROOT
HETATM    1  C1  UNL     1     -23.619  41.400  12.303  1.00  0.00     0.014 C 
HETATM    2  C2  UNL     1     -22.632  40.951  11.774  1.00  0.00    -0.098 C 
HETATM    3  C3  UNL     1     -21.436  40.423  11.121  1.00  0.00     0.215 C 
ENDROOT
BRANCH   3   4
HETATM    4  N1  UNL     1     -21.813  39.430  10.158  1.00  0.00    -0.356 N 
ATOM      5  H1  UNL     1     -22.517  39.642   9.451  1.00  0.00     0.162 HD
BRANCH   4   6
HETATM    6  C4  UNL     1     -21.203  38.158  10.192  1.00  0.00     0.187 C 
HETATM    7  S1  UNL     1     -19.766  37.958  10.981  1.00  0.00    -0.040 SA
BRANCH   6   8
HETATM    8  N2  UNL     1     -21.822  37.020   9.547  1.00  0.00    -0.277 N 
ATOM      9  H2  UNL     1     -21.619  36.069   9.855  1.00  0.00     0.189 HD
BRANCH   8  10
HETATM   10  N3  UNL     1     -22.664  37.248   8.536  1.00  0.00    -0.308 N 
HETATM   11  C5  UNL     1     -23.882  37.257   8.417  1.00  0.00     0.136 C 
ATOM     12  H3  UNL     1     -22.182  37.463   7.663  1.00  0.00     0.186 HD
BRANCH  11  13
HETATM   13  C6  UNL     1     -24.881  36.998   9.440  1.00  0.00     0.049 A 
HETATM   14  C7  UNL     1     -25.081  37.701  10.579  1.00  0.00     0.031 A 
HETATM   15  C8  UNL     1     -26.083  37.350  11.493  1.00  0.00     0.004 A 
HETATM   16  C9  UNL     1     -26.906  36.274  11.267  1.00  0.00     0.017 A 
HETATM   17  C10 UNL     1     -26.672  35.583  10.098  1.00  0.00     0.088 A 
HETATM   18  N4  UNL     1     -25.721  35.928   9.245  1.00  0.00    -0.365 N 
ATOM     19  H4  UNL     1     -25.605  35.370   8.398  1.00  0.00     0.165 HD
ENDBRANCH  11  13
ENDBRANCH   8  10
ENDBRANCH   6   8
ENDBRANCH   4   6
ENDBRANCH   3   4
TORSDOF 5
ENDMDL
MODEL 2
REMARK VINA RESULT: -6.127406558      1.988      4.793
REMARK  5 active torsions:
REMARK  status: ('A' for Active; 'I' for Inactive)
REMARK    1  A    between atoms: C3_3  and  N1_4 
REMARK    2  A    between atoms: N1_4  and  C4_6 
REMARK    3  A    between atoms: C4_6  and  N2_8 
REMARK    4  A    between atoms: N2_8  and  N3_10 
REMARK    5  A    between atoms: C5_12  and  C6_13 
ROOT
HETATM    1  C1  UNL     1     -26.465  37.302  11.877  1.00  0.00     0.014 C 
HETATM    2  C2  UNL     1     -26.224  36.794  10.810  1.00  0.00    -0.098 C 
HETATM    3  C3  UNL     1     -25.930  36.162   9.525  1.00  0.00     0.215 C 
ENDROOT
BRANCH   3   4
HETATM    4  N1  UNL     1     -24.551  36.372   9.191  1.00  0.00    -0.356 N 
ATOM      5  H1  UNL     1     -23.821  35.838   9.663  1.00  0.00     0.162 HD
BRANCH   4   6
HETATM    6  C4  UNL     1     -24.210  37.322   8.204  1.00  0.00     0.187 C 
HETATM    7  S1  UNL     1     -25.384  37.948   7.227  1.00  0.00    -0.040 SA
BRANCH   6   8
HETATM    8  N2  UNL     1     -22.841  37.758   8.036  1.00  0.00    -0.277 N 
ATOM      9  H2  UNL     1     -22.566  38.323   7.232  1.00  0.00     0.189 HD
BRANCH   8  10
HETATM   10  N3  UNL     1     -21.945  37.403   8.960  1.00  0.00    -0.308 N 
HETATM   11  C5  UNL     1     -21.575  37.875  10.027  1.00  0.00     0.136 C 
ATOM     12  H3  UNL     1     -21.458  36.538   8.723  1.00  0.00     0.186 HD
BRANCH  11  13
HETATM   13  C6  UNL     1     -22.044  39.089  10.676  1.00  0.00     0.049 A 
HETATM   14  C7  UNL     1     -21.312  40.187  10.974  1.00  0.00     0.031 A 
HETATM   15  C8  UNL     1     -21.882  41.300  11.604  1.00  0.00     0.004 A 
HETATM   16  C9  UNL     1     -23.212  41.321  11.944  1.00  0.00     0.017 A 
HETATM   17  C10 UNL     1     -23.925  40.186  11.624  1.00  0.00     0.088 A 
HETATM   18  N4  UNL     1     -23.371  39.142  11.029  1.00  0.00    -0.365 N 
ATOM     19  H4  UNL     1     -23.959  38.335  10.821  1.00  0.00     0.165 HD
ENDBRANCH  11  13
ENDBRANCH   8  10
ENDBRANCH   6   8
ENDBRANCH   4   6
ENDBRANCH   3   4
TORSDOF 5
ENDMDL
MODEL 3
REMARK VINA RESULT: -6.118966457      2.021      4.914
REMARK  5 active torsions:
REMARK  status: ('A' for Active; 'I' for Inactive)
REMARK    1  A    between atoms: C3_3  and  N1_4 
REMARK    2  A    between atoms: N1_4  and  C4_6 
REMARK    3  A    between atoms: C4_6  and  N2_8 
REMARK    4  A    between atoms: N2_8  and  N3_10 
REMARK    5  A    between atoms: C5_12  and  C6_13 
ROOT
HETATM    1  C1  UNL     1     -26.563  37.271  11.889  1.00  0.00     0.014 C 
HETATM    2  C2  UNL     1     -26.321  36.768  10.820  1.00  0.00    -0.098 C 
HETATM    3  C3  UNL     1     -26.026  36.141   9.533  1.00  0.00     0.215 C 
ENDROOT
BRANCH   3   4
HETATM    4  N1  UNL     1     -24.645  36.347   9.203  1.00  0.00    -0.356 N 
ATOM      5  H1  UNL     1     -23.919  35.811   9.678  1.00  0.00     0.162 HD
BRANCH   4   6
HETATM    6  C4  UNL     1     -24.298  37.295   8.218  1.00  0.00     0.187 C 
HETATM    7  S1  UNL     1     -25.477  37.987   7.293  1.00  0.00    -0.040 SA
BRANCH   6   8
HETATM    8  N2  UNL     1     -22.917  37.673   8.006  1.00  0.00    -0.277 N 
ATOM      9  H2  UNL     1     -22.636  38.181   7.167  1.00  0.00     0.189 HD
BRANCH   8  10
HETATM   10  N3  UNL     1     -22.020  37.340   8.936  1.00  0.00    -0.308 N 
HETATM   11  C5  UNL     1     -21.682  37.811  10.014  1.00  0.00     0.136 C 
ATOM     12  H3  UNL     1     -21.495  36.498   8.694  1.00  0.00     0.186 HD
BRANCH  11  13
HETATM   13  C6  UNL     1     -22.206  38.996  10.673  1.00  0.00     0.049 A 
HETATM   14  C7  UNL     1     -23.480  39.206  11.076  1.00  0.00     0.031 A 
HETATM   15  C8  UNL     1     -23.866  40.397  11.705  1.00  0.00     0.004 A 
HETATM   16  C9  UNL     1     -22.959  41.402  11.939  1.00  0.00     0.017 A 
HETATM   17  C10 UNL     1     -21.672  41.152  11.516  1.00  0.00     0.088 A 
HETATM   18  N4  UNL     1     -21.325  40.021  10.923  1.00  0.00    -0.365 N 
ATOM     19  H4  UNL     1     -20.353  39.904  10.636  1.00  0.00     0.165 HD
ENDBRANCH  11  13
ENDBRANCH   8  10
ENDBRANCH   6   8
ENDBRANCH   4   6
ENDBRANCH   3   4
TORSDOF 5
ENDMDL
MODEL 4
REMARK VINA RESULT: -6.115182968      1.676      2.485
REMARK  5 active torsions:
REMARK  status: ('A' for Active; 'I' for Inactive)
REMARK    1  A    between atoms: C3_3  and  N1_4 
REMARK    2  A    between atoms: N1_4  and  C4_6 
REMARK    3  A    between atoms: C4_6  and  N2_8 
REMARK    4  A    between atoms: N2_8  and  N3_10 
REMARK    5  A    between atoms: C5_12  and  C6_13 
ROOT
HETATM    1  C1  UNL     1     -24.321  41.417  14.265  1.00  0.00     0.014 C 
HETATM    2  C2  UNL     1     -23.930  41.254  13.136  1.00  0.00    -0.098 C 
HETATM    3  C3  UNL     1     -23.459  41.037  11.770  1.00  0.00     0.215 C 
ENDROOT
BRANCH   3   4
HETATM    4  N1  UNL     1     -22.025  41.040  11.750  1.00  0.00    -0.356 N 
ATOM      5  H1  UNL     1     -21.506  41.786  12.213  1.00  0.00     0.162 HD
BRANCH   4   6
HETATM    6  C4  UNL     1     -21.335  40.004  11.085  1.00  0.00     0.187 C 
HETATM    7  S1  UNL     1     -19.849  39.528  11.626  1.00  0.00    -0.040 SA
BRANCH   6   8
HETATM    8  N2  UNL     1     -21.912  39.348   9.933  1.00  0.00    -0.277 N 
ATOM      9  H2  UNL     1     -22.479  39.868   9.263  1.00  0.00     0.189 HD
BRANCH   8  10
HETATM   10  N3  UNL     1     -21.685  38.042   9.768  1.00  0.00    -0.308 N 
HETATM   11  C5  UNL     1     -22.335  37.104   9.326  1.00  0.00     0.136 C 
ATOM     12  H3  UNL     1     -20.755  37.762  10.082  1.00  0.00     0.186 HD
BRANCH  11  13
HETATM   13  C6  UNL     1     -23.688  37.128   8.794  1.00  0.00     0.049 A 
HETATM   14  C7  UNL     1     -24.781  36.532   9.323  1.00  0.00     0.031 A 
HETATM   15  C8  UNL     1     -26.038  36.629   8.713  1.00  0.00     0.004 A 
HETATM   16  C9  UNL     1     -26.211  37.338   7.550  1.00  0.00     0.017 A 
HETATM   17  C10 UNL     1     -25.076  37.932   7.042  1.00  0.00     0.088 A 
HETATM   18  N4  UNL     1     -23.895  37.830   7.631  1.00  0.00    -0.365 N 
ATOM     19  H4  UNL     1     -23.098  38.296   7.199  1.00  0.00     0.165 HD
ENDBRANCH  11  13
ENDBRANCH   8  10
ENDBRANCH   6   8
ENDBRANCH   4   6
ENDBRANCH   3   4
TORSDOF 5
ENDMDL
MODEL 5
REMARK VINA RESULT: -6.005394790      2.184      3.041
REMARK  5 active torsions:
REMARK  status: ('A' for Active; 'I' for Inactive)
REMARK    1  A    between atoms: C3_3  and  N1_4 
REMARK    2  A    between atoms: N1_4  and  C4_6 
REMARK    3  A    between atoms: C4_6  and  N2_8 
REMARK    4  A    between atoms: N2_8  and  N3_10 
REMARK    5  A    between atoms: C5_12  and  C6_13 
ROOT
HETATM    1  C1  UNL     1     -18.756  41.017  11.776  1.00  0.00     0.014 C 
HETATM    2  C2  UNL     1     -19.802  40.842  12.350  1.00  0.00    -0.098 C 
HETATM    3  C3  UNL     1     -21.060  40.621  13.059  1.00  0.00     0.215 C 
ENDROOT
BRANCH   3   4
HETATM    4  N1  UNL     1     -21.735  39.487  12.498  1.00  0.00    -0.356 N 
ATOM      5  H1  UNL     1     -21.643  38.568  12.932  1.00  0.00     0.162 HD
BRANCH   4   6
HETATM    6  C4  UNL     1     -22.529  39.649  11.343  1.00  0.00     0.187 C 
HETATM    7  S1  UNL     1     -24.086  40.179  11.484  1.00  0.00    -0.040 SA
BRANCH   6   8
HETATM    8  N2  UNL     1     -21.996  39.357  10.030  1.00  0.00    -0.277 N 
ATOM      9  H2  UNL     1     -21.842  40.102   9.350  1.00  0.00     0.189 HD
BRANCH   8  10
HETATM   10  N3  UNL     1     -21.711  38.087   9.730  1.00  0.00    -0.308 N 
HETATM   11  C5  UNL     1     -22.329  37.165   9.215  1.00  0.00     0.136 C 
ATOM     12  H3  UNL     1     -20.760  37.826   9.990  1.00  0.00     0.186 HD
BRANCH  11  13
HETATM   13  C6  UNL     1     -23.698  37.173   8.724  1.00  0.00     0.049 A 
HETATM   14  C7  UNL     1     -24.765  36.555   9.280  1.00  0.00     0.031 A 
HETATM   15  C8  UNL     1     -26.042  36.637   8.709  1.00  0.00     0.004 A 
HETATM   16  C9  UNL     1     -26.260  37.353   7.557  1.00  0.00     0.017 A 
HETATM   17  C10 UNL     1     -25.150  37.968   7.021  1.00  0.00     0.088 A 
HETATM   18  N4  UNL     1     -23.950  37.880   7.573  1.00  0.00    -0.365 N 
ATOM     19  H4  UNL     1     -23.174  38.362   7.121  1.00  0.00     0.165 HD
ENDBRANCH  11  13
ENDBRANCH   8  10
ENDBRANCH   6   8
ENDBRANCH   4   6
ENDBRANCH   3   4
TORSDOF 5
ENDMDL
