MODEL 1
REMARK VINA RESULT: -6.634450929      0.000      0.000
REMARK  4 active torsions:
REMARK  status: ('A' for Active; 'I' for Inactive)
REMARK    1  A    between atoms: C4_9  and  N4_10 
REMARK    2  A    between atoms: N4_10  and  C5_12 
REMARK    3  A    between atoms: C5_12  and  C6_13 
REMARK    4  A    between atoms: C6_13  and  C7_14 
ROOT
HETATM    1  N1  UNL     1     -20.214  37.840  11.053  1.00  0.00    -0.191 NA
HETATM    2  C1  UNL     1     -21.158  37.829  10.369  1.00  0.00     0.104 C 
HETATM    3  C2  UNL     1     -22.306  37.829   9.508  1.00  0.00     0.106 A 
HETATM    4  C3  UNL     1     -22.433  37.391   8.212  1.00  0.00     0.133 A 
HETATM    5  N2  UNL     1     -23.704  37.606   7.851  1.00  0.00    -0.309 N 
ATOM      6  H2  UNL     1     -24.106  37.384   6.939  1.00  0.00     0.186 HD
HETATM    7  N3  UNL     1     -24.354  38.150   8.859  1.00  0.00    -0.285 N 
ATOM      8  H3  UNL     1     -25.340  38.411   8.838  1.00  0.00     0.188 HD
HETATM    9  C4  UNL     1     -23.548  38.316   9.917  1.00  0.00     0.138 A 
ENDROOT
BRANCH   9  10
HETATM   10  N4  UNL     1     -23.818  38.816  11.089  1.00  0.00    -0.374 N 
ATOM     11  H4  UNL     1     -23.675  38.268  11.937  1.00  0.00     0.161 HD
BRANCH  10  12
HETATM   12  C5  UNL     1     -24.322  40.158  11.157  1.00  0.00     0.126 C 
BRANCH  12  13
HETATM   13  C6  UNL     1     -23.708  40.949  12.290  1.00  0.00     0.058 C 
BRANCH  13  14
HETATM   14  C7  UNL     1     -22.222  40.952  12.227  1.00  0.00    -0.054 A 
HETATM   15  C8  UNL     1     -21.441  40.519  13.279  1.00  0.00     0.024 A 
HETATM   16  C9  UNL     1     -20.052  40.533  13.193  1.00  0.00     0.088 A 
HETATM   17  N5  UNL     1     -19.424  40.969  12.084  1.00  0.00    -0.375 N 
HETATM   18  C10 UNL     1     -20.164  41.396  11.044  1.00  0.00     0.088 A 
ATOM     19  H5  UNL     1     -18.406  40.974  12.033  1.00  0.00     0.164 HD
HETATM   20  C11 UNL     1     -21.547  41.393  11.102  1.00  0.00     0.024 A 
ENDBRANCH  13  14
ENDBRANCH  12  13
ENDBRANCH  10  12
ENDBRANCH   9  10
TORSDOF 4
ENDMDL
MODEL 2
REMARK VINA RESULT: -6.571065493      1.373      1.612
REMARK  4 active torsions:
REMARK  status: ('A' for Active; 'I' for Inactive)
REMARK    1  A    between atoms: C4_9  and  N4_10 
REMARK    2  A    between atoms: N4_10  and  C5_12 
REMARK    3  A    between atoms: C5_12  and  C6_13 
REMARK    4  A    between atoms: C6_13  and  C7_14 
ROOT
HETATM    1  N1  UNL     1     -21.665  36.864   8.393  1.00  0.00    -0.191 NA
HETATM    2  C1  UNL     1     -22.736  37.324   8.420  1.00  0.00     0.104 C 
HETATM    3  C2  UNL     1     -24.047  37.905   8.432  1.00  0.00     0.106 A 
HETATM    4  C3  UNL     1     -25.005  37.934   7.447  1.00  0.00     0.133 A 
HETATM    5  N2  UNL     1     -26.058  38.594   7.946  1.00  0.00    -0.309 N 
ATOM      6  H2  UNL     1     -26.930  38.779   7.449  1.00  0.00     0.186 HD
HETATM    7  N3  UNL     1     -25.790  38.965   9.181  1.00  0.00    -0.285 N 
ATOM      8  H3  UNL     1     -26.431  39.483   9.781  1.00  0.00     0.188 HD
HETATM    9  C4  UNL     1     -24.561  38.571   9.546  1.00  0.00     0.138 A 
ENDROOT
BRANCH   9  10
HETATM   10  N4  UNL     1     -23.941  38.747  10.677  1.00  0.00    -0.374 N 
ATOM     11  H4  UNL     1     -23.056  38.277  10.866  1.00  0.00     0.161 HD
BRANCH  10  12
HETATM   12  C5  UNL     1     -24.534  39.617  11.651  1.00  0.00     0.126 C 
BRANCH  12  13
HETATM   13  C6  UNL     1     -23.899  40.989  11.664  1.00  0.00     0.058 C 
BRANCH  13  14
HETATM   14  C7  UNL     1     -22.451  40.930  12.001  1.00  0.00    -0.054 A 
HETATM   15  C8  UNL     1     -22.001  40.562  13.253  1.00  0.00     0.024 A 
HETATM   16  C9  UNL     1     -20.641  40.517  13.539  1.00  0.00     0.088 A 
HETATM   17  N5  UNL     1     -19.718  40.828  12.609  1.00  0.00    -0.375 N 
HETATM   18  C10 UNL     1     -20.131  41.190  11.380  1.00  0.00     0.088 A 
ATOM     19  H5  UNL     1     -18.724  40.790  12.832  1.00  0.00     0.164 HD
HETATM   20  C11 UNL     1     -21.479  41.245  11.067  1.00  0.00     0.024 A 
ENDBRANCH  13  14
ENDBRANCH  12  13
ENDBRANCH  10  12
ENDBRANCH   9  10
TORSDOF 4
ENDMDL
MODEL 3
REMARK VINA RESULT: -6.566482487      1.376      1.976
REMARK  4 active torsions:
REMARK  status: ('A' for Active; 'I' for Inactive)
REMARK    1  A    between atoms: C4_9  and  N4_10 
REMARK    2  A    between atoms: N4_10  and  C5_12 
REMARK    3  A    between atoms: C5_12  and  C6_13 
REMARK    4  A    between atoms: C6_13  and  C7_14 
ROOT
HETATM    1  N1  UNL     1     -21.660  36.861   8.392  1.00  0.00    -0.191 NA
HETATM    2  C1  UNL     1     -22.732  37.322   8.420  1.00  0.00     0.104 C 
HETATM    3  C2  UNL     1     -24.043  37.902   8.433  1.00  0.00     0.106 A 
HETATM    4  C3  UNL     1     -25.001  37.933   7.448  1.00  0.00     0.133 A 
HETATM    5  N2  UNL     1     -26.054  38.592   7.948  1.00  0.00    -0.309 N 
ATOM      6  H2  UNL     1     -26.925  38.778   7.451  1.00  0.00     0.186 HD
HETATM    7  N3  UNL     1     -25.785  38.962   9.184  1.00  0.00    -0.285 N 
ATOM      8  H3  UNL     1     -26.426  39.479   9.784  1.00  0.00     0.188 HD
HETATM    9  C4  UNL     1     -24.556  38.567   9.547  1.00  0.00     0.138 A 
ENDROOT
BRANCH   9  10
HETATM   10  N4  UNL     1     -23.936  38.742  10.679  1.00  0.00    -0.374 N 
ATOM     11  H4  UNL     1     -23.052  38.270  10.869  1.00  0.00     0.161 HD
BRANCH  10  12
HETATM   12  C5  UNL     1     -24.526  39.616  11.651  1.00  0.00     0.126 C 
BRANCH  12  13
HETATM   13  C6  UNL     1     -23.891  40.989  11.657  1.00  0.00     0.058 C 
BRANCH  13  14
HETATM   14  C7  UNL     1     -22.443  40.932  11.994  1.00  0.00    -0.054 A 
HETATM   15  C8  UNL     1     -21.461  41.235  11.073  1.00  0.00     0.024 A 
HETATM   16  C9  UNL     1     -20.115  41.174  11.416  1.00  0.00     0.088 A 
HETATM   17  N5  UNL     1     -19.723  40.816  12.654  1.00  0.00    -0.375 N 
HETATM   18  C10 UNL     1     -20.662  40.515  13.571  1.00  0.00     0.088 A 
ATOM     19  H5  UNL     1     -18.733  40.775  12.893  1.00  0.00     0.164 HD
HETATM   20  C11 UNL     1     -22.009  40.568  13.256  1.00  0.00     0.024 A 
ENDBRANCH  13  14
ENDBRANCH  12  13
ENDBRANCH  10  12
ENDBRANCH   9  10
TORSDOF 4
ENDMDL
MODEL 4
REMARK VINA RESULT: -6.507301728      1.275      2.325
REMARK  4 active torsions:
REMARK  status: ('A' for Active; 'I' for Inactive)
REMARK    1  A    between atoms: C4_9  and  N4_10 
REMARK    2  A    between atoms: N4_10  and  C5_12 
REMARK    3  A    between atoms: C5_12  and  C6_13 
REMARK    4  A    between atoms: C6_13  and  C7_14 
ROOT
HETATM    1  N1  UNL     1     -25.433  38.382   6.619  1.00  0.00    -0.191 NA
HETATM    2  C1  UNL     1     -24.610  38.177   7.419  1.00  0.00     0.104 C 
HETATM    3  C2  UNL     1     -23.601  37.899   8.400  1.00  0.00     0.106 A 
HETATM    4  C3  UNL     1     -22.479  37.112   8.309  1.00  0.00     0.133 A 
HETATM    5  N2  UNL     1     -21.859  37.177   9.494  1.00  0.00    -0.309 N 
ATOM      6  H2  UNL     1     -20.992  36.695   9.735  1.00  0.00     0.186 HD
HETATM    7  N3  UNL     1     -22.545  37.962  10.298  1.00  0.00    -0.285 N 
ATOM      8  H3  UNL     1     -22.282  38.176  11.260  1.00  0.00     0.188 HD
HETATM    9  C4  UNL     1     -23.637  38.443   9.685  1.00  0.00     0.138 A 
ENDROOT
BRANCH   9  10
HETATM   10  N4  UNL     1     -24.555  39.243  10.145  1.00  0.00    -0.374 N 
ATOM     11  H4  UNL     1     -25.317  39.562   9.547  1.00  0.00     0.161 HD
BRANCH  10  12
HETATM   12  C5  UNL     1     -24.468  39.665  11.513  1.00  0.00     0.126 C 
BRANCH  12  13
HETATM   13  C6  UNL     1     -23.849  41.037  11.658  1.00  0.00     0.058 C 
BRANCH  13  14
HETATM   14  C7  UNL     1     -22.404  40.963  12.002  1.00  0.00    -0.054 A 
HETATM   15  C8  UNL     1     -21.965  40.589  13.256  1.00  0.00     0.024 A 
HETATM   16  C9  UNL     1     -20.606  40.529  13.550  1.00  0.00     0.088 A 
HETATM   17  N5  UNL     1     -19.676  40.833  12.625  1.00  0.00    -0.375 N 
HETATM   18  C10 UNL     1     -20.079  41.200  11.394  1.00  0.00     0.088 A 
ATOM     19  H5  UNL     1     -18.683  40.784  12.853  1.00  0.00     0.164 HD
HETATM   20  C11 UNL     1     -21.424  41.269  11.075  1.00  0.00     0.024 A 
ENDBRANCH  13  14
ENDBRANCH  12  13
ENDBRANCH  10  12
ENDBRANCH   9  10
TORSDOF 4
ENDMDL
MODEL 5
REMARK VINA RESULT: -6.457973689      1.461      1.986
REMARK  4 active torsions:
REMARK  status: ('A' for Active; 'I' for Inactive)
REMARK    1  A    between atoms: C4_9  and  N4_10 
REMARK    2  A    between atoms: N4_10  and  C5_12 
REMARK    3  A    between atoms: C5_12  and  C6_13 
REMARK    4  A    between atoms: C6_13  and  C7_14 
ROOT
HETATM    1  N1  UNL     1     -22.154  36.866   8.096  1.00  0.00    -0.191 NA
HETATM    2  C1  UNL     1     -23.135  36.876   8.727  1.00  0.00     0.104 C 
HETATM    3  C2  UNL     1     -24.355  36.888   9.479  1.00  0.00     0.106 A 
HETATM    4  C3  UNL     1     -25.428  36.031   9.428  1.00  0.00     0.133 A 
HETATM    5  N2  UNL     1     -26.318  36.466  10.329  1.00  0.00    -0.309 N 
ATOM      6  H2  UNL     1     -27.222  36.034  10.524  1.00  0.00     0.186 HD
HETATM    7  N3  UNL     1     -25.842  37.541  10.923  1.00  0.00    -0.285 N 
ATOM      8  H3  UNL     1     -26.330  38.063  11.650  1.00  0.00     0.188 HD
HETATM    9  C4  UNL     1     -24.630  37.858  10.445  1.00  0.00     0.138 A 
ENDROOT
BRANCH   9  10
HETATM   10  N4  UNL     1     -23.845  38.842  10.776  1.00  0.00    -0.374 N 
ATOM     11  H4  UNL     1     -22.935  38.958  10.329  1.00  0.00     0.161 HD
BRANCH  10  12
HETATM   12  C5  UNL     1     -24.291  39.760  11.784  1.00  0.00     0.126 C 
BRANCH  12  13
HETATM   13  C6  UNL     1     -23.601  41.102  11.691  1.00  0.00     0.058 C 
BRANCH  13  14
HETATM   14  C7  UNL     1     -22.149  41.005  12.000  1.00  0.00    -0.054 A 
HETATM   15  C8  UNL     1     -21.685  40.614  13.240  1.00  0.00     0.024 A 
HETATM   16  C9  UNL     1     -20.321  40.533  13.501  1.00  0.00     0.088 A 
HETATM   17  N5  UNL     1     -19.409  40.833  12.557  1.00  0.00    -0.375 N 
HETATM   18  C10 UNL     1     -19.836  41.217  11.339  1.00  0.00     0.088 A 
ATOM     19  H5  UNL     1     -18.412  40.769  12.761  1.00  0.00     0.164 HD
HETATM   20  C11 UNL     1     -21.187  41.306  11.052  1.00  0.00     0.024 A 
ENDBRANCH  13  14
ENDBRANCH  12  13
ENDBRANCH  10  12
ENDBRANCH   9  10
TORSDOF 4
ENDMDL
