MODEL 1
REMARK VINA RESULT: -6.274857091      0.000      0.000
REMARK  5 active torsions:
REMARK  status: ('A' for Active; 'I' for Inactive)
REMARK    1  A    between atoms: C4_4  and  N1_5 
REMARK    2  A    between atoms: N1_5  and  C5_7 
REMARK    3  A    between atoms: C5_7  and  C6_8 
REMARK    4  A    between atoms: C6_8  and  N2_9 
REMARK    5  A    between atoms: N2_9  and  C7_11 
ROOT
HETATM    1  C6  UNL     1     -21.622  37.503   9.815  1.00  0.00     0.157 C 
ENDROOT
BRANCH   1   2
HETATM    2  C5  UNL     1     -20.842  38.548  10.587  1.00  0.00     0.141 C 
BRANCH   2   3
HETATM    3  N1  UNL     1     -21.519  39.830  10.577  1.00  0.00    -0.375 N 
ATOM      4  H1  UNL     1     -21.552  40.404   9.734  1.00  0.00     0.161 HD
BRANCH   3   5
HETATM    5  C4  UNL     1     -22.078  40.219  11.673  1.00  0.00     0.100 A 
HETATM    6  C3  UNL     1     -23.320  40.816  11.699  1.00  0.00     0.048 A 
HETATM    7  C2  UNL     1     -23.935  41.239  12.859  1.00  0.00     0.005 A 
HETATM    8  C1  UNL     1     -23.251  41.042  14.042  1.00  0.00     0.017 A 
HETATM    9  C11 UNL     1     -22.005  40.441  13.997  1.00  0.00     0.089 A 
HETATM   10  N5  UNL     1     -21.424  40.036  12.853  1.00  0.00    -0.353 N 
ATOM     11  H5  UNL     1     -20.504  39.597  12.870  1.00  0.00     0.166 HD
ENDBRANCH   3   5
ENDBRANCH   2   3
ENDBRANCH   1   2
BRANCH   1  12
HETATM   12  N2  UNL     1     -22.330  38.095   8.721  1.00  0.00    -0.224 N 
ATOM     13  H2  UNL     1     -21.862  38.801   8.153  1.00  0.00     0.177 HD
BRANCH  12  14
HETATM   14  C7  UNL     1     -23.546  37.759   8.432  1.00  0.00     0.677 A 
HETATM   15  N3  UNL     1     -24.157  38.270   7.354  1.00  0.00    -0.202 N 
HETATM   16  C8  UNL     1     -25.408  37.914   7.071  1.00  0.00     0.107 A 
ATOM     17  H3  UNL     1     -23.664  38.930   6.753  1.00  0.00     0.183 HD
HETATM   18  C9  UNL     1     -26.068  37.030   7.878  1.00  0.00     0.035 A 
HETATM   19  C10 UNL     1     -25.440  36.512   8.976  1.00  0.00     0.107 A 
HETATM   20  N4  UNL     1     -24.184  36.884   9.241  1.00  0.00    -0.202 N 
ATOM     21  H4  UNL     1     -23.704  36.505  10.058  1.00  0.00     0.183 HD
ENDBRANCH  12  14
ENDBRANCH   1  12
TORSDOF 5
ENDMDL
MODEL 2
REMARK VINA RESULT: -6.261986234      0.035      1.177
REMARK  5 active torsions:
REMARK  status: ('A' for Active; 'I' for Inactive)
REMARK    1  A    between atoms: C4_4  and  N1_5 
REMARK    2  A    between atoms: N1_5  and  C5_7 
REMARK    3  A    between atoms: C5_7  and  C6_8 
REMARK    4  A    between atoms: C6_8  and  N2_9 
REMARK    5  A    between atoms: N2_9  and  C7_11 
ROOT
HETATM    1  C6  UNL     1     -21.576  37.514   9.791  1.00  0.00     0.157 C 
ENDROOT
BRANCH   1   2
HETATM    2  C5  UNL     1     -20.848  38.556  10.618  1.00  0.00     0.141 C 
BRANCH   2   3
HETATM    3  N1  UNL     1     -21.541  39.830  10.594  1.00  0.00    -0.375 N 
ATOM      4  H1  UNL     1     -21.580  40.395   9.745  1.00  0.00     0.161 HD
BRANCH   3   5
HETATM    5  C4  UNL     1     -22.107  40.222  11.685  1.00  0.00     0.100 A 
HETATM    6  C3  UNL     1     -23.344  40.830  11.700  1.00  0.00     0.048 A 
HETATM    7  C2  UNL     1     -23.966  41.257  12.856  1.00  0.00     0.005 A 
HETATM    8  C1  UNL     1     -23.295  41.053  14.044  1.00  0.00     0.017 A 
HETATM    9  C11 UNL     1     -22.054  40.442  14.010  1.00  0.00     0.089 A 
HETATM   10  N5  UNL     1     -21.465  40.033  12.871  1.00  0.00    -0.353 N 
ATOM     11  H5  UNL     1     -20.549  39.586  12.896  1.00  0.00     0.166 HD
ENDBRANCH   3   5
ENDBRANCH   2   3
ENDBRANCH   1   2
BRANCH   1  12
HETATM   12  N2  UNL     1     -22.333  38.127   8.744  1.00  0.00    -0.224 N 
ATOM     13  H2  UNL     1     -21.906  38.873   8.195  1.00  0.00     0.177 HD
BRANCH  12  14
HETATM   14  C7  UNL     1     -23.545  37.760   8.472  1.00  0.00     0.677 A 
HETATM   15  N3  UNL     1     -24.187  36.889   9.261  1.00  0.00    -0.202 N 
HETATM   16  C8  UNL     1     -25.433  36.523   8.966  1.00  0.00     0.107 A 
ATOM     17  H3  UNL     1     -23.723  36.507  10.085  1.00  0.00     0.183 HD
HETATM   18  C9  UNL     1     -26.055  37.034   7.862  1.00  0.00     0.035 A 
HETATM   19  C10 UNL     1     -25.394  37.923   7.060  1.00  0.00     0.107 A 
HETATM   20  N4  UNL     1     -24.144  38.276   7.375  1.00  0.00    -0.202 N 
ATOM     21  H4  UNL     1     -23.639  38.937   6.784  1.00  0.00     0.183 HD
ENDBRANCH  12  14
ENDBRANCH   1  12
TORSDOF 5
ENDMDL
MODEL 3
REMARK VINA RESULT: -6.147081257      1.204      1.796
REMARK  5 active torsions:
REMARK  status: ('A' for Active; 'I' for Inactive)
REMARK    1  A    between atoms: C4_4  and  N1_5 
REMARK    2  A    between atoms: N1_5  and  C5_7 
REMARK    3  A    between atoms: C5_7  and  C6_8 
REMARK    4  A    between atoms: C6_8  and  N2_9 
REMARK    5  A    between atoms: N2_9  and  C7_11 
ROOT
HETATM    1  C6  UNL     1     -21.618  37.436   9.235  1.00  0.00     0.157 C 
ENDROOT
BRANCH   1   2
HETATM    2  C5  UNL     1     -21.410  38.312  10.454  1.00  0.00     0.141 C 
BRANCH   2   3
HETATM    3  N1  UNL     1     -22.107  39.577  10.323  1.00  0.00    -0.375 N 
ATOM      4  H1  UNL     1     -21.945  40.190   9.524  1.00  0.00     0.161 HD
BRANCH   3   5
HETATM    5  C4  UNL     1     -22.940  39.899  11.254  1.00  0.00     0.100 A 
HETATM    6  C3  UNL     1     -22.860  41.092  11.940  1.00  0.00     0.048 A 
HETATM    7  C2  UNL     1     -23.739  41.455  12.939  1.00  0.00     0.005 A 
HETATM    8  C1  UNL     1     -24.744  40.561  13.247  1.00  0.00     0.017 A 
HETATM    9  C11 UNL     1     -24.811  39.368  12.549  1.00  0.00     0.089 A 
HETATM   10  N5  UNL     1     -23.941  39.034  11.578  1.00  0.00    -0.353 N 
ATOM     11  H5  UNL     1     -24.031  38.143  11.090  1.00  0.00     0.166 HD
ENDBRANCH   3   5
ENDBRANCH   2   3
ENDBRANCH   1   2
BRANCH   1  12
HETATM   12  N2  UNL     1     -22.782  36.619   9.382  1.00  0.00    -0.224 N 
ATOM     13  H2  UNL     1     -22.734  35.791   9.976  1.00  0.00     0.177 HD
BRANCH  12  14
HETATM   14  C7  UNL     1     -23.895  36.899   8.782  1.00  0.00     0.677 A 
HETATM   15  N3  UNL     1     -25.051  36.375   9.209  1.00  0.00    -0.202 N 
HETATM   16  C8  UNL     1     -26.186  36.674   8.581  1.00  0.00     0.107 A 
ATOM     17  H3  UNL     1     -25.061  35.747  10.014  1.00  0.00     0.183 HD
HETATM   18  C9  UNL     1     -26.172  37.513   7.503  1.00  0.00     0.035 A 
HETATM   19  C10 UNL     1     -24.989  38.045   7.071  1.00  0.00     0.107 A 
HETATM   20  N4  UNL     1     -23.862  37.731   7.717  1.00  0.00    -0.202 N 
ATOM     21  H4  UNL     1     -22.972  38.120   7.404  1.00  0.00     0.183 HD
ENDBRANCH  12  14
ENDBRANCH   1  12
TORSDOF 5
ENDMDL
MODEL 4
REMARK VINA RESULT: -6.111060423      1.980      2.485
REMARK  5 active torsions:
REMARK  status: ('A' for Active; 'I' for Inactive)
REMARK    1  A    between atoms: C4_4  and  N1_5 
REMARK    2  A    between atoms: N1_5  and  C5_7 
REMARK    3  A    between atoms: C5_7  and  C6_8 
REMARK    4  A    between atoms: C6_8  and  N2_9 
REMARK    5  A    between atoms: N2_9  and  C7_11 
ROOT
HETATM    1  C6  UNL     1     -22.801  37.259   8.173  1.00  0.00     0.157 C 
ENDROOT
BRANCH   1   2
HETATM    2  C5  UNL     1     -21.870  37.324   9.368  1.00  0.00     0.141 C 
BRANCH   2   3
HETATM    3  N1  UNL     1     -22.270  38.365  10.295  1.00  0.00    -0.375 N 
ATOM      4  H1  UNL     1     -23.242  38.466  10.588  1.00  0.00     0.161 HD
BRANCH   3   5
HETATM    5  C4  UNL     1     -21.352  39.157  10.736  1.00  0.00     0.100 A 
HETATM    6  C3  UNL     1     -21.494  40.528  10.735  1.00  0.00     0.048 A 
HETATM    7  C2  UNL     1     -20.524  41.392  11.201  1.00  0.00     0.005 A 
HETATM    8  C1  UNL     1     -19.363  40.830  11.691  1.00  0.00     0.017 A 
HETATM    9  C11 UNL     1     -19.238  39.452  11.685  1.00  0.00     0.089 A 
HETATM   10  N5  UNL     1     -20.196  38.627  11.225  1.00  0.00    -0.353 N 
ATOM     11  H5  UNL     1     -20.059  37.617  11.241  1.00  0.00     0.166 HD
ENDBRANCH   3   5
ENDBRANCH   2   3
ENDBRANCH   1   2
BRANCH   1  12
HETATM   12  N2  UNL     1     -24.091  37.783   8.499  1.00  0.00    -0.224 N 
ATOM     13  H2  UNL     1     -24.178  38.769   8.743  1.00  0.00     0.177 HD
BRANCH  12  14
HETATM   14  C7  UNL     1     -25.153  37.041   8.492  1.00  0.00     0.677 A 
HETATM   15  N3  UNL     1     -26.086  37.195   7.544  1.00  0.00    -0.202 N 
HETATM   16  C8  UNL     1     -27.171  36.423   7.552  1.00  0.00     0.107 A 
ATOM     17  H3  UNL     1     -25.966  37.901   6.818  1.00  0.00     0.183 HD
HETATM   18  C9  UNL     1     -27.333  35.478   8.525  1.00  0.00     0.035 A 
HETATM   19  C10 UNL     1     -26.376  35.325   9.490  1.00  0.00     0.107 A 
HETATM   20  N4  UNL     1     -25.295  36.111   9.463  1.00  0.00    -0.202 N 
ATOM     21  H4  UNL     1     -24.575  36.008  10.178  1.00  0.00     0.183 HD
ENDBRANCH  12  14
ENDBRANCH   1  12
TORSDOF 5
ENDMDL
MODEL 5
REMARK VINA RESULT: -6.022189209      1.973      2.842
REMARK  5 active torsions:
REMARK  status: ('A' for Active; 'I' for Inactive)
REMARK    1  A    between atoms: C4_4  and  N1_5 
REMARK    2  A    between atoms: N1_5  and  C5_7 
REMARK    3  A    between atoms: C5_7  and  C6_8 
REMARK    4  A    between atoms: C6_8  and  N2_9 
REMARK    5  A    between atoms: N2_9  and  C7_11 
ROOT
HETATM    1  C6  UNL     1     -23.115  37.422   8.079  1.00  0.00     0.157 C 
ENDROOT
BRANCH   1   2
HETATM    2  C5  UNL     1     -22.132  37.478   9.232  1.00  0.00     0.141 C 
BRANCH   2   3
HETATM    3  N1  UNL     1     -22.449  38.557  10.147  1.00  0.00    -0.375 N 
ATOM      4  H1  UNL     1     -23.415  38.783  10.383  1.00  0.00     0.161 HD
BRANCH   3   5
HETATM    5  C4  UNL     1     -21.464  39.221  10.650  1.00  0.00     0.100 A 
HETATM    6  C3  UNL     1     -21.468  40.597  10.740  1.00  0.00     0.048 A 
HETATM    7  C2  UNL     1     -20.425  41.326  11.274  1.00  0.00     0.005 A 
HETATM    8  C1  UNL     1     -19.335  40.618  11.737  1.00  0.00     0.017 A 
HETATM    9  C11 UNL     1     -19.348  39.238  11.640  1.00  0.00     0.089 A 
HETATM   10  N5  UNL     1     -20.376  38.547  11.114  1.00  0.00    -0.353 N 
ATOM     11  H5  UNL     1     -20.341  37.529  11.064  1.00  0.00     0.166 HD
ENDBRANCH   3   5
ENDBRANCH   2   3
ENDBRANCH   1   2
BRANCH   1  12
HETATM   12  N2  UNL     1     -24.427  37.802   8.504  1.00  0.00    -0.224 N 
ATOM     13  H2  UNL     1     -24.596  38.767   8.786  1.00  0.00     0.177 HD
BRANCH  12  14
HETATM   14  C7  UNL     1     -25.406  36.955   8.540  1.00  0.00     0.677 A 
HETATM   15  N3  UNL     1     -25.506  36.070   9.541  1.00  0.00    -0.202 N 
HETATM   16  C8  UNL     1     -26.519  35.207   9.562  1.00  0.00     0.107 A 
ATOM     17  H3  UNL     1     -24.807  36.058  10.284  1.00  0.00     0.183 HD
HETATM   18  C9  UNL     1     -27.454  35.222   8.566  1.00  0.00     0.035 A 
HETATM   19  C10 UNL     1     -27.346  36.127   7.547  1.00  0.00     0.107 A 
HETATM   20  N4  UNL     1     -26.321  36.985   7.546  1.00  0.00    -0.202 N 
ATOM     21  H4  UNL     1     -26.229  37.665   6.790  1.00  0.00     0.183 HD
ENDBRANCH  12  14
ENDBRANCH   1  12
TORSDOF 5
ENDMDL
