MODEL 1
REMARK VINA RESULT: -6.367604740      0.000      0.000
REMARK  4 active torsions:
REMARK  status: ('A' for Active; 'I' for Inactive)
REMARK    1  A    between atoms: C3_4  and  O1_5 
REMARK    2  A    between atoms: O1_5  and  C4_6 
REMARK    3  A    between atoms: C10_14  and  C11_15 
REMARK    4  A    between atoms: N3_16  and  N4_18 
ROOT
HETATM    1  C1  UNL     1     -21.250  37.561   9.998  1.00  0.00     0.156 C 
HETATM    2  N1  UNL     1     -21.031  38.788  10.774  1.00  0.00    -0.357 N 
HETATM    3  C2  UNL     1     -19.785  39.133  11.142  1.00  0.00     0.128 A 
HETATM    4  C3  UNL     1     -19.481  40.287  11.885  1.00  0.00     0.091 A 
HETATM    5  C8  UNL     1     -20.568  41.063  12.221  1.00  0.00     0.041 A 
HETATM    6  C9  UNL     1     -21.847  40.702  11.839  1.00  0.00     0.034 A 
HETATM    7  C10 UNL     1     -22.089  39.540  11.099  1.00  0.00     0.051 A 
ENDROOT
BRANCH   4   8
HETATM    8  O1  UNL     1     -18.201  40.505  12.179  1.00  0.00    -0.308 OA
BRANCH   8   9
HETATM    9  C4  UNL     1     -17.423  41.264  12.911  1.00  0.00     0.092 A 
HETATM   10  C5  UNL     1     -17.350  41.494  14.255  1.00  0.00     0.055 A 
HETATM   11  C6  UNL     1     -16.322  42.411  14.527  1.00  0.00     0.090 A 
HETATM   12  N2  UNL     1     -15.797  42.718  13.349  1.00  0.00    -0.373 N 
HETATM   13  C7  UNL     1     -16.408  42.069  12.353  1.00  0.00     0.124 A 
ATOM     14  H2  UNL     1     -15.022  43.370  13.219  1.00  0.00     0.164 HD
ENDBRANCH   8   9
ENDBRANCH   4   8
BRANCH   7  15
HETATM   15  C11 UNL     1     -23.443  39.204  10.723  1.00  0.00     0.136 C 
HETATM   16  N3  UNL     1     -24.513  39.598  11.284  1.00  0.00    -0.316 N 
ATOM     17  H3  UNL     1     -24.451  40.220  12.090  1.00  0.00     0.185 HD
BRANCH  16  18
HETATM   18  N4  UNL     1     -25.765  39.205  10.829  1.00  0.00    -0.345 N 
ATOM     19  H42 UNL     1     -25.848  38.895   9.861  1.00  0.00     0.176 HD
ATOM     20  H41 UNL     1     -26.587  39.222  11.434  1.00  0.00     0.176 HD
ENDBRANCH  16  18
ENDBRANCH   7  15
TORSDOF 4
ENDMDL
MODEL 2
REMARK VINA RESULT: -6.322166418      2.741      7.087
REMARK  4 active torsions:
REMARK  status: ('A' for Active; 'I' for Inactive)
REMARK    1  A    between atoms: C3_4  and  O1_5 
REMARK    2  A    between atoms: O1_5  and  C4_6 
REMARK    3  A    between atoms: C10_14  and  C11_15 
REMARK    4  A    between atoms: N3_16  and  N4_18 
ROOT
HETATM    1  C1  UNL     1     -19.237  38.046  11.053  1.00  0.00     0.156 C 
HETATM    2  N1  UNL     1     -20.424  38.904  11.157  1.00  0.00    -0.357 N 
HETATM    3  C2  UNL     1     -21.606  38.472  10.684  1.00  0.00     0.128 A 
HETATM    4  C3  UNL     1     -22.793  39.222  10.741  1.00  0.00     0.091 A 
HETATM    5  C8  UNL     1     -22.667  40.462  11.328  1.00  0.00     0.041 A 
HETATM    6  C9  UNL     1     -21.448  40.900  11.813  1.00  0.00     0.034 A 
HETATM    7  C10 UNL     1     -20.299  40.108  11.728  1.00  0.00     0.051 A 
ENDROOT
BRANCH   4   8
HETATM    8  O1  UNL     1     -23.891  38.669  10.233  1.00  0.00    -0.308 OA
BRANCH   8   9
HETATM    9  C4  UNL     1     -24.523  38.474   9.101  1.00  0.00     0.092 A 
HETATM   10  C5  UNL     1     -25.839  38.552   8.749  1.00  0.00     0.055 A 
HETATM   11  C6  UNL     1     -25.989  38.242   7.388  1.00  0.00     0.090 A 
HETATM   12  N2  UNL     1     -24.766  37.983   6.944  1.00  0.00    -0.373 N 
HETATM   13  C7  UNL     1     -23.855  38.105   7.914  1.00  0.00     0.124 A 
ATOM     14  H2  UNL     1     -24.548  37.723   5.982  1.00  0.00     0.164 HD
ENDBRANCH   8   9
ENDBRANCH   4   8
BRANCH   7  15
HETATM   15  C11 UNL     1     -19.048  40.609  12.249  1.00  0.00     0.136 C 
HETATM   16  N3  UNL     1     -18.258  41.429  11.686  1.00  0.00    -0.316 N 
ATOM     17  H3  UNL     1     -18.498  41.796  10.765  1.00  0.00     0.185 HD
BRANCH  16  18
HETATM   18  N4  UNL     1     -17.076  41.840  12.289  1.00  0.00    -0.345 N 
ATOM     19  H42 UNL     1     -16.333  41.151  12.408  1.00  0.00     0.176 HD
ATOM     20  H41 UNL     1     -16.941  42.799  12.609  1.00  0.00     0.176 HD
ENDBRANCH  16  18
ENDBRANCH   7  15
TORSDOF 4
ENDMDL
MODEL 3
REMARK VINA RESULT: -6.143642232      3.103      4.915
REMARK  4 active torsions:
REMARK  status: ('A' for Active; 'I' for Inactive)
REMARK    1  A    between atoms: C3_4  and  O1_5 
REMARK    2  A    between atoms: O1_5  and  C4_6 
REMARK    3  A    between atoms: C10_14  and  C11_15 
REMARK    4  A    between atoms: N3_16  and  N4_18 
ROOT
HETATM    1  C1  UNL     1     -25.935  37.236  10.948  1.00  0.00     0.156 C 
HETATM    2  N1  UNL     1     -24.990  37.610   9.888  1.00  0.00    -0.357 N 
HETATM    3  C2  UNL     1     -23.738  37.982  10.209  1.00  0.00     0.128 A 
HETATM    4  C3  UNL     1     -22.767  38.356   9.265  1.00  0.00     0.091 A 
HETATM    5  C8  UNL     1     -23.188  38.315   7.953  1.00  0.00     0.041 A 
HETATM    6  C9  UNL     1     -24.477  37.931   7.631  1.00  0.00     0.034 A 
HETATM    7  C10 UNL     1     -25.401  37.570   8.616  1.00  0.00     0.051 A 
ENDROOT
BRANCH   4   8
HETATM    8  O1  UNL     1     -21.567  38.701   9.725  1.00  0.00    -0.308 OA
BRANCH   8   9
HETATM    9  C4  UNL     1     -20.981  39.452  10.625  1.00  0.00     0.092 A 
HETATM   10  C5  UNL     1     -21.200  40.731  11.050  1.00  0.00     0.055 A 
HETATM   11  C6  UNL     1     -20.276  41.065  12.054  1.00  0.00     0.090 A 
HETATM   12  N2  UNL     1     -19.520  39.988  12.215  1.00  0.00    -0.373 N 
HETATM   13  C7  UNL     1     -19.890  38.999  11.396  1.00  0.00     0.124 A 
ATOM     14  H2  UNL     1     -18.750  39.922  12.883  1.00  0.00     0.164 HD
ENDBRANCH   8   9
ENDBRANCH   4   8
BRANCH   7  15
HETATM   15  C11 UNL     1     -26.736  37.176   8.229  1.00  0.00     0.136 C 
HETATM   16  N3  UNL     1     -27.064  36.173   7.521  1.00  0.00    -0.316 N 
ATOM     17  H3  UNL     1     -26.333  35.556   7.167  1.00  0.00     0.185 HD
BRANCH  16  18
HETATM   18  N4  UNL     1     -28.389  35.895   7.214  1.00  0.00    -0.345 N 
ATOM     19  H42 UNL     1     -29.108  36.201   7.870  1.00  0.00     0.176 HD
ATOM     20  H41 UNL     1     -28.651  35.399   6.361  1.00  0.00     0.176 HD
ENDBRANCH  16  18
ENDBRANCH   7  15
TORSDOF 4
ENDMDL
MODEL 4
REMARK VINA RESULT: -6.116475285      2.620      7.154
REMARK  4 active torsions:
REMARK  status: ('A' for Active; 'I' for Inactive)
REMARK    1  A    between atoms: C3_4  and  O1_5 
REMARK    2  A    between atoms: O1_5  and  C4_6 
REMARK    3  A    between atoms: C10_14  and  C11_15 
REMARK    4  A    between atoms: N3_16  and  N4_18 
ROOT
HETATM    1  C1  UNL     1     -19.464  38.079  11.002  1.00  0.00     0.156 C 
HETATM    2  N1  UNL     1     -20.591  39.004  11.172  1.00  0.00    -0.357 N 
HETATM    3  C2  UNL     1     -21.812  38.660  10.726  1.00  0.00     0.128 A 
HETATM    4  C3  UNL     1     -22.948  39.479  10.844  1.00  0.00     0.091 A 
HETATM    5  C8  UNL     1     -22.727  40.690  11.464  1.00  0.00     0.041 A 
HETATM    6  C9  UNL     1     -21.468  41.037  11.921  1.00  0.00     0.034 A 
HETATM    7  C10 UNL     1     -20.374  40.179  11.774  1.00  0.00     0.051 A 
ENDROOT
BRANCH   4   8
HETATM    8  O1  UNL     1     -24.094  39.011  10.356  1.00  0.00    -0.308 OA
BRANCH   8   9
HETATM    9  C4  UNL     1     -24.773  37.901  10.195  1.00  0.00     0.092 A 
HETATM   10  C5  UNL     1     -24.756  36.936   9.231  1.00  0.00     0.055 A 
HETATM   11  C6  UNL     1     -25.698  35.940   9.536  1.00  0.00     0.090 A 
HETATM   12  N2  UNL     1     -26.266  36.321  10.672  1.00  0.00    -0.373 N 
HETATM   13  C7  UNL     1     -25.759  37.477  11.112  1.00  0.00     0.124 A 
ATOM     14  H2  UNL     1     -26.999  35.797  11.151  1.00  0.00     0.164 HD
ENDBRANCH   8   9
ENDBRANCH   4   8
BRANCH   7  15
HETATM   15  C11 UNL     1     -19.079  40.586  12.268  1.00  0.00     0.136 C 
HETATM   16  N3  UNL     1     -18.286  41.425  11.737  1.00  0.00    -0.316 N 
ATOM     17  H3  UNL     1     -18.558  41.882  10.866  1.00  0.00     0.185 HD
BRANCH  16  18
HETATM   18  N4  UNL     1     -17.059  41.737  12.308  1.00  0.00    -0.345 N 
ATOM     19  H42 UNL     1     -16.739  41.171  13.095  1.00  0.00     0.176 HD
ATOM     20  H41 UNL     1     -16.485  42.506  11.962  1.00  0.00     0.176 HD
ENDBRANCH  16  18
ENDBRANCH   7  15
TORSDOF 4
ENDMDL
MODEL 5
REMARK VINA RESULT: -6.105205274      2.881      4.694
REMARK  4 active torsions:
REMARK  status: ('A' for Active; 'I' for Inactive)
REMARK    1  A    between atoms: C3_4  and  O1_5 
REMARK    2  A    between atoms: O1_5  and  C4_6 
REMARK    3  A    between atoms: C10_14  and  C11_15 
REMARK    4  A    between atoms: N3_16  and  N4_18 
ROOT
HETATM    1  C1  UNL     1     -25.960  38.177  12.008  1.00  0.00     0.156 C 
HETATM    2  N1  UNL     1     -24.984  37.981  10.929  1.00  0.00    -0.357 N 
HETATM    3  C2  UNL     1     -23.907  38.782  10.848  1.00  0.00     0.128 A 
HETATM    4  C3  UNL     1     -22.922  38.669   9.852  1.00  0.00     0.091 A 
HETATM    5  C8  UNL     1     -23.134  37.659   8.938  1.00  0.00     0.041 A 
HETATM    6  C9  UNL     1     -24.245  36.839   9.028  1.00  0.00     0.034 A 
HETATM    7  C10 UNL     1     -25.193  37.000  10.043  1.00  0.00     0.051 A 
ENDROOT
BRANCH   4   8
HETATM    8  O1  UNL     1     -21.908  39.530   9.893  1.00  0.00    -0.308 OA
BRANCH   8   9
HETATM    9  C4  UNL     1     -20.937  39.948  10.668  1.00  0.00     0.092 A 
HETATM   10  C5  UNL     1     -20.507  41.193  11.024  1.00  0.00     0.055 A 
HETATM   11  C6  UNL     1     -19.408  41.088  11.893  1.00  0.00     0.090 A 
HETATM   12  N2  UNL     1     -19.195  39.788  12.043  1.00  0.00    -0.373 N 
HETATM   13  C7  UNL     1     -20.070  39.061  11.342  1.00  0.00     0.124 A 
ATOM     14  H2  UNL     1     -18.455  39.391  12.623  1.00  0.00     0.164 HD
ENDBRANCH   8   9
ENDBRANCH   4   8
BRANCH   7  15
HETATM   15  C11 UNL     1     -26.337  36.119  10.096  1.00  0.00     0.136 C 
HETATM   16  N3  UNL     1     -26.442  34.969   9.564  1.00  0.00    -0.316 N 
ATOM     17  H3  UNL     1     -25.656  34.593   9.035  1.00  0.00     0.185 HD
BRANCH  16  18
HETATM   18  N4  UNL     1     -27.600  34.211   9.684  1.00  0.00    -0.345 N 
ATOM     19  H42 UNL     1     -27.509  33.195   9.685  1.00  0.00     0.176 HD
ATOM     20  H41 UNL     1     -28.520  34.644   9.769  1.00  0.00     0.176 HD
ENDBRANCH  16  18
ENDBRANCH   7  15
TORSDOF 4
ENDMDL
