MODEL 1
REMARK VINA RESULT: -7.423640893      0.000      0.000
REMARK  3 active torsions:
REMARK  status: ('A' for Active; 'I' for Inactive)
REMARK    1  A    between atoms: C5_9  and  C6_10 
REMARK    2  A    between atoms: C6_10  and  O2_11 
REMARK    3  A    between atoms: O2_11  and  C7_12 
ROOT
HETATM    1  N1  UNL     1     -25.205  38.439   6.475  1.00  0.00    -0.102 NA
HETATM    2  C1  UNL     1     -25.506  37.482   7.482  1.00  0.00     0.061 A 
HETATM    3  C2  UNL     1     -26.725  36.789   7.468  1.00  0.00     0.101 A 
HETATM    4  C3  UNL     1     -26.949  35.875   8.477  1.00  0.00     0.246 A 
HETATM    5  O1  UNL     1     -28.058  35.249   8.457  1.00  0.00    -0.268 OA
HETATM    6  N2  UNL     1     -26.036  35.657   9.434  1.00  0.00    -0.333 N 
ATOM      7  H2  UNL     1     -26.226  34.976  10.170  1.00  0.00     0.168 HD
HETATM    8  C4  UNL     1     -24.866  36.333   9.433  1.00  0.00     0.102 A 
HETATM    9  C5  UNL     1     -24.576  37.255   8.464  1.00  0.00     0.006 A 
ENDROOT
BRANCH   9  10
HETATM   10  C6  UNL     1     -23.295  37.983   8.479  1.00  0.00     0.217 C 
BRANCH  10  11
HETATM   11  O2  UNL     1     -22.693  38.009   9.743  1.00  0.00    -0.347 OA
BRANCH  11  12
HETATM   12  C7  UNL     1     -22.830  39.141  10.533  1.00  0.00     0.069 A 
HETATM   13  C8  UNL     1     -24.054  39.538  11.047  1.00  0.00     0.037 A 
HETATM   14  C9  UNL     1     -24.187  40.676  11.840  1.00  0.00     0.003 A 
HETATM   15  C10 UNL     1     -23.082  41.441  12.132  1.00  0.00     0.000 A 
HETATM   16  C11 UNL     1     -21.855  41.063  11.631  1.00  0.00     0.003 A 
HETATM   17  C12 UNL     1     -21.740  39.932  10.847  1.00  0.00     0.037 A 
ENDBRANCH  11  12
ENDBRANCH  10  11
ENDBRANCH   9  10
TORSDOF 3
ENDMDL
MODEL 2
REMARK VINA RESULT: -7.419206448      0.037      1.183
REMARK  3 active torsions:
REMARK  status: ('A' for Active; 'I' for Inactive)
REMARK    1  A    between atoms: C5_9  and  C6_10 
REMARK    2  A    between atoms: C6_10  and  O2_11 
REMARK    3  A    between atoms: O2_11  and  C7_12 
ROOT
HETATM    1  N1  UNL     1     -25.175  38.429   6.472  1.00  0.00    -0.102 NA
HETATM    2  C1  UNL     1     -25.494  37.475   7.477  1.00  0.00     0.061 A 
HETATM    3  C2  UNL     1     -26.726  36.805   7.460  1.00  0.00     0.101 A 
HETATM    4  C3  UNL     1     -26.968  35.893   8.466  1.00  0.00     0.246 A 
HETATM    5  O1  UNL     1     -28.088  35.287   8.444  1.00  0.00    -0.268 OA
HETATM    6  N2  UNL     1     -26.061  35.657   9.425  1.00  0.00    -0.333 N 
ATOM      7  H2  UNL     1     -26.265  34.978  10.159  1.00  0.00     0.168 HD
HETATM    8  C4  UNL     1     -24.879  36.311   9.427  1.00  0.00     0.102 A 
HETATM    9  C5  UNL     1     -24.570  37.230   8.460  1.00  0.00     0.006 A 
ENDROOT
BRANCH   9  10
HETATM   10  C6  UNL     1     -23.276  37.934   8.478  1.00  0.00     0.217 C 
BRANCH  10  11
HETATM   11  O2  UNL     1     -22.689  37.971   9.750  1.00  0.00    -0.347 OA
BRANCH  11  12
HETATM   12  C7  UNL     1     -22.820  39.116  10.522  1.00  0.00     0.069 A 
HETATM   13  C8  UNL     1     -21.736  39.919  10.840  1.00  0.00     0.037 A 
HETATM   14  C9  UNL     1     -21.872  41.068  11.615  1.00  0.00     0.003 A 
HETATM   15  C10 UNL     1     -23.112  41.433  12.088  1.00  0.00     0.000 A 
HETATM   16  C11 UNL     1     -24.202  40.648  11.782  1.00  0.00     0.003 A 
HETATM   17  C12 UNL     1     -24.050  39.512  11.012  1.00  0.00     0.037 A 
ENDBRANCH  11  12
ENDBRANCH  10  11
ENDBRANCH   9  10
TORSDOF 3
ENDMDL
MODEL 3
REMARK VINA RESULT: -7.028195843      1.193      1.707
REMARK  3 active torsions:
REMARK  status: ('A' for Active; 'I' for Inactive)
REMARK    1  A    between atoms: C5_9  and  C6_10 
REMARK    2  A    between atoms: C6_10  and  O2_11 
REMARK    3  A    between atoms: O2_11  and  C7_12 
ROOT
HETATM    1  N1  UNL     1     -25.100  38.415   6.449  1.00  0.00    -0.102 NA
HETATM    2  C1  UNL     1     -25.413  37.515   7.504  1.00  0.00     0.061 A 
HETATM    3  C2  UNL     1     -26.674  36.904   7.570  1.00  0.00     0.101 A 
HETATM    4  C3  UNL     1     -26.908  36.042   8.621  1.00  0.00     0.246 A 
HETATM    5  O1  UNL     1     -28.055  35.490   8.675  1.00  0.00    -0.268 OA
HETATM    6  N2  UNL     1     -25.967  35.798   9.545  1.00  0.00    -0.333 N 
ATOM      7  H2  UNL     1     -26.166  35.156  10.313  1.00  0.00     0.168 HD
HETATM    8  C4  UNL     1     -24.758  36.395   9.466  1.00  0.00     0.102 A 
HETATM    9  C5  UNL     1     -24.454  37.262   8.451  1.00  0.00     0.006 A 
ENDROOT
BRANCH   9  10
HETATM   10  C6  UNL     1     -23.130  37.903   8.381  1.00  0.00     0.217 C 
BRANCH  10  11
HETATM   11  O2  UNL     1     -22.228  37.406   9.331  1.00  0.00    -0.347 OA
BRANCH  11  12
HETATM   12  C7  UNL     1     -21.494  38.300  10.098  1.00  0.00     0.069 A 
HETATM   13  C8  UNL     1     -21.923  39.597  10.332  1.00  0.00     0.037 A 
HETATM   14  C9  UNL     1     -21.184  40.490  11.103  1.00  0.00     0.003 A 
HETATM   15  C10 UNL     1     -19.989  40.092  11.656  1.00  0.00     0.000 A 
HETATM   16  C11 UNL     1     -19.545  38.806  11.436  1.00  0.00     0.003 A 
HETATM   17  C12 UNL     1     -20.291  37.933  10.670  1.00  0.00     0.037 A 
ENDBRANCH  11  12
ENDBRANCH  10  11
ENDBRANCH   9  10
TORSDOF 3
ENDMDL
MODEL 4
REMARK VINA RESULT: -6.984292455      2.240      3.264
REMARK  3 active torsions:
REMARK  status: ('A' for Active; 'I' for Inactive)
REMARK    1  A    between atoms: C5_9  and  C6_10 
REMARK    2  A    between atoms: C6_10  and  O2_11 
REMARK    3  A    between atoms: O2_11  and  C7_12 
ROOT
HETATM    1  N1  UNL     1     -22.186  37.829   9.960  1.00  0.00    -0.102 NA
HETATM    2  C1  UNL     1     -23.446  38.179   9.402  1.00  0.00     0.061 A 
HETATM    3  C2  UNL     1     -23.729  37.911   8.055  1.00  0.00     0.101 A 
HETATM    4  C3  UNL     1     -24.972  38.278   7.582  1.00  0.00     0.246 A 
HETATM    5  O1  UNL     1     -25.223  38.032   6.357  1.00  0.00    -0.268 OA
HETATM    6  N2  UNL     1     -25.874  38.869   8.378  1.00  0.00    -0.333 N 
ATOM      7  H2  UNL     1     -26.786  39.131   8.004  1.00  0.00     0.168 HD
HETATM    8  C4  UNL     1     -25.585  39.120   9.674  1.00  0.00     0.102 A 
HETATM    9  C5  UNL     1     -24.371  38.784  10.213  1.00  0.00     0.006 A 
ENDROOT
BRANCH   9  10
HETATM   10  C6  UNL     1     -24.074  39.065  11.628  1.00  0.00     0.217 C 
BRANCH  10  11
HETATM   11  O2  UNL     1     -23.623  40.373  11.845  1.00  0.00    -0.347 OA
BRANCH  11  12
HETATM   12  C7  UNL     1     -22.262  40.605  11.982  1.00  0.00     0.069 A 
HETATM   13  C8  UNL     1     -21.581  40.327  13.157  1.00  0.00     0.037 A 
HETATM   14  C9  UNL     1     -20.215  40.561  13.290  1.00  0.00     0.003 A 
HETATM   15  C10 UNL     1     -19.503  41.083  12.235  1.00  0.00     0.000 A 
HETATM   16  C11 UNL     1     -20.161  41.365  11.058  1.00  0.00     0.003 A 
HETATM   17  C12 UNL     1     -21.516  41.127  10.942  1.00  0.00     0.037 A 
ENDBRANCH  11  12
ENDBRANCH  10  11
ENDBRANCH   9  10
TORSDOF 3
ENDMDL
MODEL 5
REMARK VINA RESULT: -6.912215054      2.879      5.901
REMARK  3 active torsions:
REMARK  status: ('A' for Active; 'I' for Inactive)
REMARK    1  A    between atoms: C5_9  and  C6_10 
REMARK    2  A    between atoms: C6_10  and  O2_11 
REMARK    3  A    between atoms: O2_11  and  C7_12 
ROOT
HETATM    1  N1  UNL     1     -22.071  36.537   8.802  1.00  0.00    -0.102 NA
HETATM    2  C1  UNL     1     -21.718  37.550   9.735  1.00  0.00     0.061 A 
HETATM    3  C2  UNL     1     -20.413  37.631  10.241  1.00  0.00     0.101 A 
HETATM    4  C3  UNL     1     -20.141  38.639  11.143  1.00  0.00     0.246 A 
HETATM    5  O1  UNL     1     -18.954  38.706  11.598  1.00  0.00    -0.268 OA
HETATM    6  N2  UNL     1     -21.089  39.508  11.521  1.00  0.00    -0.333 N 
ATOM      7  H2  UNL     1     -20.863  40.245  12.190  1.00  0.00     0.168 HD
HETATM    8  C4  UNL     1     -22.342  39.417  11.024  1.00  0.00     0.102 A 
HETATM    9  C5  UNL     1     -22.684  38.441  10.125  1.00  0.00     0.006 A 
ENDROOT
BRANCH   9  10
HETATM   10  C6  UNL     1     -24.055  38.357   9.593  1.00  0.00     0.217 C 
BRANCH  10  11
HETATM   11  O2  UNL     1     -25.023  38.199  10.593  1.00  0.00    -0.347 OA
BRANCH  11  12
HETATM   12  C7  UNL     1     -25.857  37.091  10.557  1.00  0.00     0.069 A 
HETATM   13  C8  UNL     1     -26.749  36.806  11.579  1.00  0.00     0.037 A 
HETATM   14  C9  UNL     1     -27.584  35.692  11.539  1.00  0.00     0.003 A 
HETATM   15  C10 UNL     1     -27.537  34.839  10.461  1.00  0.00     0.000 A 
HETATM   16  C11 UNL     1     -26.657  35.105   9.435  1.00  0.00     0.003 A 
HETATM   17  C12 UNL     1     -25.836  36.213   9.490  1.00  0.00     0.037 A 
ENDBRANCH  11  12
ENDBRANCH  10  11
ENDBRANCH   9  10
TORSDOF 3
ENDMDL
