MODEL 1
REMARK VINA RESULT: -5.565275027      0.000      0.000
REMARK  5 active torsions:
REMARK  status: ('A' for Active; 'I' for Inactive)
REMARK    1  A    between atoms: C2_2  and  C4_4 
REMARK    2  A    between atoms: C4_4  and  C5_5 
REMARK    3  A    between atoms: C17_22  and  N3_23 
REMARK       I    between atoms: N3_23  and  C18_25 
REMARK    4  A    between atoms: C18_25  and  C19_27 
REMARK    5  A    between atoms: C19_27  and  N4_28 
ROOT
HETATM    1  C5  UNL     1       1.209  20.720  -4.050  1.00  0.00     0.177 C 
HETATM    2  N1  UNL     1      -0.111  20.913  -4.542  1.00  0.00    -0.347 N 
ATOM      3  H1  UNL     1      -0.503  21.851  -4.457  1.00  0.00     0.163 HD
HETATM    4  C6  UNL     1      -0.937  19.921  -5.142  1.00  0.00     0.223 C 
HETATM    5  O1  UNL     1      -2.140  20.230  -5.387  1.00  0.00    -0.273 OA
HETATM    6  C7  UNL     1      -0.466  18.574  -5.486  1.00  0.00     0.089 C 
HETATM    7  C8  UNL     1      -1.575  17.639  -5.885  1.00  0.00     0.015 C 
HETATM    8  C9  UNL     1      -0.689  17.210  -7.063  1.00  0.00     0.014 C 
HETATM    9  C10 UNL     1      -0.034  18.569  -6.953  1.00  0.00     0.069 C 
HETATM   10  C11 UNL     1       1.436  18.588  -6.971  1.00  0.00     0.141 C 
HETATM   11  O2  UNL     1       1.979  17.794  -6.183  1.00  0.00    -0.297 OA
HETATM   12  C12 UNL     1       2.305  19.411  -7.786  1.00  0.00     0.131 C 
HETATM   13  C13 UNL     1       2.583  20.798  -7.353  1.00  0.00     0.125 C 
HETATM   14  C14 UNL     1       1.434  21.570  -7.934  1.00  0.00     0.265 C 
HETATM   15  N2  UNL     1       1.444  21.030  -9.310  1.00  0.00    -0.051 N 
HETATM   16  C15 UNL     1       2.479  21.711 -10.021  1.00  0.00     0.274 C 
HETATM   17  C16 UNL     1       0.141  21.379  -9.858  1.00  0.00     0.274 C 
HETATM   18  C17 UNL     1       1.598  19.633  -9.132  1.00  0.00     0.303 C 
HETATM   19  N5  UNL     1       2.939  21.041  -6.005  1.00  0.00    -0.352 N 
ATOM     20  H5  UNL     1       3.936  20.908  -5.834  1.00  0.00     0.163 HD
HETATM   21  C23 UNL     1       2.247  21.420  -4.859  1.00  0.00     0.240 C 
HETATM   22  O4  UNL     1       2.535  22.590  -4.381  1.00  0.00    -0.271 OA
ENDROOT
BRANCH  18  23
HETATM   23  N3  UNL     1       2.344  18.924 -10.126  1.00  0.00    -0.331 N 
HETATM   24  C18 UNL     1       1.818  18.278 -11.249  1.00  0.00     0.245 C 
HETATM   25  O3  UNL     1       0.586  18.304 -11.433  1.00  0.00    -0.272 OA
ATOM     26  H3  UNL     1       3.356  18.887 -10.004  1.00  0.00     0.164 HD
BRANCH  24  27
HETATM   27  C19 UNL     1       2.678  17.577 -12.208  1.00  0.00     0.338 C 
BRANCH  27  28
HETATM   28  N4  UNL     1       3.422  18.463 -13.080  1.00  0.00    -0.070 N 
HETATM   29  C20 UNL     1       4.698  18.833 -12.553  1.00  0.00     0.272 C 
HETATM   30  C21 UNL     1       3.669  17.732 -14.330  1.00  0.00     0.272 C 
HETATM   31  C22 UNL     1       2.672  19.653 -13.425  1.00  0.00     0.272 C 
ENDBRANCH  27  28
ENDBRANCH  24  27
ENDBRANCH  18  23
BRANCH   1  32
HETATM   32  C4  UNL     1       1.312  21.109  -2.600  1.00  0.00     0.038 C 
BRANCH  32  33
HETATM   33  C2  UNL     1       1.440  20.089  -1.574  1.00  0.00    -0.020 C 
HETATM   34  C1  UNL     1       2.799  19.937  -0.991  1.00  0.00     0.009 C 
HETATM   35  C3  UNL     1       1.127  18.732  -2.256  1.00  0.00     0.009 C 
ENDBRANCH  32  33
ENDBRANCH   1  32
TORSDOF 5
ENDMDL
MODEL 2
REMARK VINA RESULT: -5.457646151      3.292      4.867
REMARK  5 active torsions:
REMARK  status: ('A' for Active; 'I' for Inactive)
REMARK    1  A    between atoms: C2_2  and  C4_4 
REMARK    2  A    between atoms: C4_4  and  C5_5 
REMARK    3  A    between atoms: C17_22  and  N3_23 
REMARK       I    between atoms: N3_23  and  C18_25 
REMARK    4  A    between atoms: C18_25  and  C19_27 
REMARK    5  A    between atoms: C19_27  and  N4_28 
ROOT
HETATM    1  C5  UNL     1       2.185  21.290  -7.446  1.00  0.00     0.177 C 
HETATM    2  N1  UNL     1       0.791  21.547  -7.542  1.00  0.00    -0.347 N 
ATOM      3  H1  UNL     1       0.492  22.214  -8.254  1.00  0.00     0.163 HD
HETATM    4  C6  UNL     1      -0.229  20.961  -6.740  1.00  0.00     0.223 C 
HETATM    5  O1  UNL     1      -1.404  21.416  -6.861  1.00  0.00    -0.273 OA
HETATM    6  C7  UNL     1       0.015  19.869  -5.791  1.00  0.00     0.089 C 
HETATM    7  C8  UNL     1      -1.160  19.583  -4.896  1.00  0.00     0.015 C 
HETATM    8  C9  UNL     1      -0.932  18.095  -5.193  1.00  0.00     0.014 C 
HETATM    9  C10 UNL     1      -0.290  18.541  -6.488  1.00  0.00     0.069 C 
HETATM   10  C11 UNL     1       1.002  17.923  -6.822  1.00  0.00     0.141 C 
HETATM   11  O2  UNL     1       1.843  17.940  -5.907  1.00  0.00    -0.297 OA
HETATM   12  C12 UNL     1       1.396  17.308  -8.074  1.00  0.00     0.131 C 
HETATM   13  C13 UNL     1       1.856  18.177  -9.179  1.00  0.00     0.125 C 
HETATM   14  C14 UNL     1       0.576  18.563  -9.861  1.00  0.00     0.265 C 
HETATM   15  N2  UNL     1      -0.063  17.234  -9.958  1.00  0.00    -0.051 N 
HETATM   16  C15 UNL     1       0.525  16.566 -11.074  1.00  0.00     0.274 C 
HETATM   17  C16 UNL     1      -1.468  17.513 -10.219  1.00  0.00     0.274 C 
HETATM   18  C17 UNL     1       0.144  16.657  -8.680  1.00  0.00     0.303 C 
HETATM   19  N5  UNL     1       2.803  19.193  -8.909  1.00  0.00    -0.352 N 
ATOM     20  H5  UNL     1       3.764  18.849  -8.929  1.00  0.00     0.163 HD
HETATM   21  C23 UNL     1       2.731  20.552  -8.621  1.00  0.00     0.240 C 
HETATM   22  O4  UNL     1       3.220  21.351  -9.518  1.00  0.00    -0.271 OA
ENDROOT
BRANCH  18  23
HETATM   23  N3  UNL     1       0.333  15.239  -8.624  1.00  0.00    -0.331 N 
HETATM   24  C18 UNL     1      -0.665  14.281  -8.422  1.00  0.00     0.245 C 
HETATM   25  O3  UNL     1      -1.842  14.663  -8.274  1.00  0.00    -0.272 OA
ATOM     26  H3  UNL     1       1.286  14.896  -8.744  1.00  0.00     0.164 HD
BRANCH  24  27
HETATM   27  C19 UNL     1      -0.359  12.847  -8.381  1.00  0.00     0.338 C 
BRANCH  27  28
HETATM   28  N4  UNL     1      -0.655  12.153  -9.617  1.00  0.00    -0.070 N 
HETATM   29  C20 UNL     1      -0.050  12.758 -10.763  1.00  0.00     0.272 C 
HETATM   30  C21 UNL     1      -0.092  10.802  -9.499  1.00  0.00     0.272 C 
HETATM   31  C22 UNL     1      -2.078  12.003  -9.837  1.00  0.00     0.272 C 
ENDBRANCH  27  28
ENDBRANCH  24  27
ENDBRANCH  18  23
BRANCH   1  32
HETATM   32  C4  UNL     1       2.958  22.560  -7.209  1.00  0.00     0.038 C 
BRANCH  32  33
HETATM   33  C2  UNL     1       3.458  22.877  -5.883  1.00  0.00    -0.020 C 
HETATM   34  C1  UNL     1       4.890  23.271  -5.817  1.00  0.00     0.009 C 
HETATM   35  C3  UNL     1       3.346  21.578  -5.043  1.00  0.00     0.009 C 
ENDBRANCH  32  33
ENDBRANCH   1  32
TORSDOF 5
ENDMDL
MODEL 3
REMARK VINA RESULT: -5.409945932      4.975      7.791
REMARK  5 active torsions:
REMARK  status: ('A' for Active; 'I' for Inactive)
REMARK    1  A    between atoms: C2_2  and  C4_4 
REMARK    2  A    between atoms: C4_4  and  C5_5 
REMARK    3  A    between atoms: C17_22  and  N3_23 
REMARK       I    between atoms: N3_23  and  C18_25 
REMARK    4  A    between atoms: C18_25  and  C19_27 
REMARK    5  A    between atoms: C19_27  and  N4_28 
ROOT
HETATM    1  C5  UNL     1      -0.505  11.734  -9.609  1.00  0.00     0.177 C 
HETATM    2  N1  UNL     1      -1.779  12.361  -9.567  1.00  0.00    -0.347 N 
ATOM      3  H1  UNL     1      -2.284  12.322  -8.681  1.00  0.00     0.163 HD
HETATM    4  C6  UNL     1      -2.419  13.039 -10.644  1.00  0.00     0.223 C 
HETATM    5  O1  UNL     1      -3.617  13.409 -10.475  1.00  0.00    -0.273 OA
HETATM    6  C7  UNL     1      -1.761  13.325 -11.925  1.00  0.00     0.089 C 
HETATM    7  C8  UNL     1      -2.706  13.833 -12.979  1.00  0.00     0.015 C 
HETATM    8  C9  UNL     1      -1.659  14.910 -13.294  1.00  0.00     0.014 C 
HETATM    9  C10 UNL     1      -1.182  14.740 -11.869  1.00  0.00     0.069 C 
HETATM   10  C11 UNL     1       0.270  14.605 -11.680  1.00  0.00     0.141 C 
HETATM   11  O2  UNL     1       0.817  13.761 -12.411  1.00  0.00    -0.297 OA
HETATM   12  C12 UNL     1       1.118  15.329 -10.756  1.00  0.00     0.131 C 
HETATM   13  C13 UNL     1       1.186  14.876  -9.349  1.00  0.00     0.125 C 
HETATM   14  C14 UNL     1       0.023  15.578  -8.712  1.00  0.00     0.265 C 
HETATM   15  N2  UNL     1       0.238  16.943  -9.237  1.00  0.00    -0.051 N 
HETATM   16  C15 UNL     1       1.255  17.545  -8.435  1.00  0.00     0.274 C 
HETATM   17  C16 UNL     1      -1.033  17.625  -9.037  1.00  0.00     0.274 C 
HETATM   18  C17 UNL     1       0.534  16.743 -10.608  1.00  0.00     0.303 C 
HETATM   19  N5  UNL     1       1.370  13.500  -9.076  1.00  0.00    -0.352 N 
ATOM     20  H5  UNL     1       2.352  13.225  -9.094  1.00  0.00     0.163 HD
HETATM   21  C23 UNL     1       0.524  12.434  -8.788  1.00  0.00     0.240 C 
HETATM   22  O4  UNL     1       0.623  11.934  -7.596  1.00  0.00    -0.271 OA
ENDROOT
BRANCH  18  23
HETATM   23  N3  UNL     1       1.456  17.650 -11.218  1.00  0.00    -0.331 N 
HETATM   24  C18 UNL     1       1.295  18.286 -12.453  1.00  0.00     0.245 C 
HETATM   25  O3  UNL     1       0.259  18.065 -13.110  1.00  0.00    -0.272 OA
ATOM     26  H3  UNL     1       2.314  17.853 -10.704  1.00  0.00     0.164 HD
BRANCH  24  27
HETATM   27  C19 UNL     1       2.309  19.201 -12.987  1.00  0.00     0.338 C 
BRANCH  27  28
HETATM   28  N4  UNL     1       3.429  18.528 -13.613  1.00  0.00    -0.070 N 
HETATM   29  C20 UNL     1       3.104  17.222 -14.094  1.00  0.00     0.272 C 
HETATM   30  C21 UNL     1       3.818  19.331 -14.779  1.00  0.00     0.272 C 
HETATM   31  C22 UNL     1       4.583  18.455 -12.742  1.00  0.00     0.272 C 
ENDBRANCH  27  28
ENDBRANCH  24  27
ENDBRANCH  18  23
BRANCH   1  32
HETATM   32  C4  UNL     1      -0.599  10.283  -9.221  1.00  0.00     0.038 C 
BRANCH  32  33
HETATM   33  C2  UNL     1      -1.412   9.367 -10.001  1.00  0.00    -0.020 C 
HETATM   34  C1  UNL     1      -2.769   9.095  -9.457  1.00  0.00     0.009 C 
HETATM   35  C3  UNL     1      -0.678   8.001  -9.988  1.00  0.00     0.009 C 
ENDBRANCH  32  33
ENDBRANCH   1  32
TORSDOF 5
ENDMDL
MODEL 4
REMARK VINA RESULT: -5.309552601      5.079      9.548
REMARK  5 active torsions:
REMARK  status: ('A' for Active; 'I' for Inactive)
REMARK    1  A    between atoms: C2_2  and  C4_4 
REMARK    2  A    between atoms: C4_4  and  C5_5 
REMARK    3  A    between atoms: C17_22  and  N3_23 
REMARK       I    between atoms: N3_23  and  C18_25 
REMARK    4  A    between atoms: C18_25  and  C19_27 
REMARK    5  A    between atoms: C19_27  and  N4_28 
ROOT
HETATM    1  C5  UNL     1      -2.895  17.471  -4.440  1.00  0.00     0.177 C 
HETATM    2  N1  UNL     1      -2.324  18.492  -5.246  1.00  0.00    -0.347 N 
ATOM      3  H1  UNL     1      -2.950  18.977  -5.890  1.00  0.00     0.163 HD
HETATM    4  C6  UNL     1      -0.961  18.904  -5.241  1.00  0.00     0.223 C 
HETATM    5  O1  UNL     1      -0.594  19.726  -6.130  1.00  0.00    -0.273 OA
HETATM    6  C7  UNL     1       0.025  18.426  -4.266  1.00  0.00     0.089 C 
HETATM    7  C8  UNL     1       1.438  18.815  -4.606  1.00  0.00     0.015 C 
HETATM    8  C9  UNL     1       1.602  19.225  -3.137  1.00  0.00     0.014 C 
HETATM    9  C10 UNL     1       0.104  19.435  -3.118  1.00  0.00     0.069 C 
HETATM   10  C11 UNL     1      -0.621  18.852  -1.980  1.00  0.00     0.141 C 
HETATM   11  O2  UNL     1      -0.360  17.658  -1.748  1.00  0.00    -0.297 OA
HETATM   12  C12 UNL     1      -1.588  19.498  -1.116  1.00  0.00     0.131 C 
HETATM   13  C13 UNL     1      -2.989  19.613  -1.576  1.00  0.00     0.125 C 
HETATM   14  C14 UNL     1      -2.977  20.879  -2.382  1.00  0.00     0.265 C 
HETATM   15  N2  UNL     1      -2.256  21.763  -1.443  1.00  0.00    -0.051 N 
HETATM   16  C15 UNL     1      -3.201  22.197  -0.465  1.00  0.00     0.274 C 
HETATM   17  C16 UNL     1      -1.815  22.890  -2.255  1.00  0.00     0.274 C 
HETATM   18  C17 UNL     1      -1.174  20.972  -0.985  1.00  0.00     0.303 C 
HETATM   19  N5  UNL     1      -3.630  18.476  -2.124  1.00  0.00    -0.352 N 
ATOM     20  H5  UNL     1      -4.032  17.871  -1.408  1.00  0.00     0.163 HD
HETATM   21  C23 UNL     1      -3.839  17.991  -3.410  1.00  0.00     0.240 C 
HETATM   22  O4  UNL     1      -5.069  17.973  -3.820  1.00  0.00    -0.271 OA
ENDROOT
BRANCH  18  23
HETATM   23  N3  UNL     1      -0.739  21.174   0.363  1.00  0.00    -0.331 N 
HETATM   24  C18 UNL     1       0.586  21.194   0.809  1.00  0.00     0.245 C 
HETATM   25  O3  UNL     1       1.501  21.024  -0.021  1.00  0.00    -0.272 OA
ATOM     26  H3  UNL     1      -1.465  21.317   1.065  1.00  0.00     0.164 HD
BRANCH  24  27
HETATM   27  C19 UNL     1       0.921  21.409   2.221  1.00  0.00     0.338 C 
BRANCH  27  28
HETATM   28  N4  UNL     1       1.086  22.803   2.575  1.00  0.00    -0.070 N 
HETATM   29  C20 UNL     1      -0.155  23.485   2.774  1.00  0.00     0.272 C 
HETATM   30  C21 UNL     1       1.808  22.842   3.853  1.00  0.00     0.272 C 
HETATM   31  C22 UNL     1       1.890  23.524   1.610  1.00  0.00     0.272 C 
ENDBRANCH  27  28
ENDBRANCH  24  27
ENDBRANCH  18  23
BRANCH   1  32
HETATM   32  C4  UNL     1      -3.557  16.417  -5.286  1.00  0.00     0.038 C 
BRANCH  32  33
HETATM   33  C2  UNL     1      -2.978  15.088  -5.389  1.00  0.00    -0.020 C 
HETATM   34  C1  UNL     1      -3.141  14.420  -6.707  1.00  0.00     0.009 C 
HETATM   35  C3  UNL     1      -3.735  14.193  -4.374  1.00  0.00     0.009 C 
ENDBRANCH  32  33
ENDBRANCH   1  32
TORSDOF 5
ENDMDL
MODEL 5
REMARK VINA RESULT: -5.307038338      5.906      9.591
REMARK  5 active torsions:
REMARK  status: ('A' for Active; 'I' for Inactive)
REMARK    1  A    between atoms: C2_2  and  C4_4 
REMARK    2  A    between atoms: C4_4  and  C5_5 
REMARK    3  A    between atoms: C17_22  and  N3_23 
REMARK       I    between atoms: N3_23  and  C18_25 
REMARK    4  A    between atoms: C18_25  and  C19_27 
REMARK    5  A    between atoms: C19_27  and  N4_28 
ROOT
HETATM    1  C5  UNL     1      -1.330  11.026  -9.480  1.00  0.00     0.177 C 
HETATM    2  N1  UNL     1      -0.691  11.650 -10.586  1.00  0.00    -0.347 N 
ATOM      3  H1  UNL     1      -0.819  11.214 -11.499  1.00  0.00     0.163 HD
HETATM    4  C6  UNL     1       0.112  12.824 -10.539  1.00  0.00     0.223 C 
HETATM    5  O1  UNL     1       0.727  13.156 -11.594  1.00  0.00    -0.273 OA
HETATM    6  C7  UNL     1       0.259  13.658  -9.340  1.00  0.00     0.089 C 
HETATM    7  C8  UNL     1       1.336  14.701  -9.467  1.00  0.00     0.015 C 
HETATM    8  C9  UNL     1       0.336  15.702  -8.873  1.00  0.00     0.014 C 
HETATM    9  C10 UNL     1      -0.753  14.803  -9.417  1.00  0.00     0.069 C 
HETATM   10  C11 UNL     1      -1.848  14.473  -8.492  1.00  0.00     0.141 C 
HETATM   11  O2  UNL     1      -1.485  14.067  -7.374  1.00  0.00    -0.297 OA
HETATM   12  C12 UNL     1      -3.274  14.567  -8.732  1.00  0.00     0.131 C 
HETATM   13  C13 UNL     1      -3.946  13.467  -9.459  1.00  0.00     0.125 C 
HETATM   14  C14 UNL     1      -3.756  13.848 -10.898  1.00  0.00     0.265 C 
HETATM   15  N2  UNL     1      -4.155  15.269 -10.833  1.00  0.00    -0.051 N 
HETATM   16  C15 UNL     1      -5.583  15.305 -10.838  1.00  0.00     0.274 C 
HETATM   17  C16 UNL     1      -3.630  15.861 -12.056  1.00  0.00     0.274 C 
HETATM   18  C17 UNL     1      -3.504  15.759  -9.674  1.00  0.00     0.303 C 
HETATM   19  N5  UNL     1      -3.684  12.129  -9.080  1.00  0.00    -0.352 N 
ATOM     20  H5  UNL     1      -4.268  11.821  -8.302  1.00  0.00     0.163 HD
HETATM   21  C23 UNL     1      -2.816  11.135  -9.521  1.00  0.00     0.240 C 
HETATM   22  O4  UNL     1      -3.369  10.100 -10.072  1.00  0.00    -0.271 OA
ENDROOT
BRANCH  18  23
HETATM   23  N3  UNL     1      -4.179  16.771  -8.921  1.00  0.00    -0.331 N 
HETATM   24  C18 UNL     1      -3.582  17.870  -8.295  1.00  0.00     0.245 C 
HETATM   25  O3  UNL     1      -2.347  18.012  -8.382  1.00  0.00    -0.272 OA
ATOM     26  H3  UNL     1      -5.191  16.683  -8.833  1.00  0.00     0.164 HD
BRANCH  24  27
HETATM   27  C19 UNL     1      -4.372  18.851  -7.544  1.00  0.00     0.338 C 
BRANCH  27  28
HETATM   28  N4  UNL     1      -4.299  18.682  -6.108  1.00  0.00    -0.070 N 
HETATM   29  C20 UNL     1      -3.238  19.426  -5.505  1.00  0.00     0.272 C 
HETATM   30  C21 UNL     1      -5.556  19.196  -5.548  1.00  0.00     0.272 C 
HETATM   31  C22 UNL     1      -4.200  17.290  -5.722  1.00  0.00     0.272 C 
ENDBRANCH  27  28
ENDBRANCH  24  27
ENDBRANCH  18  23
BRANCH   1  32
HETATM   32  C4  UNL     1      -0.905   9.589  -9.345  1.00  0.00     0.038 C 
BRANCH  32  33
HETATM   33  C2  UNL     1       0.429   9.260  -8.873  1.00  0.00    -0.020 C 
HETATM   34  C1  UNL     1       0.575   7.916  -8.255  1.00  0.00     0.009 C 
HETATM   35  C3  UNL     1       0.765  10.273  -7.748  1.00  0.00     0.009 C 
ENDBRANCH  32  33
ENDBRANCH   1  32
TORSDOF 5
ENDMDL
