MODEL 1
REMARK VINA RESULT: -7.362064352      0.000      0.000
REMARK  9 active torsions:
REMARK  status: ('A' for Active; 'I' for Inactive)
REMARK    1  A    between atoms: C4_4  and  C5_5 
REMARK    2  A    between atoms: C5_5  and  C6_6 
REMARK    3  A    between atoms: C15_17  and  C16_18 
REMARK    4  A    between atoms: C16_18  and  C17_19 
REMARK    5  A    between atoms: C18_20  and  C19_21 
REMARK    6  A    between atoms: C19_21  and  C20_22 
REMARK    7  A    between atoms: C20_22  and  C21_23 
REMARK    8  A    between atoms: C21_23  and  C22_25 
REMARK    9  A    between atoms: C22_25  and  C23_26 
ROOT
HETATM    1  C17 UNL     1      -0.760  16.053  -8.714  1.00  0.00     0.047 A 
HETATM    2  C18 UNL     1      -0.175  14.834  -8.879  1.00  0.00     0.027 A 
HETATM    3  C26 UNL     1       1.078  14.785  -9.506  1.00  0.00     0.267 A 
HETATM    4  O2  UNL     1       1.642  13.667  -9.673  1.00  0.00    -0.266 OA
HETATM    5  N2  UNL     1       1.626  15.923  -9.899  1.00  0.00    -0.263 N 
ATOM      6  H2  UNL     1       2.538  15.887 -10.354  1.00  0.00     0.190 HD
HETATM    7  N3  UNL     1       1.052  17.111  -9.734  1.00  0.00    -0.263 N 
ATOM      8  H3  UNL     1       1.526  17.954 -10.060  1.00  0.00     0.190 HD
HETATM    9  C27 UNL     1      -0.143  17.203  -9.142  1.00  0.00     0.270 A 
HETATM   10  O3  UNL     1      -0.711  18.346  -8.975  1.00  0.00    -0.266 OA
ENDROOT
BRANCH   1  11
HETATM   11  C16 UNL     1      -2.122  16.150  -8.149  1.00  0.00     0.048 C 
BRANCH  11  12
HETATM   12  C15 UNL     1      -2.265  16.367  -6.833  1.00  0.00     0.043 A 
HETATM   13  C2  UNL     1      -2.956  15.548  -5.985  1.00  0.00    -0.017 A 
HETATM   14  C1  UNL     1      -3.597  14.450  -6.313  1.00  0.00     0.026 C 
HETATM   15  C3  UNL     1      -2.852  16.101  -4.733  1.00  0.00     0.042 A 
HETATM   16  C4  UNL     1      -2.086  17.272  -4.816  1.00  0.00     0.034 A 
HETATM   17  N1  UNL     1      -1.759  17.386  -6.106  1.00  0.00    -0.356 N 
ATOM     18  H1  UNL     1      -1.199  18.146  -6.493  1.00  0.00     0.166 HD
BRANCH  16  19
HETATM   19  C5  UNL     1      -1.791  18.086  -3.644  1.00  0.00     0.041 C 
BRANCH  19  20
HETATM   20  C6  UNL     1      -0.614  18.666  -3.487  1.00  0.00    -0.024 A 
HETATM   21  C7  UNL     1       0.219  18.820  -4.591  1.00  0.00     0.019 A 
HETATM   22  C8  UNL     1       1.437  19.445  -4.479  1.00  0.00    -0.061 A 
HETATM   23  C9  UNL     1       2.365  19.630  -5.620  1.00  0.00     0.048 C 
HETATM   24  C10 UNL     1       1.851  19.934  -3.255  1.00  0.00     0.014 A 
HETATM   25  C11 UNL     1       1.056  19.804  -2.135  1.00  0.00    -0.051 A 
HETATM   26  C12 UNL     1       1.510  20.355  -0.814  1.00  0.00     0.049 C 
HETATM   27  C13 UNL     1      -0.173  19.160  -2.288  1.00  0.00    -0.029 A 
HETATM   28  C14 UNL     1      -0.893  19.039  -1.195  1.00  0.00     0.025 C 
ENDBRANCH  19  20
ENDBRANCH  16  19
ENDBRANCH  11  12
ENDBRANCH   1  11
BRANCH   2  29
HETATM   29  C19 UNL     1      -0.702  13.536  -8.376  1.00  0.00     0.053 C 
BRANCH  29  30
HETATM   30  C20 UNL     1      -1.671  12.834  -9.237  1.00  0.00     0.083 C 
BRANCH  30  31
HETATM   31  C21 UNL     1      -1.272  11.672 -10.018  1.00  0.00     0.127 C 
HETATM   32  O1  UNL     1      -0.787  11.805 -11.123  1.00  0.00    -0.298 OA
BRANCH  31  33
HETATM   33  C22 UNL     1      -1.459  10.296  -9.443  1.00  0.00     0.082 C 
BRANCH  33  34
HETATM   34  C23 UNL     1      -0.160   9.549  -9.290  1.00  0.00    -0.016 C 
HETATM   35  C24 UNL     1       0.607  10.137  -8.089  1.00  0.00     0.010 C 
HETATM   36  C25 UNL     1      -0.346   8.087  -8.938  1.00  0.00     0.010 C 
ENDBRANCH  33  34
ENDBRANCH  31  33
ENDBRANCH  30  31
ENDBRANCH  29  30
ENDBRANCH   2  29
TORSDOF 9
ENDMDL
MODEL 2
REMARK VINA RESULT: -7.301385675      4.503      8.574
REMARK  9 active torsions:
REMARK  status: ('A' for Active; 'I' for Inactive)
REMARK    1  A    between atoms: C4_4  and  C5_5 
REMARK    2  A    between atoms: C5_5  and  C6_6 
REMARK    3  A    between atoms: C15_17  and  C16_18 
REMARK    4  A    between atoms: C16_18  and  C17_19 
REMARK    5  A    between atoms: C18_20  and  C19_21 
REMARK    6  A    between atoms: C19_21  and  C20_22 
REMARK    7  A    between atoms: C20_22  and  C21_23 
REMARK    8  A    between atoms: C21_23  and  C22_25 
REMARK    9  A    between atoms: C22_25  and  C23_26 
ROOT
HETATM    1  C17 UNL     1      -0.242  13.975 -12.794  1.00  0.00     0.047 A 
HETATM    2  C18 UNL     1      -1.590  14.033 -12.984  1.00  0.00     0.027 A 
HETATM    3  C26 UNL     1      -2.094  13.665 -14.238  1.00  0.00     0.267 A 
HETATM    4  O2  UNL     1      -3.340  13.712 -14.442  1.00  0.00    -0.266 OA
HETATM    5  N2  UNL     1      -1.237  13.276 -15.168  1.00  0.00    -0.263 N 
ATOM      6  H2  UNL     1      -1.604  13.007 -16.080  1.00  0.00     0.190 HD
HETATM    7  N3  UNL     1       0.078  13.218 -14.978  1.00  0.00    -0.263 N 
ATOM      8  H3  UNL     1       0.689  12.910 -15.735  1.00  0.00     0.190 HD
HETATM    9  C27 UNL     1       0.601  13.563 -13.796  1.00  0.00     0.270 A 
HETATM   10  O3  UNL     1       1.872  13.512 -13.597  1.00  0.00    -0.266 OA
ENDROOT
BRANCH   1  11
HETATM   11  C16 UNL     1       0.348  14.447 -11.523  1.00  0.00     0.048 C 
BRANCH  11  12
HETATM   12  C15 UNL     1       0.330  13.632 -10.457  1.00  0.00     0.043 A 
HETATM   13  C2  UNL     1       0.130  14.046  -9.171  1.00  0.00    -0.017 A 
HETATM   14  C1  UNL     1      -0.052  15.283  -8.771  1.00  0.00     0.026 C 
HETATM   15  C3  UNL     1       0.164  12.920  -8.385  1.00  0.00     0.042 A 
HETATM   16  C4  UNL     1       0.385  11.803  -9.203  1.00  0.00     0.034 A 
HETATM   17  N1  UNL     1       0.479  12.290 -10.444  1.00  0.00    -0.356 N 
ATOM     18  H1  UNL     1       0.643  11.721 -11.274  1.00  0.00     0.166 HD
BRANCH  16  19
HETATM   19  C5  UNL     1       0.465  10.453  -8.660  1.00  0.00     0.041 C 
BRANCH  19  20
HETATM   20  C6  UNL     1      -0.444   9.539  -8.951  1.00  0.00    -0.024 A 
HETATM   21  C7  UNL     1      -1.756   9.938  -9.186  1.00  0.00     0.019 A 
HETATM   22  C8  UNL     1      -2.725   9.025  -9.523  1.00  0.00    -0.061 A 
HETATM   23  C9  UNL     1      -4.138   9.395  -9.777  1.00  0.00     0.048 C 
HETATM   24  C10 UNL     1      -2.403   7.687  -9.635  1.00  0.00     0.014 A 
HETATM   25  C11 UNL     1      -1.114   7.248  -9.411  1.00  0.00    -0.051 A 
HETATM   26  C12 UNL     1      -0.772   5.792  -9.552  1.00  0.00     0.049 C 
HETATM   27  C13 UNL     1      -0.157   8.205  -9.068  1.00  0.00    -0.029 A 
HETATM   28  C14 UNL     1       1.054   7.745  -8.845  1.00  0.00     0.025 C 
ENDBRANCH  19  20
ENDBRANCH  16  19
ENDBRANCH  11  12
ENDBRANCH   1  11
BRANCH   2  29
HETATM   29  C19 UNL     1      -2.604  14.374 -11.948  1.00  0.00     0.053 C 
BRANCH  29  30
HETATM   30  C20 UNL     1      -3.131  13.257 -11.142  1.00  0.00     0.083 C 
BRANCH  30  31
HETATM   31  C21 UNL     1      -4.010  13.503 -10.008  1.00  0.00     0.127 C 
HETATM   32  O1  UNL     1      -5.114  13.981 -10.172  1.00  0.00    -0.298 OA
BRANCH  31  33
HETATM   33  C22 UNL     1      -3.543  13.154  -8.622  1.00  0.00     0.082 C 
BRANCH  33  34
HETATM   34  C23 UNL     1      -3.942  14.184  -7.598  1.00  0.00    -0.016 C 
HETATM   35  C24 UNL     1      -5.070  13.600  -6.725  1.00  0.00     0.010 C 
HETATM   36  C25 UNL     1      -2.836  14.513  -6.615  1.00  0.00     0.010 C 
ENDBRANCH  33  34
ENDBRANCH  31  33
ENDBRANCH  30  31
ENDBRANCH  29  30
ENDBRANCH   2  29
TORSDOF 9
ENDMDL
MODEL 3
REMARK VINA RESULT: -7.277809614      2.124      8.565
REMARK  9 active torsions:
REMARK  status: ('A' for Active; 'I' for Inactive)
REMARK    1  A    between atoms: C4_4  and  C5_5 
REMARK    2  A    between atoms: C5_5  and  C6_6 
REMARK    3  A    between atoms: C15_17  and  C16_18 
REMARK    4  A    between atoms: C16_18  and  C17_19 
REMARK    5  A    between atoms: C18_20  and  C19_21 
REMARK    6  A    between atoms: C19_21  and  C20_22 
REMARK    7  A    between atoms: C20_22  and  C21_23 
REMARK    8  A    between atoms: C21_23  and  C22_25 
REMARK    9  A    between atoms: C22_25  and  C23_26 
ROOT
HETATM    1  C17 UNL     1      -0.127  17.757  -8.440  1.00  0.00     0.047 A 
HETATM    2  C18 UNL     1       0.960  18.051  -7.673  1.00  0.00     0.027 A 
HETATM    3  C26 UNL     1       2.016  18.753  -8.269  1.00  0.00     0.267 A 
HETATM    4  O2  UNL     1       3.037  19.037  -7.581  1.00  0.00    -0.266 OA
HETATM    5  N2  UNL     1       1.899  19.097  -9.541  1.00  0.00    -0.263 N 
ATOM      6  H2  UNL     1       2.667  19.610  -9.975  1.00  0.00     0.190 HD
HETATM    7  N3  UNL     1       0.836  18.810 -10.286  1.00  0.00    -0.263 N 
ATOM      8  H3  UNL     1       0.805  19.103 -11.263  1.00  0.00     0.190 HD
HETATM    9  C27 UNL     1      -0.193  18.140  -9.757  1.00  0.00     0.270 A 
HETATM   10  O3  UNL     1      -1.230  17.855 -10.465  1.00  0.00    -0.266 OA
ENDROOT
BRANCH   1  11
HETATM   11  C16 UNL     1      -1.222  16.933  -7.887  1.00  0.00     0.048 C 
BRANCH  11  12
HETATM   12  C15 UNL     1      -1.224  15.612  -8.124  1.00  0.00     0.043 A 
HETATM   13  C2  UNL     1      -1.944  14.699  -7.405  1.00  0.00    -0.017 A 
HETATM   14  C1  UNL     1      -2.717  14.955  -6.375  1.00  0.00     0.026 C 
HETATM   15  C3  UNL     1      -1.694  13.472  -7.966  1.00  0.00     0.042 A 
HETATM   16  C4  UNL     1      -0.811  13.636  -9.042  1.00  0.00     0.034 A 
HETATM   17  N1  UNL     1      -0.559  14.948  -9.092  1.00  0.00    -0.356 N 
ATOM     18  H1  UNL     1       0.057  15.389  -9.774  1.00  0.00     0.166 HD
BRANCH  16  19
HETATM   19  C5  UNL     1      -0.358  12.510  -9.849  1.00  0.00     0.041 C 
BRANCH  19  20
HETATM   20  C6  UNL     1      -0.506  11.264  -9.434  1.00  0.00    -0.024 A 
HETATM   21  C7  UNL     1      -1.567  10.507  -9.923  1.00  0.00     0.019 A 
HETATM   22  C8  UNL     1      -1.739   9.199  -9.543  1.00  0.00    -0.061 A 
HETATM   23  C9  UNL     1      -2.855   8.352 -10.027  1.00  0.00     0.048 C 
HETATM   24  C10 UNL     1      -0.848   8.612  -8.666  1.00  0.00     0.014 A 
HETATM   25  C11 UNL     1       0.219   9.325  -8.159  1.00  0.00    -0.051 A 
HETATM   26  C12 UNL     1       1.190   8.671  -7.218  1.00  0.00     0.049 C 
HETATM   27  C13 UNL     1       0.359  10.654  -8.565  1.00  0.00    -0.029 A 
HETATM   28  C14 UNL     1       1.376  11.304  -8.046  1.00  0.00     0.025 C 
ENDBRANCH  19  20
ENDBRANCH  16  19
ENDBRANCH  11  12
ENDBRANCH   1  11
BRANCH   2  29
HETATM   29  C19 UNL     1       1.104  17.770  -6.218  1.00  0.00     0.053 C 
BRANCH  29  30
HETATM   30  C20 UNL     1       0.548  18.772  -5.290  1.00  0.00     0.083 C 
BRANCH  30  31
HETATM   31  C21 UNL     1       1.385  19.401  -4.278  1.00  0.00     0.127 C 
HETATM   32  O1  UNL     1       2.211  20.235  -4.589  1.00  0.00    -0.298 OA
BRANCH  31  33
HETATM   33  C22 UNL     1       1.216  19.015  -2.836  1.00  0.00     0.082 C 
BRANCH  33  34
HETATM   34  C23 UNL     1       1.592  20.126  -1.890  1.00  0.00    -0.016 C 
HETATM   35  C24 UNL     1       0.435  20.339  -0.895  1.00  0.00     0.010 C 
HETATM   36  C25 UNL     1       2.784  19.790  -1.015  1.00  0.00     0.010 C 
ENDBRANCH  33  34
ENDBRANCH  31  33
ENDBRANCH  30  31
ENDBRANCH  29  30
ENDBRANCH   2  29
TORSDOF 9
ENDMDL
MODEL 4
REMARK VINA RESULT: -7.262664688      2.548      8.780
REMARK  9 active torsions:
REMARK  status: ('A' for Active; 'I' for Inactive)
REMARK    1  A    between atoms: C4_4  and  C5_5 
REMARK    2  A    between atoms: C5_5  and  C6_6 
REMARK    3  A    between atoms: C15_17  and  C16_18 
REMARK    4  A    between atoms: C16_18  and  C17_19 
REMARK    5  A    between atoms: C18_20  and  C19_21 
REMARK    6  A    between atoms: C19_21  and  C20_22 
REMARK    7  A    between atoms: C20_22  and  C21_23 
REMARK    8  A    between atoms: C21_23  and  C22_25 
REMARK    9  A    between atoms: C22_25  and  C23_26 
ROOT
HETATM    1  C17 UNL     1       0.496  15.597 -10.952  1.00  0.00     0.047 A 
HETATM    2  C18 UNL     1       0.039  16.880 -10.995  1.00  0.00     0.027 A 
HETATM    3  C26 UNL     1      -0.496  17.349 -12.202  1.00  0.00     0.267 A 
HETATM    4  O2  UNL     1      -0.924  18.535 -12.270  1.00  0.00    -0.266 OA
HETATM    5  N2  UNL     1      -0.533  16.520 -13.233  1.00  0.00    -0.263 N 
ATOM      6  H2  UNL     1      -0.924  16.860 -14.112  1.00  0.00     0.190 HD
HETATM    7  N3  UNL     1      -0.089  15.267 -13.186  1.00  0.00    -0.263 N 
ATOM      8  H3  UNL     1      -0.144  14.676 -14.016  1.00  0.00     0.190 HD
HETATM    9  C27 UNL     1       0.430  14.781 -12.054  1.00  0.00     0.270 A 
HETATM   10  O3  UNL     1       0.865  13.571 -11.993  1.00  0.00    -0.266 OA
ENDROOT
BRANCH   1  11
HETATM   11  C16 UNL     1       1.158  15.088  -9.733  1.00  0.00     0.048 C 
BRANCH  11  12
HETATM   12  C15 UNL     1       0.707  13.954  -9.175  1.00  0.00     0.043 A 
HETATM   13  C2  UNL     1      -0.443  13.856  -8.443  1.00  0.00    -0.017 A 
HETATM   14  C1  UNL     1      -1.267  14.837  -8.154  1.00  0.00     0.026 C 
HETATM   15  C3  UNL     1      -0.561  12.541  -8.069  1.00  0.00     0.042 A 
HETATM   16  C4  UNL     1       0.530  11.824  -8.580  1.00  0.00     0.034 A 
HETATM   17  N1  UNL     1       1.265  12.726  -9.238  1.00  0.00    -0.356 N 
ATOM     18  H1  UNL     1       2.135  12.514  -9.725  1.00  0.00     0.166 HD
BRANCH  16  19
HETATM   19  C5  UNL     1       0.686  10.392  -8.356  1.00  0.00     0.041 C 
BRANCH  19  20
HETATM   20  C6  UNL     1      -0.241   9.531  -8.737  1.00  0.00    -0.024 A 
HETATM   21  C7  UNL     1      -1.514   9.998  -9.048  1.00  0.00     0.019 A 
HETATM   22  C8  UNL     1      -2.498   9.142  -9.478  1.00  0.00    -0.061 A 
HETATM   23  C9  UNL     1      -3.872   9.586  -9.815  1.00  0.00     0.048 C 
HETATM   24  C10 UNL     1      -2.230   7.794  -9.610  1.00  0.00     0.014 A 
HETATM   25  C11 UNL     1      -0.980   7.289  -9.314  1.00  0.00    -0.051 A 
HETATM   26  C12 UNL     1      -0.696   5.823  -9.478  1.00  0.00     0.049 C 
HETATM   27  C13 UNL     1      -0.007   8.189  -8.877  1.00  0.00    -0.029 A 
HETATM   28  C14 UNL     1       1.164   7.666  -8.587  1.00  0.00     0.025 C 
ENDBRANCH  19  20
ENDBRANCH  16  19
ENDBRANCH  11  12
ENDBRANCH   1  11
BRANCH   2  29
HETATM   29  C19 UNL     1      -0.028  17.823  -9.844  1.00  0.00     0.053 C 
BRANCH  29  30
HETATM   30  C20 UNL     1       1.210  18.554  -9.512  1.00  0.00     0.083 C 
BRANCH  30  31
HETATM   31  C21 UNL     1       1.804  18.453  -8.187  1.00  0.00     0.127 C 
HETATM   32  O1  UNL     1       2.850  19.016  -7.933  1.00  0.00    -0.298 OA
BRANCH  31  33
HETATM   33  C22 UNL     1       1.108  17.650  -7.124  1.00  0.00     0.082 C 
BRANCH  33  34
HETATM   34  C23 UNL     1       0.619  18.500  -5.981  1.00  0.00    -0.016 C 
HETATM   35  C24 UNL     1      -0.769  17.990  -5.546  1.00  0.00     0.010 C 
HETATM   36  C25 UNL     1       1.473  18.376  -4.734  1.00  0.00     0.010 C 
ENDBRANCH  33  34
ENDBRANCH  31  33
ENDBRANCH  30  31
ENDBRANCH  29  30
ENDBRANCH   2  29
TORSDOF 9
ENDMDL
MODEL 5
REMARK VINA RESULT: -7.133747139      6.251     12.461
REMARK  9 active torsions:
REMARK  status: ('A' for Active; 'I' for Inactive)
REMARK    1  A    between atoms: C4_4  and  C5_5 
REMARK    2  A    between atoms: C5_5  and  C6_6 
REMARK    3  A    between atoms: C15_17  and  C16_18 
REMARK    4  A    between atoms: C16_18  and  C17_19 
REMARK    5  A    between atoms: C18_20  and  C19_21 
REMARK    6  A    between atoms: C19_21  and  C20_22 
REMARK    7  A    between atoms: C20_22  and  C21_23 
REMARK    8  A    between atoms: C21_23  and  C22_25 
REMARK    9  A    between atoms: C22_25  and  C23_26 
ROOT
HETATM    1  C17 UNL     1      -0.601  21.740   2.088  1.00  0.00     0.047 A 
HETATM    2  C18 UNL     1       0.203  22.523   2.860  1.00  0.00     0.027 A 
HETATM    3  C26 UNL     1       0.444  22.118   4.180  1.00  0.00     0.267 A 
HETATM    4  O2  UNL     1       1.183  22.827   4.919  1.00  0.00    -0.266 OA
HETATM    5  N2  UNL     1      -0.118  20.997   4.603  1.00  0.00    -0.263 N 
ATOM      6  H2  UNL     1       0.059  20.702   5.563  1.00  0.00     0.190 HD
HETATM    7  N3  UNL     1      -0.899  20.234   3.845  1.00  0.00    -0.263 N 
ATOM      8  H3  UNL     1      -1.304  19.380   4.229  1.00  0.00     0.190 HD
HETATM    9  C27 UNL     1      -1.156  20.585   2.580  1.00  0.00     0.270 A 
HETATM   10  O3  UNL     1      -1.911  19.857   1.834  1.00  0.00    -0.266 OA
ENDROOT
BRANCH   1  11
HETATM   11  C16 UNL     1      -0.965  22.173   0.722  1.00  0.00     0.048 C 
BRANCH  11  12
HETATM   12  C15 UNL     1      -0.318  21.636  -0.324  1.00  0.00     0.043 A 
HETATM   13  C2  UNL     1       0.383  22.354  -1.250  1.00  0.00    -0.017 A 
HETATM   14  C1  UNL     1       0.520  23.660  -1.282  1.00  0.00     0.026 C 
HETATM   15  C3  UNL     1       0.907  21.447  -2.137  1.00  0.00     0.042 A 
HETATM   16  C4  UNL     1       0.522  20.157  -1.746  1.00  0.00     0.034 A 
HETATM   17  N1  UNL     1      -0.218  20.329  -0.647  1.00  0.00    -0.356 N 
ATOM     18  H1  UNL     1      -0.650  19.571  -0.120  1.00  0.00     0.166 HD
BRANCH  16  19
HETATM   19  C5  UNL     1       0.930  18.971  -2.489  1.00  0.00     0.041 C 
BRANCH  19  20
HETATM   20  C6  UNL     1       0.250  18.550  -3.541  1.00  0.00    -0.024 A 
HETATM   21  C7  UNL     1      -1.088  18.200  -3.389  1.00  0.00     0.019 A 
HETATM   22  C8  UNL     1      -1.840  17.789  -4.462  1.00  0.00    -0.061 A 
HETATM   23  C9  UNL     1      -3.266  17.397  -4.354  1.00  0.00     0.048 C 
HETATM   24  C10 UNL     1      -1.270  17.720  -5.718  1.00  0.00     0.014 A 
HETATM   25  C11 UNL     1       0.053  18.060  -5.914  1.00  0.00    -0.051 A 
HETATM   26  C12 UNL     1       0.657  17.997  -7.288  1.00  0.00     0.049 C 
HETATM   27  C13 UNL     1       0.786  18.470  -4.799  1.00  0.00    -0.029 A 
HETATM   28  C14 UNL     1       2.047  18.767  -5.024  1.00  0.00     0.025 C 
ENDBRANCH  19  20
ENDBRANCH  16  19
ENDBRANCH  11  12
ENDBRANCH   1  11
BRANCH   2  29
HETATM   29  C19 UNL     1       0.932  23.741   2.409  1.00  0.00     0.053 C 
BRANCH  29  30
HETATM   30  C20 UNL     1       2.314  23.549   1.932  1.00  0.00     0.083 C 
BRANCH  30  31
HETATM   31  C21 UNL     1       3.442  24.105   2.667  1.00  0.00     0.127 C 
HETATM   32  O1  UNL     1       4.150  23.390   3.346  1.00  0.00    -0.298 OA
BRANCH  31  33
HETATM   33  C22 UNL     1       3.731  25.576   2.574  1.00  0.00     0.082 C 
BRANCH  33  34
HETATM   34  C23 UNL     1       4.192  25.992   1.202  1.00  0.00    -0.016 C 
HETATM   35  C24 UNL     1       3.026  26.698   0.482  1.00  0.00     0.010 C 
HETATM   36  C25 UNL     1       5.300  27.026   1.229  1.00  0.00     0.010 C 
ENDBRANCH  33  34
ENDBRANCH  31  33
ENDBRANCH  30  31
ENDBRANCH  29  30
ENDBRANCH   2  29
TORSDOF 9
ENDMDL
