MODEL 1
REMARK VINA RESULT: -6.365796889      0.000      0.000
REMARK  6 active torsions:
REMARK  status: ('A' for Active; 'I' for Inactive)
REMARK    1  A    between atoms: C8_9  and  N2_10 
REMARK    2  A    between atoms: N2_10  and  S1_12 
REMARK    3  A    between atoms: S1_12  and  N3_15 
REMARK    4  A    between atoms: N3_15  and  C10_17 
REMARK    5  A    between atoms: N4_19  and  C12_20 
REMARK    6  A    between atoms: C12_20  and  C13_21 
ROOT
HETATM    1  C10 UNL     1       0.959  16.015  -9.747  1.00  0.00     0.088 A 
HETATM    2  C11 UNL     1       0.306  16.538  -8.670  1.00  0.00     0.123 A 
HETATM    3  N4  UNL     1       0.243  17.890  -8.417  1.00  0.00    -0.352 N 
HETATM    4  C16 UNL     1       0.813  18.789  -9.201  1.00  0.00     0.021 A 
HETATM    5  C17 UNL     1       0.755  20.232  -8.954  1.00  0.00     0.069 C 
HETATM    6  C18 UNL     1       1.495  18.294 -10.321  1.00  0.00     0.034 A 
HETATM    7  C19 UNL     1       2.182  18.958 -11.316  1.00  0.00     0.125 A 
HETATM    8  N7  UNL     1       2.653  18.026 -12.155  1.00  0.00    -0.306 N 
HETATM    9  C20 UNL     1       3.437  18.272 -13.347  1.00  0.00     0.177 C 
HETATM   10  N8  UNL     1       2.292  16.826 -11.731  1.00  0.00    -0.296 N 
ATOM     11  H8  UNL     1       2.521  15.944 -12.190  1.00  0.00     0.187 HD
HETATM   12  C21 UNL     1       1.571  16.954 -10.593  1.00  0.00     0.090 A 
ENDROOT
BRANCH   1  13
HETATM   13  N3  UNL     1       1.084  14.662 -10.105  1.00  0.00    -0.264 N 
ATOM     14  H3  UNL     1       2.023  14.264 -10.128  1.00  0.00     0.180 HD
BRANCH  13  15
HETATM   15  S1  UNL     1      -0.230  13.624 -10.509  1.00  0.00     0.325 S 
HETATM   16  O1  UNL     1      -1.281  14.537 -11.136  1.00  0.00    -0.182 OA
HETATM   17  O2  UNL     1       0.290  12.666 -11.544  1.00  0.00    -0.182 OA
BRANCH  15  18
HETATM   18  N2  UNL     1      -0.912  12.803  -9.142  1.00  0.00    -0.261 N 
HETATM   19  C9  UNL     1      -1.591  13.642  -8.190  1.00  0.00     0.171 C 
BRANCH  18  20
HETATM   20  C8  UNL     1      -0.749  11.420  -9.061  1.00  0.00     0.074 A 
HETATM   21  C2  UNL     1       0.430  10.914  -8.526  1.00  0.00    -0.031 A 
HETATM   22  C1  UNL     1       1.463  11.871  -8.065  1.00  0.00     0.050 C 
HETATM   23  C3  UNL     1       0.598   9.548  -8.443  1.00  0.00     0.026 A 
HETATM   24  C4  UNL     1      -0.412   8.729  -8.893  1.00  0.00     0.091 A 
HETATM   25  N1  UNL     1      -1.536   9.253  -9.404  1.00  0.00    -0.363 N 
HETATM   26  C5  UNL     1      -2.586   8.358  -9.871  1.00  0.00     0.155 C 
HETATM   27  C6  UNL     1      -1.757  10.575  -9.510  1.00  0.00     0.035 A 
HETATM   28  C7  UNL     1      -2.969  11.160 -10.060  1.00  0.00     0.070 C 
ENDBRANCH  18  20
ENDBRANCH  15  18
ENDBRANCH  13  15
ENDBRANCH   1  13
BRANCH   3  29
HETATM   29  C12 UNL     1      -0.488  18.317  -7.220  1.00  0.00     0.186 C 
BRANCH  29  30
HETATM   30  C13 UNL     1       0.366  18.385  -6.021  1.00  0.00     0.044 A 
HETATM   31  C14 UNL     1       1.705  18.165  -5.825  1.00  0.00     0.115 A 
HETATM   32  N5  UNL     1       1.997  18.360  -4.519  1.00  0.00    -0.360 N 
HETATM   33  C15 UNL     1       0.858  18.695  -3.916  1.00  0.00     0.180 A 
ATOM     34  H5  UNL     1       2.913  18.269  -4.081  1.00  0.00     0.166 HD
HETATM   35  N6  UNL     1      -0.135  18.717  -4.795  1.00  0.00    -0.353 N 
ATOM     36  H6  UNL     1      -1.108  18.943  -4.591  1.00  0.00     0.166 HD
ENDBRANCH  29  30
ENDBRANCH   3  29
TORSDOF 6
ENDMDL
MODEL 2
REMARK VINA RESULT: -6.184631483     10.155     16.013
REMARK  6 active torsions:
REMARK  status: ('A' for Active; 'I' for Inactive)
REMARK    1  A    between atoms: C8_9  and  N2_10 
REMARK    2  A    between atoms: N2_10  and  S1_12 
REMARK    3  A    between atoms: S1_12  and  N3_15 
REMARK    4  A    between atoms: N3_15  and  C10_17 
REMARK    5  A    between atoms: N4_19  and  C12_20 
REMARK    6  A    between atoms: C12_20  and  C13_21 
ROOT
HETATM    1  C10 UNL     1       0.671  21.339   2.749  1.00  0.00     0.088 A 
HETATM    2  C11 UNL     1       0.348  21.405   1.425  1.00  0.00     0.123 A 
HETATM    3  N4  UNL     1      -0.855  20.958   0.925  1.00  0.00    -0.352 N 
HETATM    4  C16 UNL     1      -1.792  20.427   1.693  1.00  0.00     0.021 A 
HETATM    5  C17 UNL     1      -3.080  19.949   1.184  1.00  0.00     0.069 C 
HETATM    6  C18 UNL     1      -1.500  20.342   3.061  1.00  0.00     0.034 A 
HETATM    7  C19 UNL     1      -2.254  19.849   4.107  1.00  0.00     0.125 A 
HETATM    8  N7  UNL     1      -1.520  19.994   5.219  1.00  0.00    -0.306 N 
HETATM    9  C20 UNL     1      -1.918  19.611   6.557  1.00  0.00     0.177 C 
HETATM   10  N8  UNL     1      -0.359  20.550   4.914  1.00  0.00    -0.296 N 
ATOM     11  H8  UNL     1       0.383  20.771   5.578  1.00  0.00     0.187 HD
HETATM   12  C21 UNL     1      -0.312  20.779   3.581  1.00  0.00     0.090 A 
ENDROOT
BRANCH   1  13
HETATM   13  N3  UNL     1       1.859  21.767   3.368  1.00  0.00    -0.264 N 
ATOM     14  H3  UNL     1       2.699  21.210   3.211  1.00  0.00     0.180 HD
BRANCH  13  15
HETATM   15  S1  UNL     1       2.002  23.159   4.371  1.00  0.00     0.325 S 
HETATM   16  O1  UNL     1       1.109  22.874   5.577  1.00  0.00    -0.182 OA
HETATM   17  O2  UNL     1       3.439  23.219   4.809  1.00  0.00    -0.182 OA
BRANCH  15  18
HETATM   18  N2  UNL     1       1.491  24.626   3.600  1.00  0.00    -0.261 N 
HETATM   19  C9  UNL     1       0.074  24.880   3.628  1.00  0.00     0.171 C 
BRANCH  18  20
HETATM   20  C8  UNL     1       2.467  25.431   3.013  1.00  0.00     0.074 A 
HETATM   21  C2  UNL     1       2.761  25.254   1.666  1.00  0.00    -0.031 A 
HETATM   22  C1  UNL     1       2.021  24.214   0.913  1.00  0.00     0.050 C 
HETATM   23  C3  UNL     1       3.724  26.046   1.079  1.00  0.00     0.026 A 
HETATM   24  C4  UNL     1       4.364  26.990   1.849  1.00  0.00     0.091 A 
HETATM   25  N1  UNL     1       4.055  27.133   3.147  1.00  0.00    -0.363 N 
HETATM   26  C5  UNL     1       4.750  28.140   3.934  1.00  0.00     0.155 C 
HETATM   27  C6  UNL     1       3.125  26.390   3.774  1.00  0.00     0.035 A 
HETATM   28  C7  UNL     1       2.777  26.532   5.178  1.00  0.00     0.070 C 
ENDBRANCH  18  20
ENDBRANCH  15  18
ENDBRANCH  13  15
ENDBRANCH   1  13
BRANCH   3  29
HETATM   29  C12 UNL     1      -1.071  21.083  -0.519  1.00  0.00     0.186 C 
BRANCH  29  30
HETATM   30  C13 UNL     1      -0.262  20.135  -1.304  1.00  0.00     0.044 A 
HETATM   31  C14 UNL     1      -0.438  18.814  -1.625  1.00  0.00     0.115 A 
HETATM   32  N5  UNL     1       0.608  18.400  -2.376  1.00  0.00    -0.360 N 
HETATM   33  C15 UNL     1       1.419  19.446  -2.517  1.00  0.00     0.180 A 
ATOM     34  H5  UNL     1       0.748  17.466  -2.760  1.00  0.00     0.166 HD
HETATM   35  N6  UNL     1       0.920  20.499  -1.883  1.00  0.00    -0.353 N 
ATOM     36  H6  UNL     1       1.346  21.424  -1.835  1.00  0.00     0.166 HD
ENDBRANCH  29  30
ENDBRANCH   3  29
TORSDOF 6
ENDMDL
MODEL 3
REMARK VINA RESULT: -5.968131324      3.718      8.725
REMARK  6 active torsions:
REMARK  status: ('A' for Active; 'I' for Inactive)
REMARK    1  A    between atoms: C8_9  and  N2_10 
REMARK    2  A    between atoms: N2_10  and  S1_12 
REMARK    3  A    between atoms: S1_12  and  N3_15 
REMARK    4  A    between atoms: N3_15  and  C10_17 
REMARK    5  A    between atoms: N4_19  and  C12_20 
REMARK    6  A    between atoms: C12_20  and  C13_21 
ROOT
HETATM    1  C10 UNL     1      -0.015  17.372  -7.907  1.00  0.00     0.088 A 
HETATM    2  C11 UNL     1       0.676  16.423  -8.602  1.00  0.00     0.123 A 
HETATM    3  N4  UNL     1       0.199  15.147  -8.803  1.00  0.00    -0.352 N 
HETATM    4  C16 UNL     1      -0.969  14.741  -8.334  1.00  0.00     0.021 A 
HETATM    5  C17 UNL     1      -1.498  13.390  -8.539  1.00  0.00     0.069 C 
HETATM    6  C18 UNL     1      -1.713  15.686  -7.614  1.00  0.00     0.034 A 
HETATM    7  C19 UNL     1      -2.947  15.578  -7.007  1.00  0.00     0.125 A 
HETATM    8  N7  UNL     1      -3.212  16.768  -6.449  1.00  0.00    -0.306 N 
HETATM    9  C20 UNL     1      -4.405  17.111  -5.705  1.00  0.00     0.177 C 
HETATM   10  N8  UNL     1      -2.210  17.599  -6.680  1.00  0.00    -0.296 N 
ATOM     11  H8  UNL     1      -2.161  18.568  -6.365  1.00  0.00     0.187 HD
HETATM   12  C21 UNL     1      -1.259  16.960  -7.402  1.00  0.00     0.090 A 
ENDROOT
BRANCH   1  13
HETATM   13  N3  UNL     1       0.369  18.699  -7.646  1.00  0.00    -0.264 N 
ATOM     14  H3  UNL     1      -0.082  19.436  -8.189  1.00  0.00     0.180 HD
BRANCH  13  15
HETATM   15  S1  UNL     1       1.543  19.174  -6.479  1.00  0.00     0.325 S 
HETATM   16  O1  UNL     1       1.809  17.920  -5.649  1.00  0.00    -0.182 OA
HETATM   17  O2  UNL     1       2.780  19.542  -7.250  1.00  0.00    -0.182 OA
BRANCH  15  18
HETATM   18  N2  UNL     1       1.011  20.458  -5.443  1.00  0.00    -0.261 N 
HETATM   19  C9  UNL     1       0.495  21.622  -6.113  1.00  0.00     0.171 C 
BRANCH  18  20
HETATM   20  C8  UNL     1       1.127  20.277  -4.064  1.00  0.00     0.074 A 
HETATM   21  C2  UNL     1       2.295  20.686  -3.430  1.00  0.00    -0.031 A 
HETATM   22  C1  UNL     1       3.366  21.297  -4.252  1.00  0.00     0.050 C 
HETATM   23  C3  UNL     1       2.416  20.510  -2.068  1.00  0.00     0.026 A 
HETATM   24  C4  UNL     1       1.373  19.935  -1.380  1.00  0.00     0.091 A 
HETATM   25  N1  UNL     1       0.261  19.553  -2.025  1.00  0.00    -0.363 N 
HETATM   26  C5  UNL     1      -0.825  18.947  -1.267  1.00  0.00     0.155 C 
HETATM   27  C6  UNL     1       0.085  19.698  -3.350  1.00  0.00     0.035 A 
HETATM   28  C7  UNL     1      -1.114  19.290  -4.065  1.00  0.00     0.070 C 
ENDBRANCH  18  20
ENDBRANCH  15  18
ENDBRANCH  13  15
ENDBRANCH   1  13
BRANCH   3  29
HETATM   29  C12 UNL     1       1.047  14.224  -9.563  1.00  0.00     0.186 C 
BRANCH  29  30
HETATM   30  C13 UNL     1       0.722  14.199 -11.000  1.00  0.00     0.044 A 
HETATM   31  C14 UNL     1       0.085  15.093 -11.820  1.00  0.00     0.115 A 
HETATM   32  N5  UNL     1       0.039  14.587 -13.073  1.00  0.00    -0.360 N 
HETATM   33  C15 UNL     1       0.637  13.398 -13.030  1.00  0.00     0.180 A 
ATOM     34  H5  UNL     1      -0.374  15.031 -13.893  1.00  0.00     0.166 HD
HETATM   35  N6  UNL     1       1.056  13.143 -11.798  1.00  0.00    -0.353 N 
ATOM     36  H6  UNL     1       1.545  12.300 -11.497  1.00  0.00     0.166 HD
ENDBRANCH  29  30
ENDBRANCH   3  29
TORSDOF 6
ENDMDL
MODEL 4
REMARK VINA RESULT: -5.922414301      2.957      5.349
REMARK  6 active torsions:
REMARK  status: ('A' for Active; 'I' for Inactive)
REMARK    1  A    between atoms: C8_9  and  N2_10 
REMARK    2  A    between atoms: N2_10  and  S1_12 
REMARK    3  A    between atoms: S1_12  and  N3_15 
REMARK    4  A    between atoms: N3_15  and  C10_17 
REMARK    5  A    between atoms: N4_19  and  C12_20 
REMARK    6  A    between atoms: C12_20  and  C13_21 
ROOT
HETATM    1  C10 UNL     1      -1.532  17.679  -6.451  1.00  0.00     0.088 A 
HETATM    2  C11 UNL     1      -0.188  17.866  -6.312  1.00  0.00     0.123 A 
HETATM    3  N4  UNL     1       0.397  18.239  -5.123  1.00  0.00    -0.352 N 
HETATM    4  C16 UNL     1      -0.302  18.447  -4.020  1.00  0.00     0.021 A 
HETATM    5  C17 UNL     1       0.298  18.840  -2.742  1.00  0.00     0.069 C 
HETATM    6  C18 UNL     1      -1.689  18.265  -4.119  1.00  0.00     0.034 A 
HETATM    7  C19 UNL     1      -2.678  18.400  -3.167  1.00  0.00     0.125 A 
HETATM    8  N7  UNL     1      -3.841  18.114  -3.770  1.00  0.00    -0.306 N 
HETATM    9  C20 UNL     1      -5.148  18.129  -3.148  1.00  0.00     0.177 C 
HETATM   10  N8  UNL     1      -3.620  17.810  -5.038  1.00  0.00    -0.296 N 
ATOM     11  H8  UNL     1      -4.335  17.554  -5.718  1.00  0.00     0.187 HD
HETATM   12  C21 UNL     1      -2.292  17.894  -5.290  1.00  0.00     0.090 A 
ENDROOT
BRANCH   1  13
HETATM   13  N3  UNL     1      -2.234  17.296  -7.608  1.00  0.00    -0.264 N 
ATOM     14  H3  UNL     1      -2.499  18.031  -8.263  1.00  0.00     0.180 HD
BRANCH  13  15
HETATM   15  S1  UNL     1      -2.678  15.679  -8.001  1.00  0.00     0.325 S 
HETATM   16  O1  UNL     1      -2.231  14.841  -6.805  1.00  0.00    -0.182 OA
HETATM   17  O2  UNL     1      -4.178  15.664  -8.096  1.00  0.00    -0.182 OA
BRANCH  15  18
HETATM   18  N2  UNL     1      -1.924  15.083  -9.444  1.00  0.00    -0.261 N 
HETATM   19  C9  UNL     1      -2.182  15.845 -10.638  1.00  0.00     0.171 C 
BRANCH  18  20
HETATM   20  C8  UNL     1      -1.146  13.929  -9.348  1.00  0.00     0.074 A 
HETATM   21  C2  UNL     1       0.208  14.057  -9.062  1.00  0.00    -0.031 A 
HETATM   22  C1  UNL     1       0.765  15.417  -8.873  1.00  0.00     0.050 C 
HETATM   23  C3  UNL     1       0.984  12.921  -8.965  1.00  0.00     0.026 A 
HETATM   24  C4  UNL     1       0.388  11.695  -9.154  1.00  0.00     0.091 A 
HETATM   25  N1  UNL     1      -0.922  11.611  -9.429  1.00  0.00    -0.363 N 
HETATM   26  C5  UNL     1      -1.522  10.298  -9.623  1.00  0.00     0.155 C 
HETATM   27  C6  UNL     1      -1.728  12.681  -9.535  1.00  0.00     0.035 A 
HETATM   28  C7  UNL     1      -3.150  12.608  -9.832  1.00  0.00     0.070 C 
ENDBRANCH  18  20
ENDBRANCH  15  18
ENDBRANCH  13  15
ENDBRANCH   1  13
BRANCH   3  29
HETATM   29  C12 UNL     1       1.852  18.411  -5.114  1.00  0.00     0.186 C 
BRANCH  29  30
HETATM   30  C13 UNL     1       2.269  19.789  -5.422  1.00  0.00     0.044 A 
HETATM   31  C14 UNL     1       2.151  20.561  -6.549  1.00  0.00     0.115 A 
HETATM   32  N5  UNL     1       2.706  21.772  -6.314  1.00  0.00    -0.360 N 
HETATM   33  C15 UNL     1       3.160  21.751  -5.062  1.00  0.00     0.180 A 
ATOM     34  H5  UNL     1       2.765  22.551  -6.969  1.00  0.00     0.166 HD
HETATM   35  N6  UNL     1       2.910  20.573  -4.506  1.00  0.00    -0.353 N 
ATOM     36  H6  UNL     1       3.155  20.298  -3.555  1.00  0.00     0.166 HD
ENDBRANCH  29  30
ENDBRANCH   3  29
TORSDOF 6
ENDMDL
MODEL 5
REMARK VINA RESULT: -5.922284104      8.898     13.782
REMARK  6 active torsions:
REMARK  status: ('A' for Active; 'I' for Inactive)
REMARK    1  A    between atoms: C8_9  and  N2_10 
REMARK    2  A    between atoms: N2_10  and  S1_12 
REMARK    3  A    between atoms: S1_12  and  N3_15 
REMARK    4  A    between atoms: N3_15  and  C10_17 
REMARK    5  A    between atoms: N4_19  and  C12_20 
REMARK    6  A    between atoms: C12_20  and  C13_21 
ROOT
HETATM    1  C10 UNL     1       0.780  21.523  -0.626  1.00  0.00     0.088 A 
HETATM    2  C11 UNL     1       1.320  21.166  -1.827  1.00  0.00     0.123 A 
HETATM    3  N4  UNL     1       0.833  20.125  -2.586  1.00  0.00    -0.352 N 
HETATM    4  C16 UNL     1      -0.198  19.388  -2.208  1.00  0.00     0.021 A 
HETATM    5  C17 UNL     1      -0.735  18.279  -3.000  1.00  0.00     0.069 C 
HETATM    6  C18 UNL     1      -0.783  19.722  -0.978  1.00  0.00     0.034 A 
HETATM    7  C19 UNL     1      -1.852  19.158  -0.315  1.00  0.00     0.125 A 
HETATM    8  N7  UNL     1      -2.010  19.845   0.826  1.00  0.00    -0.306 N 
HETATM    9  C20 UNL     1      -3.018  19.598   1.835  1.00  0.00     0.177 C 
HETATM   10  N8  UNL     1      -1.097  20.799   0.898  1.00  0.00    -0.296 N 
ATOM     11  H8  UNL     1      -0.998  21.465   1.664  1.00  0.00     0.187 HD
HETATM   12  C21 UNL     1      -0.316  20.752  -0.207  1.00  0.00     0.090 A 
ENDROOT
BRANCH   1  13
HETATM   13  N3  UNL     1       1.188  22.564   0.226  1.00  0.00    -0.264 N 
ATOM     14  H3  UNL     1       1.916  22.355   0.910  1.00  0.00     0.180 HD
BRANCH  13  15
HETATM   15  S1  UNL     1       0.553  24.164   0.202  1.00  0.00     0.325 S 
HETATM   16  O1  UNL     1       1.140  24.807  -1.053  1.00  0.00    -0.182 OA
HETATM   17  O2  UNL     1      -0.936  24.025   0.049  1.00  0.00    -0.182 OA
BRANCH  15  18
HETATM   18  N2  UNL     1       0.984  25.103   1.595  1.00  0.00    -0.261 N 
HETATM   19  C9  UNL     1       0.645  26.500   1.530  1.00  0.00     0.171 C 
BRANCH  18  20
HETATM   20  C8  UNL     1       1.621  24.452   2.651  1.00  0.00     0.074 A 
HETATM   21  C2  UNL     1       3.010  24.458   2.701  1.00  0.00    -0.031 A 
HETATM   22  C1  UNL     1       3.752  25.159   1.626  1.00  0.00     0.050 C 
HETATM   23  C3  UNL     1       3.647  23.817   3.743  1.00  0.00     0.026 A 
HETATM   24  C4  UNL     1       2.883  23.191   4.700  1.00  0.00     0.091 A 
HETATM   25  N1  UNL     1       1.544  23.205   4.619  1.00  0.00    -0.363 N 
HETATM   26  C5  UNL     1       0.765  22.534   5.649  1.00  0.00     0.155 C 
HETATM   27  C6  UNL     1       0.868  23.814   3.629  1.00  0.00     0.035 A 
HETATM   28  C7  UNL     1      -0.583  23.840   3.525  1.00  0.00     0.070 C 
ENDBRANCH  18  20
ENDBRANCH  15  18
ENDBRANCH  13  15
ENDBRANCH   1  13
BRANCH   3  29
HETATM   29  C12 UNL     1       1.510  19.845  -3.856  1.00  0.00     0.186 C 
BRANCH  29  30
HETATM   30  C13 UNL     1       2.262  21.001  -4.372  1.00  0.00     0.044 A 
HETATM   31  C14 UNL     1       1.864  22.194  -4.919  1.00  0.00     0.115 A 
HETATM   32  N5  UNL     1       2.960  22.919  -5.238  1.00  0.00    -0.360 N 
HETATM   33  C15 UNL     1       4.019  22.188  -4.895  1.00  0.00     0.180 A 
ATOM     34  H5  UNL     1       2.973  23.848  -5.659  1.00  0.00     0.166 HD
HETATM   35  N6  UNL     1       3.627  21.033  -4.374  1.00  0.00    -0.353 N 
ATOM     36  H6  UNL     1       4.241  20.294  -4.032  1.00  0.00     0.166 HD
ENDBRANCH  29  30
ENDBRANCH   3  29
TORSDOF 6
ENDMDL
