MODEL 1
REMARK VINA RESULT: -6.640499448      0.000      0.000
REMARK  6 active torsions:
REMARK  status: ('A' for Active; 'I' for Inactive)
REMARK    1  A    between atoms: N1_1  and  C1_5 
REMARK    2  A    between atoms: C1_5  and  C2_6 
REMARK    3  A    between atoms: C2_6  and  C3_7 
REMARK    4  A    between atoms: C3_7  and  N2_8 
REMARK    5  A    between atoms: C3_7  and  C7_17 
REMARK    6  A    between atoms: N2_8  and  C4_10 
ROOT
HETATM    1  C3  UNL     1      30.501   2.136  35.950  1.00  0.00     0.150 C 
ENDROOT
BRANCH   1   2
HETATM    2  C2  UNL     1      29.680   2.443  37.147  1.00  0.00     0.060 C 
BRANCH   2   3
HETATM    3  C1  UNL     1      30.177   1.917  38.463  1.00  0.00     0.232 C 
BRANCH   3   4
HETATM    4  N1  UNL     1      29.171   0.970  38.927  1.00  0.00    -0.079 N 
ATOM      5  H13 UNL     1      29.018   1.002  39.935  1.00  0.00     0.274 HD
ATOM      6  H12 UNL     1      28.221   1.218  38.650  1.00  0.00     0.274 HD
ATOM      7  H11 UNL     1      29.466   0.054  38.590  1.00  0.00     0.274 HD
ENDBRANCH   3   4
ENDBRANCH   2   3
ENDBRANCH   1   2
BRANCH   1   8
HETATM    8  N2  UNL     1      31.717   1.452  36.268  1.00  0.00    -0.389 N 
ATOM      9  H2  UNL     1      31.713   0.599  36.828  1.00  0.00     0.156 HD
BRANCH   8  10
HETATM   10  C4  UNL     1      32.933   2.004  35.776  1.00  0.00     0.196 C 
HETATM   11  C5  UNL     1      32.727   3.429  35.219  1.00  0.00     0.166 C 
HETATM   12  N3  UNL     1      34.129   3.857  35.290  1.00  0.00    -0.383 N 
HETATM   13  C6  UNL     1      34.574   3.316  36.542  1.00  0.00     0.173 C 
ATOM     14  H3  UNL     1      34.659   4.407  34.613  1.00  0.00     0.160 HD
HETATM   15  N4  UNL     1      33.898   2.277  36.809  1.00  0.00    -0.364 N 
ATOM     16  H4  UNL     1      34.022   1.708  37.646  1.00  0.00     0.162 HD
ENDBRANCH   8  10
ENDBRANCH   1   8
BRANCH   1  17
HETATM   17  C7  UNL     1      29.725   1.175  35.078  1.00  0.00     0.136 A 
HETATM   18  N5  UNL     1      30.001   0.915  33.780  1.00  0.00    -0.270 N 
HETATM   19  N6  UNL     1      29.130   0.003  33.315  1.00  0.00    -0.227 N 
ATOM     20  H5  UNL     1      30.753   1.344  33.240  1.00  0.00     0.190 HD
HETATM   21  N7  UNL     1      28.314  -0.313  34.300  1.00  0.00    -0.227 N 
ATOM     22  H6  UNL     1      29.106  -0.377  32.369  1.00  0.00     0.210 HD
HETATM   23  N8  UNL     1      28.681   0.402  35.366  1.00  0.00    -0.270 N 
ATOM     24  H7  UNL     1      27.544  -0.981  34.256  1.00  0.00     0.210 HD
ATOM     25  H8  UNL     1      28.223   0.361  36.277  1.00  0.00     0.190 HD
ENDBRANCH   1  17
TORSDOF 6
ENDMDL
MODEL 2
REMARK VINA RESULT: -6.564364491      1.637      3.230
REMARK  6 active torsions:
REMARK  status: ('A' for Active; 'I' for Inactive)
REMARK    1  A    between atoms: N1_1  and  C1_5 
REMARK    2  A    between atoms: C1_5  and  C2_6 
REMARK    3  A    between atoms: C2_6  and  C3_7 
REMARK    4  A    between atoms: C3_7  and  N2_8 
REMARK    5  A    between atoms: C3_7  and  C7_17 
REMARK    6  A    between atoms: N2_8  and  C4_10 
ROOT
HETATM    1  C3  UNL     1      30.218   1.753  35.046  1.00  0.00     0.150 C 
ENDROOT
BRANCH   1   2
HETATM    2  C2  UNL     1      29.354   1.980  33.861  1.00  0.00     0.060 C 
BRANCH   2   3
HETATM    3  C1  UNL     1      29.467   0.988  32.739  1.00  0.00     0.232 C 
BRANCH   3   4
HETATM    4  N1  UNL     1      30.854   0.539  32.732  1.00  0.00    -0.079 N 
ATOM      5  H13 UNL     1      31.502   1.221  33.127  1.00  0.00     0.274 HD
ATOM      6  H12 UNL     1      31.042  -0.210  33.398  1.00  0.00     0.274 HD
ATOM      7  H11 UNL     1      31.066   0.289  31.767  1.00  0.00     0.274 HD
ENDBRANCH   3   4
ENDBRANCH   2   3
ENDBRANCH   1   2
BRANCH   1   8
HETATM    8  N2  UNL     1      30.667   2.970  35.651  1.00  0.00    -0.389 N 
ATOM      9  H2  UNL     1      30.004   3.652  36.021  1.00  0.00     0.156 HD
BRANCH   8  10
HETATM   10  C4  UNL     1      32.070   3.195  35.718  1.00  0.00     0.196 C 
HETATM   11  C5  UNL     1      32.722   2.390  36.862  1.00  0.00     0.166 C 
HETATM   12  N3  UNL     1      34.098   2.429  36.353  1.00  0.00    -0.383 N 
HETATM   13  C6  UNL     1      33.932   2.226  34.943  1.00  0.00     0.173 C 
ATOM     14  H3  UNL     1      34.963   2.567  36.876  1.00  0.00     0.160 HD
HETATM   15  N4  UNL     1      32.791   2.657  34.593  1.00  0.00    -0.364 N 
ATOM     16  H4  UNL     1      32.431   2.627  33.639  1.00  0.00     0.162 HD
ENDBRANCH   8  10
ENDBRANCH   1   8
BRANCH   1  17
HETATM   17  C7  UNL     1      29.391   1.067  36.110  1.00  0.00     0.136 A 
HETATM   18  N5  UNL     1      28.041   1.079  36.165  1.00  0.00    -0.270 N 
HETATM   19  N6  UNL     1      27.633   0.357  37.224  1.00  0.00    -0.227 N 
ATOM     20  H5  UNL     1      27.427   1.559  35.506  1.00  0.00     0.190 HD
HETATM   21  N7  UNL     1      28.706  -0.106  37.832  1.00  0.00    -0.227 N 
ATOM     22  H6  UNL     1      26.666   0.198  37.506  1.00  0.00     0.210 HD
HETATM   23  N8  UNL     1      29.769   0.328  37.151  1.00  0.00    -0.270 N 
ATOM     24  H7  UNL     1      28.722  -0.690  38.669  1.00  0.00     0.210 HD
ATOM     25  H8  UNL     1      30.738   0.122  37.395  1.00  0.00     0.190 HD
ENDBRANCH   1  17
TORSDOF 6
ENDMDL
MODEL 3
REMARK VINA RESULT: -6.551342630      1.407      4.800
REMARK  6 active torsions:
REMARK  status: ('A' for Active; 'I' for Inactive)
REMARK    1  A    between atoms: N1_1  and  C1_5 
REMARK    2  A    between atoms: C1_5  and  C2_6 
REMARK    3  A    between atoms: C2_6  and  C3_7 
REMARK    4  A    between atoms: C3_7  and  N2_8 
REMARK    5  A    between atoms: C3_7  and  C7_17 
REMARK    6  A    between atoms: N2_8  and  C4_10 
ROOT
HETATM    1  C3  UNL     1      30.777   1.848  35.000  1.00  0.00     0.150 C 
ENDROOT
BRANCH   1   2
HETATM    2  C2  UNL     1      30.648   1.095  33.728  1.00  0.00     0.060 C 
BRANCH   2   3
HETATM    3  C1  UNL     1      29.263   0.949  33.164  1.00  0.00     0.232 C 
BRANCH   3   4
HETATM    4  N1  UNL     1      28.676  -0.210  33.824  1.00  0.00    -0.079 N 
ATOM      5  H13 UNL     1      28.960  -1.099  33.411  1.00  0.00     0.274 HD
ATOM      6  H12 UNL     1      29.052  -0.380  34.756  1.00  0.00     0.274 HD
ATOM      7  H11 UNL     1      27.667  -0.062  33.813  1.00  0.00     0.274 HD
ENDBRANCH   3   4
ENDBRANCH   2   3
ENDBRANCH   1   2
BRANCH   1   8
HETATM    8  N2  UNL     1      30.405   1.074  36.146  1.00  0.00    -0.389 N 
ATOM      9  H2  UNL     1      30.823   0.162  36.326  1.00  0.00     0.156 HD
BRANCH   8  10
HETATM   10  C4  UNL     1      29.431   1.625  37.025  1.00  0.00     0.196 C 
HETATM   11  C5  UNL     1      29.295   0.791  38.317  1.00  0.00     0.166 C 
HETATM   12  N3  UNL     1      28.671   1.832  39.142  1.00  0.00    -0.383 N 
HETATM   13  C6  UNL     1      29.392   3.017  38.775  1.00  0.00     0.173 C 
ATOM     14  H3  UNL     1      27.909   1.737  39.813  1.00  0.00     0.160 HD
HETATM   15  N4  UNL     1      29.816   2.893  37.587  1.00  0.00    -0.364 N 
ATOM     16  H4  UNL     1      30.361   3.600  37.093  1.00  0.00     0.162 HD
ENDBRANCH   8  10
ENDBRANCH   1   8
BRANCH   1  17
HETATM   17  C7  UNL     1      32.237   2.180  35.207  1.00  0.00     0.136 A 
HETATM   18  N5  UNL     1      32.750   3.431  35.218  1.00  0.00    -0.270 N 
HETATM   19  N6  UNL     1      34.074   3.366  35.445  1.00  0.00    -0.227 N 
ATOM     20  H5  UNL     1      32.216   4.289  35.078  1.00  0.00     0.190 HD
HETATM   21  N7  UNL     1      34.398   2.095  35.576  1.00  0.00    -0.227 N 
ATOM     22  H6  UNL     1      34.712   4.159  35.504  1.00  0.00     0.210 HD
HETATM   23  N8  UNL     1      33.279   1.382  35.430  1.00  0.00    -0.270 N 
ATOM     24  H7  UNL     1      35.332   1.725  35.756  1.00  0.00     0.210 HD
ATOM     25  H8  UNL     1      33.229   0.364  35.483  1.00  0.00     0.190 HD
ENDBRANCH   1  17
TORSDOF 6
ENDMDL
MODEL 4
REMARK VINA RESULT: -6.512434766      0.811      1.061
REMARK  6 active torsions:
REMARK  status: ('A' for Active; 'I' for Inactive)
REMARK    1  A    between atoms: N1_1  and  C1_5 
REMARK    2  A    between atoms: C1_5  and  C2_6 
REMARK    3  A    between atoms: C2_6  and  C3_7 
REMARK    4  A    between atoms: C3_7  and  N2_8 
REMARK    5  A    between atoms: C3_7  and  C7_17 
REMARK    6  A    between atoms: N2_8  and  C4_10 
ROOT
HETATM    1  C3  UNL     1      30.520   2.366  36.099  1.00  0.00     0.150 C 
ENDROOT
BRANCH   1   2
HETATM    2  C2  UNL     1      29.670   2.514  37.306  1.00  0.00     0.060 C 
BRANCH   2   3
HETATM    3  C1  UNL     1      30.168   1.867  38.568  1.00  0.00     0.232 C 
BRANCH   3   4
HETATM    4  N1  UNL     1      29.189   0.843  38.912  1.00  0.00    -0.079 N 
ATOM      5  H13 UNL     1      28.234   1.196  38.965  1.00  0.00     0.274 HD
ATOM      6  H12 UNL     1      29.030   0.166  38.166  1.00  0.00     0.274 HD
ATOM      7  H11 UNL     1      29.514   0.421  39.782  1.00  0.00     0.274 HD
ENDBRANCH   3   4
ENDBRANCH   2   3
ENDBRANCH   1   2
BRANCH   1   8
HETATM    8  N2  UNL     1      31.800   1.794  36.384  1.00  0.00    -0.389 N 
ATOM      9  H2  UNL     1      31.893   0.817  36.662  1.00  0.00     0.156 HD
BRANCH   8  10
HETATM   10  C4  UNL     1      32.940   2.637  36.267  1.00  0.00     0.196 C 
HETATM   11  C5  UNL     1      33.812   2.596  37.541  1.00  0.00     0.166 C 
HETATM   12  N3  UNL     1      35.049   3.098  36.932  1.00  0.00    -0.383 N 
HETATM   13  C6  UNL     1      35.085   2.432  35.662  1.00  0.00     0.173 C 
ATOM     14  H3  UNL     1      35.722   3.761  37.319  1.00  0.00     0.160 HD
HETATM   15  N4  UNL     1      33.898   2.175  35.296  1.00  0.00    -0.364 N 
ATOM     16  H4  UNL     1      33.653   1.703  34.426  1.00  0.00     0.162 HD
ENDBRANCH   8  10
ENDBRANCH   1   8
BRANCH   1  17
HETATM   17  C7  UNL     1      29.849   1.384  35.166  1.00  0.00     0.136 A 
HETATM   18  N5  UNL     1      30.267   1.101  33.912  1.00  0.00    -0.270 N 
HETATM   19  N6  UNL     1      29.457   0.174  33.371  1.00  0.00    -0.227 N 
ATOM     20  H5  UNL     1      31.072   1.524  33.449  1.00  0.00     0.190 HD
HETATM   21  N7  UNL     1      28.538  -0.128  34.267  1.00  0.00    -0.227 N 
ATOM     22  H6  UNL     1      29.539  -0.223  32.436  1.00  0.00     0.210 HD
HETATM   23  N8  UNL     1      28.782   0.609  35.352  1.00  0.00    -0.270 N 
ATOM     24  H7  UNL     1      27.781  -0.802  34.151  1.00  0.00     0.210 HD
ATOM     25  H8  UNL     1      28.227   0.583  36.208  1.00  0.00     0.190 HD
ENDBRANCH   1  17
TORSDOF 6
ENDMDL
MODEL 5
REMARK VINA RESULT: -6.446946933      1.360      3.106
REMARK  6 active torsions:
REMARK  status: ('A' for Active; 'I' for Inactive)
REMARK    1  A    between atoms: N1_1  and  C1_5 
REMARK    2  A    between atoms: C1_5  and  C2_6 
REMARK    3  A    between atoms: C2_6  and  C3_7 
REMARK    4  A    between atoms: C3_7  and  N2_8 
REMARK    5  A    between atoms: C3_7  and  C7_17 
REMARK    6  A    between atoms: N2_8  and  C4_10 
ROOT
HETATM    1  C3  UNL     1      30.588   1.491  35.415  1.00  0.00     0.150 C 
ENDROOT
BRANCH   1   2
HETATM    2  C2  UNL     1      29.849   1.996  34.232  1.00  0.00     0.060 C 
BRANCH   2   3
HETATM    3  C1  UNL     1      29.713   1.059  33.066  1.00  0.00     0.232 C 
BRANCH   3   4
HETATM    4  N1  UNL     1      31.062   0.601  32.755  1.00  0.00    -0.079 N 
ATOM      5  H13 UNL     1      31.501   1.120  31.994  1.00  0.00     0.274 HD
ATOM      6  H12 UNL     1      31.746   0.834  33.475  1.00  0.00     0.274 HD
ATOM      7  H11 UNL     1      30.987  -0.400  32.573  1.00  0.00     0.274 HD
ENDBRANCH   3   4
ENDBRANCH   2   3
ENDBRANCH   1   2
BRANCH   1   8
HETATM    8  N2  UNL     1      31.465   2.468  35.985  1.00  0.00    -0.389 N 
ATOM      9  H2  UNL     1      31.116   3.379  36.287  1.00  0.00     0.156 HD
BRANCH   8  10
HETATM   10  C4  UNL     1      32.840   2.126  36.116  1.00  0.00     0.196 C 
HETATM   11  C5  UNL     1      33.729   2.981  35.188  1.00  0.00     0.166 C 
HETATM   12  N3  UNL     1      34.995   2.767  35.900  1.00  0.00    -0.383 N 
HETATM   13  C6  UNL     1      34.611   2.841  37.280  1.00  0.00     0.173 C 
ATOM     14  H3  UNL     1      35.923   2.605  35.509  1.00  0.00     0.160 HD
HETATM   15  N4  UNL     1      33.400   2.481  37.394  1.00  0.00    -0.364 N 
ATOM     16  H4  UNL     1      32.889   2.447  38.276  1.00  0.00     0.162 HD
ENDBRANCH   8  10
ENDBRANCH   1   8
BRANCH   1  17
HETATM   17  C7  UNL     1      29.585   1.180  36.503  1.00  0.00     0.136 A 
HETATM   18  N5  UNL     1      28.438   0.489  36.320  1.00  0.00    -0.270 N 
HETATM   19  N6  UNL     1      27.794   0.379  37.495  1.00  0.00    -0.227 N 
ATOM     20  H5  UNL     1      28.112   0.111  35.431  1.00  0.00     0.190 HD
HETATM   21  N7  UNL     1      28.520   0.990  38.411  1.00  0.00    -0.227 N 
ATOM     22  H6  UNL     1      26.903  -0.092  37.650  1.00  0.00     0.210 HD
HETATM   23  N8  UNL     1      29.605   1.473  37.801  1.00  0.00    -0.270 N 
ATOM     24  H7  UNL     1      28.294   1.076  39.402  1.00  0.00     0.210 HD
ATOM     25  H8  UNL     1      30.347   1.995  38.267  1.00  0.00     0.190 HD
ENDBRANCH   1  17
TORSDOF 6
ENDMDL
