MODEL 1
REMARK VINA RESULT: -6.940098018      0.000      0.000
REMARK  9 active torsions:
REMARK  status: ('A' for Active; 'I' for Inactive)
REMARK    1  A    between atoms: N1_1  and  C1_4 
REMARK    2  A    between atoms: C4_9  and  N3_10 
REMARK    3  A    between atoms: N3_10  and  C5_12 
REMARK    4  A    between atoms: C5_12  and  N4_13 
REMARK    5  A    between atoms: C5_12  and  C6_17 
REMARK    6  A    between atoms: C6_17  and  N5_18 
REMARK    7  A    between atoms: N5_18  and  O1_19 
REMARK    8  A    between atoms: N5_18  and  C7_21 
REMARK    9  A    between atoms: N6_22  and  N7_24 
ROOT
HETATM    1  C5  UNL     1      32.529   2.761  34.928  1.00  0.00     0.303 C 
ENDROOT
BRANCH   1   2
HETATM    2  N3  UNL     1      31.190   3.135  35.246  1.00  0.00    -0.346 N 
ATOM      3  H3  UNL     1      30.897   4.080  34.996  1.00  0.00     0.163 HD
BRANCH   2   4
HETATM    4  C4  UNL     1      30.235   2.308  35.876  1.00  0.00     0.119 A 
HETATM    5  C3  UNL     1      29.602   1.285  35.202  1.00  0.00     0.136 A 
HETATM    6  N2  UNL     1      28.699   0.484  35.780  1.00  0.00    -0.368 N 
HETATM    7  C2  UNL     1      28.367   0.651  37.072  1.00  0.00     0.136 A 
ATOM      8  H2  UNL     1      28.260  -0.259  35.236  1.00  0.00     0.164 HD
HETATM    9  C1  UNL     1      28.984   1.665  37.766  1.00  0.00     0.116 A 
HETATM   10  N8  UNL     1      29.888   2.458  37.168  1.00  0.00    -0.327 N 
ATOM     11  H8  UNL     1      30.327   3.201  37.712  1.00  0.00     0.169 HD
BRANCH   9  12
HETATM   12  N1  UNL     1      28.690   1.850  39.001  1.00  0.00    -0.384 N 
ATOM     13  H12 UNL     1      29.059   1.216  39.710  1.00  0.00     0.157 HD
ATOM     14  H11 UNL     1      28.087   2.631  39.259  1.00  0.00     0.157 HD
ENDBRANCH   9  12
ENDBRANCH   2   4
ENDBRANCH   1   2
BRANCH   1  15
HETATM   15  N4  UNL     1      32.662   1.676  34.016  1.00  0.00    -0.057 N 
ATOM     16  H43 UNL     1      33.492   1.129  34.242  1.00  0.00     0.276 HD
ATOM     17  H42 UNL     1      31.935   0.982  34.189  1.00  0.00     0.276 HD
ATOM     18  H41 UNL     1      32.672   1.932  33.029  1.00  0.00     0.276 HD
ENDBRANCH   1  15
BRANCH   1  19
HETATM   19  C6  UNL     1      33.350   2.457  36.162  1.00  0.00     0.210 C 
BRANCH  19  20
HETATM   20  N5  UNL     1      34.747   2.708  36.003  1.00  0.00    -0.252 N 
BRANCH  20  21
HETATM   21  O1  UNL     1      35.430   2.144  34.963  1.00  0.00    -0.287 OA
ATOM     22  H1  UNL     1      35.926   2.692  34.366  1.00  0.00     0.244 HD
ENDBRANCH  20  21
BRANCH  20  23
HETATM   23  C7  UNL     1      35.500   3.527  36.882  1.00  0.00     0.222 C 
HETATM   24  N6  UNL     1      35.787   4.745  36.613  1.00  0.00    -0.301 N 
ATOM     25  H6  UNL     1      36.334   5.258  37.305  1.00  0.00     0.187 HD
BRANCH  24  26
HETATM   26  N7  UNL     1      35.421   5.429  35.465  1.00  0.00    -0.344 N 
ATOM     27  H72 UNL     1      34.418   5.523  35.301  1.00  0.00     0.176 HD
ATOM     28  H71 UNL     1      36.062   5.835  34.784  1.00  0.00     0.176 HD
ENDBRANCH  24  26
ENDBRANCH  20  23
ENDBRANCH  19  20
ENDBRANCH   1  19
TORSDOF 9
ENDMDL
MODEL 2
REMARK VINA RESULT: -6.881052215      1.646      2.213
REMARK  9 active torsions:
REMARK  status: ('A' for Active; 'I' for Inactive)
REMARK    1  A    between atoms: N1_1  and  C1_4 
REMARK    2  A    between atoms: C4_9  and  N3_10 
REMARK    3  A    between atoms: N3_10  and  C5_12 
REMARK    4  A    between atoms: C5_12  and  N4_13 
REMARK    5  A    between atoms: C5_12  and  C6_17 
REMARK    6  A    between atoms: C6_17  and  N5_18 
REMARK    7  A    between atoms: N5_18  and  O1_19 
REMARK    8  A    between atoms: N5_18  and  C7_21 
REMARK    9  A    between atoms: N6_22  and  N7_24 
ROOT
HETATM    1  C5  UNL     1      31.186   1.859  34.675  1.00  0.00     0.303 C 
ENDROOT
BRANCH   1   2
HETATM    2  N3  UNL     1      30.915   1.094  35.848  1.00  0.00    -0.346 N 
ATOM      3  H3  UNL     1      31.275   0.140  35.876  1.00  0.00     0.163 HD
BRANCH   2   4
HETATM    4  C4  UNL     1      30.191   1.545  36.972  1.00  0.00     0.119 A 
HETATM    5  C3  UNL     1      28.985   0.981  37.334  1.00  0.00     0.136 A 
HETATM    6  N2  UNL     1      28.284   1.387  38.400  1.00  0.00    -0.368 N 
HETATM    7  C2  UNL     1      28.739   2.385  39.175  1.00  0.00     0.136 A 
ATOM      8  H2  UNL     1      27.397   0.935  38.624  1.00  0.00     0.164 HD
HETATM    9  C1  UNL     1      29.938   2.965  38.835  1.00  0.00     0.116 A 
HETATM   10  N8  UNL     1      30.628   2.543  37.762  1.00  0.00    -0.327 N 
ATOM     11  H8  UNL     1      31.515   2.996  37.538  1.00  0.00     0.169 HD
BRANCH   9  12
HETATM   12  N1  UNL     1      30.401   3.920  39.556  1.00  0.00    -0.384 N 
ATOM     13  H12 UNL     1      29.862   4.261  40.352  1.00  0.00     0.157 HD
ATOM     14  H11 UNL     1      31.306   4.330  39.322  1.00  0.00     0.157 HD
ENDBRANCH   9  12
ENDBRANCH   2   4
ENDBRANCH   1   2
BRANCH   1  15
HETATM   15  N4  UNL     1      31.470   1.103  33.502  1.00  0.00    -0.057 N 
ATOM     16  H43 UNL     1      32.439   0.784  33.518  1.00  0.00     0.276 HD
ATOM     17  H42 UNL     1      30.984   0.208  33.537  1.00  0.00     0.276 HD
ATOM     18  H41 UNL     1      31.273   1.573  32.619  1.00  0.00     0.276 HD
ENDBRANCH   1  15
BRANCH   1  19
HETATM   19  C6  UNL     1      32.302   2.859  34.886  1.00  0.00     0.210 C 
BRANCH  19  20
HETATM   20  N5  UNL     1      33.489   2.292  35.443  1.00  0.00    -0.252 N 
BRANCH  20  21
HETATM   21  O1  UNL     1      33.658   0.936  35.456  1.00  0.00    -0.287 OA
ATOM     22  H1  UNL     1      34.497   0.563  35.700  1.00  0.00     0.244 HD
ENDBRANCH  20  21
BRANCH  20  23
HETATM   23  C7  UNL     1      34.537   3.064  36.004  1.00  0.00     0.222 C 
HETATM   24  N6  UNL     1      34.786   3.079  37.260  1.00  0.00    -0.301 N 
ATOM     25  H6  UNL     1      35.561   3.665  37.573  1.00  0.00     0.187 HD
BRANCH  24  26
HETATM   26  N7  UNL     1      34.097   2.371  38.230  1.00  0.00    -0.344 N 
ATOM     27  H72 UNL     1      34.586   2.235  39.115  1.00  0.00     0.176 HD
ATOM     28  H71 UNL     1      33.160   1.982  38.131  1.00  0.00     0.176 HD
ENDBRANCH  24  26
ENDBRANCH  20  23
ENDBRANCH  19  20
ENDBRANCH   1  19
TORSDOF 9
ENDMDL
MODEL 3
REMARK VINA RESULT: -6.866379467      3.929      5.520
REMARK  9 active torsions:
REMARK  status: ('A' for Active; 'I' for Inactive)
REMARK    1  A    between atoms: N1_1  and  C1_4 
REMARK    2  A    between atoms: C4_9  and  N3_10 
REMARK    3  A    between atoms: N3_10  and  C5_12 
REMARK    4  A    between atoms: C5_12  and  N4_13 
REMARK    5  A    between atoms: C5_12  and  C6_17 
REMARK    6  A    between atoms: C6_17  and  N5_18 
REMARK    7  A    between atoms: N5_18  and  O1_19 
REMARK    8  A    between atoms: N5_18  and  C7_21 
REMARK    9  A    between atoms: N6_22  and  N7_24 
ROOT
HETATM    1  C5  UNL     1      29.900   1.631  38.251  1.00  0.00     0.303 C 
ENDROOT
BRANCH   1   2
HETATM    2  N3  UNL     1      29.095   2.078  37.161  1.00  0.00    -0.346 N 
ATOM      3  H3  UNL     1      28.352   2.743  37.372  1.00  0.00     0.163 HD
BRANCH   2   4
HETATM    4  C4  UNL     1      29.241   1.675  35.816  1.00  0.00     0.119 A 
HETATM    5  C3  UNL     1      29.968   2.418  34.910  1.00  0.00     0.136 A 
HETATM    6  N2  UNL     1      30.126   2.053  33.632  1.00  0.00    -0.368 N 
HETATM    7  C2  UNL     1      29.566   0.922  33.171  1.00  0.00     0.136 A 
ATOM      8  H2  UNL     1      30.675   2.639  33.002  1.00  0.00     0.164 HD
HETATM    9  C1  UNL     1      28.835   0.163  34.055  1.00  0.00     0.116 A 
HETATM   10  N8  UNL     1      28.689   0.546  35.334  1.00  0.00    -0.327 N 
ATOM     11  H8  UNL     1      28.139  -0.041  35.964  1.00  0.00     0.169 HD
BRANCH   9  12
HETATM   12  N1  UNL     1      28.289  -0.924  33.648  1.00  0.00    -0.384 N 
ATOM     13  H12 UNL     1      28.871  -1.674  33.275  1.00  0.00     0.157 HD
ATOM     14  H11 UNL     1      27.275  -1.024  33.700  1.00  0.00     0.157 HD
ENDBRANCH   9  12
ENDBRANCH   2   4
ENDBRANCH   1   2
BRANCH   1  15
HETATM   15  N4  UNL     1      29.317   0.623  39.070  1.00  0.00    -0.057 N 
ATOM     16  H43 UNL     1      28.478   0.982  39.523  1.00  0.00     0.276 HD
ATOM     17  H42 UNL     1      28.910  -0.108  38.488  1.00  0.00     0.276 HD
ATOM     18  H41 UNL     1      29.939   0.209  39.765  1.00  0.00     0.276 HD
ENDBRANCH   1  15
BRANCH   1  19
HETATM   19  C6  UNL     1      30.351   2.772  39.138  1.00  0.00     0.210 C 
BRANCH  19  20
HETATM   20  N5  UNL     1      29.379   3.808  39.286  1.00  0.00    -0.252 N 
BRANCH  20  21
HETATM   21  O1  UNL     1      29.429   4.912  38.483  1.00  0.00    -0.287 OA
ATOM     22  H1  UNL     1      29.085   5.742  38.793  1.00  0.00     0.244 HD
ENDBRANCH  20  21
BRANCH  20  23
HETATM   23  C7  UNL     1      28.332   3.769  40.241  1.00  0.00     0.222 C 
HETATM   24  N6  UNL     1      28.172   4.680  41.126  1.00  0.00    -0.301 N 
ATOM     25  H6  UNL     1      27.390   4.568  41.772  1.00  0.00     0.187 HD
BRANCH  24  26
HETATM   26  N7  UNL     1      28.965   5.805  41.282  1.00  0.00    -0.344 N 
ATOM     27  H72 UNL     1      29.550   5.826  42.118  1.00  0.00     0.176 HD
ATOM     28  H71 UNL     1      29.008   6.597  40.642  1.00  0.00     0.176 HD
ENDBRANCH  24  26
ENDBRANCH  20  23
ENDBRANCH  19  20
ENDBRANCH   1  19
TORSDOF 9
ENDMDL
MODEL 4
REMARK VINA RESULT: -6.851883807      1.910      3.087
REMARK  9 active torsions:
REMARK  status: ('A' for Active; 'I' for Inactive)
REMARK    1  A    between atoms: N1_1  and  C1_4 
REMARK    2  A    between atoms: C4_9  and  N3_10 
REMARK    3  A    between atoms: N3_10  and  C5_12 
REMARK    4  A    between atoms: C5_12  and  N4_13 
REMARK    5  A    between atoms: C5_12  and  C6_17 
REMARK    6  A    between atoms: C6_17  and  N5_18 
REMARK    7  A    between atoms: N5_18  and  O1_19 
REMARK    8  A    between atoms: N5_18  and  C7_21 
REMARK    9  A    between atoms: N6_22  and  N7_24 
ROOT
HETATM    1  C5  UNL     1      34.507   2.947  35.960  1.00  0.00     0.303 C 
ENDROOT
BRANCH   1   2
HETATM    2  N3  UNL     1      33.422   2.400  36.707  1.00  0.00    -0.346 N 
ATOM      3  H3  UNL     1      33.612   2.120  37.670  1.00  0.00     0.163 HD
BRANCH   2   4
HETATM    4  C4  UNL     1      32.108   2.213  36.227  1.00  0.00     0.119 A 
HETATM    5  C3  UNL     1      31.004   2.549  36.982  1.00  0.00     0.136 A 
HETATM    6  N2  UNL     1      29.748   2.387  36.545  1.00  0.00    -0.368 N 
HETATM    7  C2  UNL     1      29.512   1.878  35.325  1.00  0.00     0.136 A 
ATOM      8  H2  UNL     1      28.966   2.653  37.144  1.00  0.00     0.164 HD
HETATM    9  C1  UNL     1      30.596   1.534  34.553  1.00  0.00     0.116 A 
HETATM   10  N8  UNL     1      31.848   1.704  35.008  1.00  0.00    -0.327 N 
ATOM     11  H8  UNL     1      32.630   1.438  34.409  1.00  0.00     0.169 HD
BRANCH   9  12
HETATM   12  N1  UNL     1      30.404   1.046  33.382  1.00  0.00    -0.384 N 
ATOM     13  H12 UNL     1      30.762   0.117  33.155  1.00  0.00     0.157 HD
ATOM     14  H11 UNL     1      29.896   1.595  32.688  1.00  0.00     0.157 HD
ENDBRANCH   9  12
ENDBRANCH   2   4
ENDBRANCH   1   2
BRANCH   1  15
HETATM   15  N4  UNL     1      35.286   2.005  35.231  1.00  0.00    -0.057 N 
ATOM     16  H43 UNL     1      35.294   1.108  35.717  1.00  0.00     0.276 HD
ATOM     17  H42 UNL     1      34.803   1.741  34.373  1.00  0.00     0.276 HD
ATOM     18  H41 UNL     1      36.240   2.294  35.019  1.00  0.00     0.276 HD
ENDBRANCH   1  15
BRANCH   1  19
HETATM   19  C6  UNL     1      35.436   3.778  36.819  1.00  0.00     0.210 C 
BRANCH  19  20
HETATM   20  N5  UNL     1      35.887   4.978  36.188  1.00  0.00    -0.252 N 
BRANCH  20  21
HETATM   21  O1  UNL     1      35.033   6.034  36.037  1.00  0.00    -0.287 OA
ATOM     22  H1  UNL     1      35.203   6.691  35.372  1.00  0.00     0.244 HD
ENDBRANCH  20  21
BRANCH  20  23
HETATM   23  C7  UNL     1      37.202   5.154  35.690  1.00  0.00     0.222 C 
HETATM   24  N6  UNL     1      37.890   6.210  35.914  1.00  0.00    -0.301 N 
ATOM     25  H6  UNL     1      38.828   6.248  35.514  1.00  0.00     0.187 HD
BRANCH  24  26
HETATM   26  N7  UNL     1      37.472   7.306  36.650  1.00  0.00    -0.344 N 
ATOM     27  H72 UNL     1      36.485   7.550  36.569  1.00  0.00     0.176 HD
ATOM     28  H71 UNL     1      38.062   7.878  37.254  1.00  0.00     0.176 HD
ENDBRANCH  24  26
ENDBRANCH  20  23
ENDBRANCH  19  20
ENDBRANCH   1  19
TORSDOF 9
ENDMDL
MODEL 5
REMARK VINA RESULT: -6.792808134      1.055      1.422
REMARK  9 active torsions:
REMARK  status: ('A' for Active; 'I' for Inactive)
REMARK    1  A    between atoms: N1_1  and  C1_4 
REMARK    2  A    between atoms: C4_9  and  N3_10 
REMARK    3  A    between atoms: N3_10  and  C5_12 
REMARK    4  A    between atoms: C5_12  and  N4_13 
REMARK    5  A    between atoms: C5_12  and  C6_17 
REMARK    6  A    between atoms: C6_17  and  N5_18 
REMARK    7  A    between atoms: N5_18  and  O1_19 
REMARK    8  A    between atoms: N5_18  and  C7_21 
REMARK    9  A    between atoms: N6_22  and  N7_24 
ROOT
HETATM    1  C5  UNL     1      32.729   2.295  34.742  1.00  0.00     0.303 C 
ENDROOT
BRANCH   1   2
HETATM    2  N3  UNL     1      31.350   2.654  34.687  1.00  0.00    -0.346 N 
ATOM      3  H3  UNL     1      31.094   3.432  34.080  1.00  0.00     0.163 HD
BRANCH   2   4
HETATM    4  C4  UNL     1      30.310   2.023  35.404  1.00  0.00     0.119 A 
HETATM    5  C3  UNL     1      29.472   1.103  34.810  1.00  0.00     0.136 A 
HETATM    6  N2  UNL     1      28.484   0.487  35.470  1.00  0.00    -0.368 N 
HETATM    7  C2  UNL     1      28.264   0.750  36.769  1.00  0.00     0.136 A 
ATOM      8  H2  UNL     1      27.893  -0.187  34.983  1.00  0.00     0.164 HD
HETATM    9  C1  UNL     1      29.085   1.666  37.385  1.00  0.00     0.116 A 
HETATM   10  N8  UNL     1      30.072   2.273  36.705  1.00  0.00    -0.327 N 
ATOM     11  H8  UNL     1      30.663   2.947  37.193  1.00  0.00     0.169 HD
BRANCH   9  12
HETATM   12  N1  UNL     1      28.903   1.939  38.625  1.00  0.00    -0.384 N 
ATOM     13  H12 UNL     1      28.780   1.182  39.298  1.00  0.00     0.157 HD
ATOM     14  H11 UNL     1      28.882   2.914  38.924  1.00  0.00     0.157 HD
ENDBRANCH   9  12
ENDBRANCH   2   4
ENDBRANCH   1   2
BRANCH   1  15
HETATM   15  N4  UNL     1      33.020   1.082  35.429  1.00  0.00    -0.057 N 
ATOM     16  H43 UNL     1      33.955   0.757  35.185  1.00  0.00     0.276 HD
ATOM     17  H42 UNL     1      33.146   1.266  36.424  1.00  0.00     0.276 HD
ATOM     18  H41 UNL     1      32.344   0.330  35.297  1.00  0.00     0.276 HD
ENDBRANCH   1  15
BRANCH   1  19
HETATM   19  C6  UNL     1      33.588   3.396  35.324  1.00  0.00     0.210 C 
BRANCH  19  20
HETATM   20  N5  UNL     1      34.884   2.961  35.737  1.00  0.00    -0.252 N 
BRANCH  20  21
HETATM   21  O1  UNL     1      35.589   2.081  34.964  1.00  0.00    -0.287 OA
ATOM     22  H1  UNL     1      36.077   1.375  35.372  1.00  0.00     0.244 HD
ENDBRANCH  20  21
BRANCH  20  23
HETATM   23  C7  UNL     1      35.510   3.390  36.934  1.00  0.00     0.222 C 
HETATM   24  N6  UNL     1      35.067   3.080  38.094  1.00  0.00    -0.301 N 
ATOM     25  H6  UNL     1      35.583   3.435  38.900  1.00  0.00     0.187 HD
BRANCH  24  26
HETATM   26  N7  UNL     1      33.948   2.304  38.352  1.00  0.00    -0.344 N 
ATOM     27  H72 UNL     1      33.048   2.733  38.140  1.00  0.00     0.176 HD
ATOM     28  H71 UNL     1      33.955   1.357  38.732  1.00  0.00     0.176 HD
ENDBRANCH  24  26
ENDBRANCH  20  23
ENDBRANCH  19  20
ENDBRANCH   1  19
TORSDOF 9
ENDMDL
