MODEL 1
REMARK VINA RESULT: -6.616203716      0.000      0.000
REMARK  8 active torsions:
REMARK  status: ('A' for Active; 'I' for Inactive)
REMARK    1  A    between atoms: N1_1  and  C1_5 
REMARK    2  A    between atoms: C1_5  and  C2_6 
REMARK    3  A    between atoms: C2_6  and  N2_7 
REMARK    4  A    between atoms: N2_7  and  C3_9 
REMARK    5  A    between atoms: C5_15  and  N5_16 
REMARK    6  A    between atoms: N5_16  and  C6_18 
REMARK    7  A    between atoms: C6_18  and  C7_19 
REMARK    8  A    between atoms: C7_19  and  N6_20 
ROOT
HETATM    1  C3  UNL     1      29.892   2.420  38.597  1.00  0.00     0.130 A 
HETATM    2  N3  UNL     1      29.324   1.271  39.077  1.00  0.00    -0.337 N 
ATOM      3  H3  UNL     1      29.032   1.221  40.053  1.00  0.00     0.168 HD
HETATM    4  C4  UNL     1      29.148   0.204  38.271  1.00  0.00     0.183 A 
HETATM    5  N4  UNL     1      29.523   0.245  36.981  1.00  0.00    -0.337 N 
ATOM      6  H4  UNL     1      29.374  -0.579  36.398  1.00  0.00     0.168 HD
HETATM    7  C5  UNL     1      30.087   1.336  36.432  1.00  0.00     0.130 A 
HETATM    8  C8  UNL     1      30.260   2.424  37.284  1.00  0.00     0.133 A 
HETATM    9  N7  UNL     1      30.846   3.567  36.725  1.00  0.00    -0.094 NA
ENDROOT
BRANCH   1  10
HETATM   10  N2  UNL     1      30.037   3.374  39.365  1.00  0.00    -0.373 N 
ATOM     11  H2  UNL     1      30.908   3.283  39.888  1.00  0.00     0.161 HD
BRANCH  10  12
HETATM   12  C2  UNL     1      29.367   4.539  39.732  1.00  0.00     0.148 C 
BRANCH  12  13
HETATM   13  C1  UNL     1      28.407   4.319  40.910  1.00  0.00     0.249 C 
BRANCH  13  14
HETATM   14  N1  UNL     1      28.273   5.506  41.715  1.00  0.00    -0.078 N 
ATOM     15  H13 UNL     1      27.529   6.110  41.367  1.00  0.00     0.274 HD
ATOM     16  H12 UNL     1      27.885   5.291  42.634  1.00  0.00     0.274 HD
ATOM     17  H11 UNL     1      29.156   6.010  41.793  1.00  0.00     0.274 HD
ENDBRANCH  13  14
ENDBRANCH  12  13
ENDBRANCH  10  12
ENDBRANCH   1  10
BRANCH   7  18
HETATM   18  N5  UNL     1      30.500   1.402  35.079  1.00  0.00    -0.373 N 
ATOM     19  H5  UNL     1      31.478   1.213  34.858  1.00  0.00     0.161 HD
BRANCH  18  20
HETATM   20  C6  UNL     1      29.611   1.720  34.017  1.00  0.00     0.148 C 
BRANCH  20  21
HETATM   21  C7  UNL     1      29.411   0.549  33.108  1.00  0.00     0.249 C 
BRANCH  21  22
HETATM   22  N6  UNL     1      28.563  -0.462  33.727  1.00  0.00    -0.078 N 
ATOM     23  H63 UNL     1      28.111  -0.107  34.570  1.00  0.00     0.274 HD
ATOM     24  H62 UNL     1      27.730  -0.646  33.167  1.00  0.00     0.274 HD
ATOM     25  H61 UNL     1      29.085  -1.319  33.914  1.00  0.00     0.274 HD
ENDBRANCH  21  22
ENDBRANCH  20  21
ENDBRANCH  18  20
ENDBRANCH   7  18
TORSDOF 8
ENDMDL
MODEL 2
REMARK VINA RESULT: -6.574657875      3.445      6.034
REMARK  8 active torsions:
REMARK  status: ('A' for Active; 'I' for Inactive)
REMARK    1  A    between atoms: N1_1  and  C1_5 
REMARK    2  A    between atoms: C1_5  and  C2_6 
REMARK    3  A    between atoms: C2_6  and  N2_7 
REMARK    4  A    between atoms: N2_7  and  C3_9 
REMARK    5  A    between atoms: C5_15  and  N5_16 
REMARK    6  A    between atoms: N5_16  and  C6_18 
REMARK    7  A    between atoms: C6_18  and  C7_19 
REMARK    8  A    between atoms: C7_19  and  N6_20 
ROOT
HETATM    1  C3  UNL     1      31.310   2.619  35.272  1.00  0.00     0.130 A 
HETATM    2  N3  UNL     1      30.830   2.364  36.527  1.00  0.00    -0.337 N 
ATOM      3  H3  UNL     1      29.824   2.285  36.677  1.00  0.00     0.168 HD
HETATM    4  C4  UNL     1      31.674   2.217  37.569  1.00  0.00     0.183 A 
HETATM    5  N4  UNL     1      33.004   2.316  37.397  1.00  0.00    -0.337 N 
ATOM      6  H4  UNL     1      33.615   2.199  38.206  1.00  0.00     0.168 HD
HETATM    7  C5  UNL     1      33.556   2.564  36.196  1.00  0.00     0.130 A 
HETATM    8  C8  UNL     1      32.664   2.712  35.137  1.00  0.00     0.133 A 
HETATM    9  N7  UNL     1      33.226   2.971  33.879  1.00  0.00    -0.094 NA
ENDROOT
BRANCH   1  10
HETATM   10  N2  UNL     1      30.507   2.747  34.345  1.00  0.00    -0.373 N 
ATOM     11  H2  UNL     1      30.847   3.431  33.669  1.00  0.00     0.161 HD
BRANCH  10  12
HETATM   12  C2  UNL     1      29.272   2.238  33.946  1.00  0.00     0.148 C 
BRANCH  12  13
HETATM   13  C1  UNL     1      29.332   0.737  33.625  1.00  0.00     0.249 C 
BRANCH  13  14
HETATM   14  N1  UNL     1      28.476  -0.027  34.496  1.00  0.00    -0.078 N 
ATOM     15  H13 UNL     1      29.016  -0.533  35.198  1.00  0.00     0.274 HD
ATOM     16  H12 UNL     1      27.940   0.579  35.117  1.00  0.00     0.274 HD
ATOM     17  H11 UNL     1      27.868  -0.654  33.971  1.00  0.00     0.274 HD
ENDBRANCH  13  14
ENDBRANCH  12  13
ENDBRANCH  10  12
ENDBRANCH   1  10
BRANCH   7  18
HETATM   18  N5  UNL     1      34.952   2.682  35.990  1.00  0.00    -0.373 N 
ATOM     19  H5  UNL     1      35.411   2.019  35.366  1.00  0.00     0.161 HD
BRANCH  18  20
HETATM   20  C6  UNL     1      35.741   3.685  36.615  1.00  0.00     0.148 C 
BRANCH  20  21
HETATM   21  C7  UNL     1      35.468   5.034  36.028  1.00  0.00     0.249 C 
BRANCH  21  22
HETATM   22  N6  UNL     1      36.701   5.683  35.599  1.00  0.00    -0.078 N 
ATOM     23  H63 UNL     1      36.594   6.696  35.553  1.00  0.00     0.274 HD
ATOM     24  H62 UNL     1      37.420   5.634  36.321  1.00  0.00     0.274 HD
ATOM     25  H61 UNL     1      37.033   5.300  34.714  1.00  0.00     0.274 HD
ENDBRANCH  21  22
ENDBRANCH  20  21
ENDBRANCH  18  20
ENDBRANCH   7  18
TORSDOF 8
ENDMDL
MODEL 3
REMARK VINA RESULT: -6.526120418      3.491      4.876
REMARK  8 active torsions:
REMARK  status: ('A' for Active; 'I' for Inactive)
REMARK    1  A    between atoms: N1_1  and  C1_5 
REMARK    2  A    between atoms: C1_5  and  C2_6 
REMARK    3  A    between atoms: C2_6  and  N2_7 
REMARK    4  A    between atoms: N2_7  and  C3_9 
REMARK    5  A    between atoms: C5_15  and  N5_16 
REMARK    6  A    between atoms: N5_16  and  C6_18 
REMARK    7  A    between atoms: C6_18  and  C7_19 
REMARK    8  A    between atoms: C7_19  and  N6_20 
ROOT
HETATM    1  C3  UNL     1      33.584   2.722  36.214  1.00  0.00     0.130 A 
HETATM    2  N3  UNL     1      33.082   2.288  37.410  1.00  0.00    -0.337 N 
ATOM      3  H3  UNL     1      33.715   2.114  38.190  1.00  0.00     0.168 HD
HETATM    4  C4  UNL     1      31.758   2.087  37.567  1.00  0.00     0.183 A 
HETATM    5  N4  UNL     1      30.902   2.311  36.555  1.00  0.00    -0.337 N 
ATOM      6  H4  UNL     1      29.906   2.150  36.707  1.00  0.00     0.168 HD
HETATM    7  C5  UNL     1      31.314   2.740  35.348  1.00  0.00     0.130 A 
HETATM    8  C8  UNL     1      32.685   2.938  35.210  1.00  0.00     0.133 A 
HETATM    9  N7  UNL     1      33.129   3.385  33.958  1.00  0.00    -0.094 NA
ENDROOT
BRANCH   1  10
HETATM   10  N2  UNL     1      34.801   2.893  36.109  1.00  0.00    -0.373 N 
ATOM     11  H2  UNL     1      35.218   2.155  35.543  1.00  0.00     0.161 HD
BRANCH  10  12
HETATM   12  C2  UNL     1      35.776   3.794  36.533  1.00  0.00     0.148 C 
BRANCH  12  13
HETATM   13  C1  UNL     1      35.523   5.219  36.020  1.00  0.00     0.249 C 
BRANCH  13  14
HETATM   14  N1  UNL     1      36.748   5.871  35.635  1.00  0.00    -0.078 N 
ATOM     15  H13 UNL     1      37.520   5.207  35.576  1.00  0.00     0.274 HD
ATOM     16  H12 UNL     1      36.721   6.168  34.660  1.00  0.00     0.274 HD
ATOM     17  H11 UNL     1      36.973   6.648  36.255  1.00  0.00     0.274 HD
ENDBRANCH  13  14
ENDBRANCH  12  13
ENDBRANCH  10  12
ENDBRANCH   1  10
BRANCH   7  18
HETATM   18  N5  UNL     1      30.435   2.973  34.263  1.00  0.00    -0.373 N 
ATOM     19  H5  UNL     1      30.702   3.661  33.558  1.00  0.00     0.161 HD
BRANCH  18  20
HETATM   20  C6  UNL     1      29.198   2.291  34.113  1.00  0.00     0.148 C 
BRANCH  20  21
HETATM   21  C7  UNL     1      29.401   0.911  33.575  1.00  0.00     0.249 C 
BRANCH  21  22
HETATM   22  N6  UNL     1      28.553  -0.055  34.262  1.00  0.00    -0.078 N 
ATOM     23  H63 UNL     1      27.702   0.381  34.618  1.00  0.00     0.274 HD
ATOM     24  H62 UNL     1      28.130  -0.714  33.608  1.00  0.00     0.274 HD
ATOM     25  H61 UNL     1      29.064  -0.537  35.002  1.00  0.00     0.274 HD
ENDBRANCH  21  22
ENDBRANCH  20  21
ENDBRANCH  18  20
ENDBRANCH   7  18
TORSDOF 8
ENDMDL
MODEL 4
REMARK VINA RESULT: -6.522660411      0.429      5.850
REMARK  8 active torsions:
REMARK  status: ('A' for Active; 'I' for Inactive)
REMARK    1  A    between atoms: N1_1  and  C1_5 
REMARK    2  A    between atoms: C1_5  and  C2_6 
REMARK    3  A    between atoms: C2_6  and  N2_7 
REMARK    4  A    between atoms: N2_7  and  C3_9 
REMARK    5  A    between atoms: C5_15  and  N5_16 
REMARK    6  A    between atoms: N5_16  and  C6_18 
REMARK    7  A    between atoms: C6_18  and  C7_19 
REMARK    8  A    between atoms: C7_19  and  N6_20 
ROOT
HETATM    1  C3  UNL     1      30.001   1.298  36.437  1.00  0.00     0.130 A 
HETATM    2  N3  UNL     1      29.518   0.138  36.978  1.00  0.00    -0.337 N 
ATOM      3  H3  UNL     1      29.431  -0.693  36.394  1.00  0.00     0.168 HD
HETATM    4  C4  UNL     1      29.156   0.084  38.276  1.00  0.00     0.183 A 
HETATM    5  N4  UNL     1      29.263   1.167  39.066  1.00  0.00    -0.337 N 
ATOM      6  H4  UNL     1      28.981   1.092  40.044  1.00  0.00     0.168 HD
HETATM    7  C5  UNL     1      29.729   2.344  38.612  1.00  0.00     0.130 A 
HETATM    8  C8  UNL     1      30.095   2.375  37.269  1.00  0.00     0.133 A 
HETATM    9  N7  UNL     1      30.582   3.595  36.782  1.00  0.00    -0.094 NA
ENDROOT
BRANCH   1  10
HETATM   10  N2  UNL     1      30.321   1.308  35.246  1.00  0.00    -0.373 N 
ATOM     11  H2  UNL     1      31.244   0.892  35.119  1.00  0.00     0.161 HD
BRANCH  10  12
HETATM   12  C2  UNL     1      29.798   1.718  34.020  1.00  0.00     0.148 C 
BRANCH  12  13
HETATM   13  C1  UNL     1      29.449   0.535  33.105  1.00  0.00     0.249 C 
BRANCH  13  14
HETATM   14  N1  UNL     1      28.561  -0.395  33.753  1.00  0.00    -0.078 N 
ATOM     15  H13 UNL     1      28.460  -1.253  33.211  1.00  0.00     0.274 HD
ATOM     16  H12 UNL     1      28.983  -0.788  34.594  1.00  0.00     0.274 HD
ATOM     17  H11 UNL     1      27.655   0.028  33.954  1.00  0.00     0.274 HD
ENDBRANCH  13  14
ENDBRANCH  12  13
ENDBRANCH  10  12
ENDBRANCH   1  10
BRANCH   7  18
HETATM   18  N5  UNL     1      29.842   3.501  39.421  1.00  0.00    -0.373 N 
ATOM     19  H5  UNL     1      30.751   3.956  39.496  1.00  0.00     0.161 HD
BRANCH  18  20
HETATM   20  C6  UNL     1      28.743   4.054  40.132  1.00  0.00     0.148 C 
BRANCH  20  21
HETATM   21  C7  UNL     1      29.118   5.343  40.791  1.00  0.00     0.249 C 
BRANCH  21  22
HETATM   22  N6  UNL     1      28.237   5.638  41.915  1.00  0.00    -0.078 N 
ATOM     23  H63 UNL     1      28.750   6.051  42.694  1.00  0.00     0.274 HD
ATOM     24  H62 UNL     1      27.613   6.417  41.707  1.00  0.00     0.274 HD
ATOM     25  H61 UNL     1      27.718   4.809  42.206  1.00  0.00     0.274 HD
ENDBRANCH  21  22
ENDBRANCH  20  21
ENDBRANCH  18  20
ENDBRANCH   7  18
TORSDOF 8
ENDMDL
MODEL 5
REMARK VINA RESULT: -6.164932902      2.751      5.006
REMARK  8 active torsions:
REMARK  status: ('A' for Active; 'I' for Inactive)
REMARK    1  A    between atoms: N1_1  and  C1_5 
REMARK    2  A    between atoms: C1_5  and  C2_6 
REMARK    3  A    between atoms: C2_6  and  N2_7 
REMARK    4  A    between atoms: N2_7  and  C3_9 
REMARK    5  A    between atoms: C5_15  and  N5_16 
REMARK    6  A    between atoms: N5_16  and  C6_18 
REMARK    7  A    between atoms: C6_18  and  C7_19 
REMARK    8  A    between atoms: C7_19  and  N6_20 
ROOT
HETATM    1  C3  UNL     1      32.546   1.943  35.580  1.00  0.00     0.130 A 
HETATM    2  N3  UNL     1      31.926   1.750  34.376  1.00  0.00    -0.337 N 
ATOM      3  H3  UNL     1      32.482   1.518  33.553  1.00  0.00     0.168 HD
HETATM    4  C4  UNL     1      30.587   1.865  34.267  1.00  0.00     0.183 A 
HETATM    5  N4  UNL     1      29.832   2.169  35.338  1.00  0.00    -0.337 N 
ATOM      6  H4  UNL     1      28.821   2.247  35.221  1.00  0.00     0.168 HD
HETATM    7  C5  UNL     1      30.364   2.373  36.557  1.00  0.00     0.130 A 
HETATM    8  C8  UNL     1      31.748   2.250  36.643  1.00  0.00     0.133 A 
HETATM    9  N7  UNL     1      32.316   2.460  37.907  1.00  0.00    -0.094 NA
ENDROOT
BRANCH   1  10
HETATM   10  N2  UNL     1      33.773   1.830  35.640  1.00  0.00    -0.373 N 
ATOM     11  H2  UNL     1      34.030   0.968  36.120  1.00  0.00     0.161 HD
BRANCH  10  12
HETATM   12  C2  UNL     1      34.913   2.529  35.246  1.00  0.00     0.148 C 
BRANCH  12  13
HETATM   13  C1  UNL     1      35.371   3.547  36.301  1.00  0.00     0.249 C 
BRANCH  13  14
HETATM   14  N1  UNL     1      35.202   3.040  37.638  1.00  0.00    -0.078 N 
ATOM     15  H13 UNL     1      34.254   2.698  37.789  1.00  0.00     0.274 HD
ATOM     16  H12 UNL     1      35.709   2.165  37.771  1.00  0.00     0.274 HD
ATOM     17  H11 UNL     1      35.464   3.733  38.339  1.00  0.00     0.274 HD
ENDBRANCH  13  14
ENDBRANCH  12  13
ENDBRANCH  10  12
ENDBRANCH   1  10
BRANCH   7  18
HETATM   18  N5  UNL     1      29.593   2.704  37.697  1.00  0.00    -0.373 N 
ATOM     19  H5  UNL     1      29.375   3.685  37.871  1.00  0.00     0.161 HD
BRANCH  18  20
HETATM   20  C6  UNL     1      29.110   1.727  38.610  1.00  0.00     0.148 C 
BRANCH  20  21
HETATM   21  C7  UNL     1      28.938   0.400  37.943  1.00  0.00     0.249 C 
BRANCH  21  22
HETATM   22  N6  UNL     1      27.647   0.308  37.273  1.00  0.00    -0.078 N 
ATOM     23  H63 UNL     1      26.965  -0.194  37.842  1.00  0.00     0.274 HD
ATOM     24  H62 UNL     1      27.181   1.214  37.233  1.00  0.00     0.274 HD
ATOM     25  H61 UNL     1      27.739  -0.108  36.346  1.00  0.00     0.274 HD
ENDBRANCH  21  22
ENDBRANCH  20  21
ENDBRANCH  18  20
ENDBRANCH   7  18
TORSDOF 8
ENDMDL
