MODEL 1
REMARK VINA RESULT: -5.508780862      0.000      0.000
REMARK  7 active torsions:
REMARK  status: ('A' for Active; 'I' for Inactive)
REMARK    1  A    between atoms: C2_2  and  N1_3 
REMARK    2  A    between atoms: C2_2  and  C3_7 
REMARK    3  A    between atoms: C3_7  and  N2_8 
REMARK    4  A    between atoms: C3_7  and  C4_12 
REMARK       I    between atoms: C4_12  and  N3_14 
REMARK    5  A    between atoms: N3_14  and  C5_16 
REMARK    6  A    between atoms: C6_19  and  N5_20 
REMARK    7  A    between atoms: N5_20  and  N6_22 
ROOT
HETATM    1  C5  UNL     1      41.225  41.253  18.728  1.00  0.00     0.169 A 
HETATM    2  N4  UNL     1      42.521  41.432  18.507  1.00  0.00    -0.168 N 
ATOM      3  H4  UNL     1      42.923  42.321  18.802  1.00  0.00     0.186 HD
HETATM    4  C6  UNL     1      43.360  40.534  17.921  1.00  0.00     0.700 A 
HETATM    5  N7  UNL     1      43.023  39.336  17.477  1.00  0.00    -0.169 N 
ATOM      6  H7  UNL     1      43.773  38.782  17.064  1.00  0.00     0.186 HD
HETATM    7  C7  UNL     1      41.811  38.761  17.506  1.00  0.00     0.160 A 
HETATM    8  N8  UNL     1      41.603  37.572  17.035  1.00  0.00    -0.379 N 
ATOM      9  H81 UNL     1      40.682  37.135  17.057  1.00  0.00     0.158 HD
ATOM     10  H82 UNL     1      42.321  36.984  16.613  1.00  0.00     0.158 HD
HETATM   11  S1  UNL     1      40.597  39.755  18.220  1.00  0.00    -0.017 SA
ENDROOT
BRANCH   1  12
HETATM   12  N3  UNL     1      40.462  42.141  19.291  1.00  0.00    -0.305 N 
HETATM   13  C4  UNL     1      40.771  42.796  20.483  1.00  0.00     0.256 C 
HETATM   14  O1  UNL     1      40.766  42.109  21.553  1.00  0.00    -0.271 OA
ATOM     15  H3  UNL     1      39.581  42.373  18.833  1.00  0.00     0.171 HD
BRANCH  13  16
HETATM   16  C3  UNL     1      41.099  44.243  20.539  1.00  0.00     0.304 C 
BRANCH  16  17
HETATM   17  C2  UNL     1      41.331  44.739  19.129  1.00  0.00     0.219 C 
HETATM   18  C1  UNL     1      40.527  45.961  18.837  1.00  0.00     0.042 C 
BRANCH  17  19
HETATM   19  N1  UNL     1      42.719  45.001  18.862  1.00  0.00    -0.073 N 
ATOM     20  H13 UNL     1      42.872  45.329  17.908  1.00  0.00     0.274 HD
ATOM     21  H12 UNL     1      43.056  45.827  19.356  1.00  0.00     0.274 HD
ATOM     22  H11 UNL     1      43.270  44.171  19.077  1.00  0.00     0.274 HD
ENDBRANCH  17  19
ENDBRANCH  16  17
BRANCH  16  23
HETATM   23  N2  UNL     1      42.244  44.405  21.380  1.00  0.00    -0.064 N 
ATOM     24  H23 UNL     1      42.706  43.511  21.545  1.00  0.00     0.275 HD
ATOM     25  H22 UNL     1      42.993  44.891  20.887  1.00  0.00     0.275 HD
ATOM     26  H21 UNL     1      42.025  44.871  22.260  1.00  0.00     0.275 HD
ENDBRANCH  16  23
ENDBRANCH  13  16
ENDBRANCH   1  12
BRANCH   4  27
HETATM   27  N5  UNL     1      44.603  40.919  17.803  1.00  0.00    -0.138 N 
ATOM     28  H5  UNL     1      45.332  40.521  18.394  1.00  0.00     0.205 HD
BRANCH  27  29
HETATM   29  N6  UNL     1      44.903  41.878  16.854  1.00  0.00    -0.331 N 
ATOM     30  H62 UNL     1      44.299  42.693  16.746  1.00  0.00     0.177 HD
ATOM     31  H61 UNL     1      45.734  41.744  16.278  1.00  0.00     0.177 HD
ENDBRANCH  27  29
ENDBRANCH   4  27
TORSDOF 7
ENDMDL
MODEL 2
REMARK VINA RESULT: -5.484250699      0.929      1.083
REMARK  7 active torsions:
REMARK  status: ('A' for Active; 'I' for Inactive)
REMARK    1  A    between atoms: C2_2  and  N1_3 
REMARK    2  A    between atoms: C2_2  and  C3_7 
REMARK    3  A    between atoms: C3_7  and  N2_8 
REMARK    4  A    between atoms: C3_7  and  C4_12 
REMARK       I    between atoms: C4_12  and  N3_14 
REMARK    5  A    between atoms: N3_14  and  C5_16 
REMARK    6  A    between atoms: C6_19  and  N5_20 
REMARK    7  A    between atoms: N5_20  and  N6_22 
ROOT
HETATM    1  C5  UNL     1      41.165  40.997  18.646  1.00  0.00     0.169 A 
HETATM    2  N4  UNL     1      42.472  41.170  18.505  1.00  0.00    -0.168 N 
ATOM      3  H4  UNL     1      42.869  42.032  18.879  1.00  0.00     0.186 HD
HETATM    4  C6  UNL     1      43.331  40.300  17.907  1.00  0.00     0.700 A 
HETATM    5  N7  UNL     1      43.004  39.138  17.368  1.00  0.00    -0.169 N 
ATOM      6  H7  UNL     1      43.769  38.601  16.959  1.00  0.00     0.186 HD
HETATM    7  C7  UNL     1      41.786  38.581  17.295  1.00  0.00     0.160 A 
HETATM    8  N8  UNL     1      41.590  37.428  16.737  1.00  0.00    -0.379 N 
ATOM      9  H81 UNL     1      40.664  37.005  16.682  1.00  0.00     0.158 HD
ATOM     10  H82 UNL     1      42.322  36.858  16.316  1.00  0.00     0.158 HD
HETATM   11  S1  UNL     1      40.547  39.544  18.008  1.00  0.00    -0.017 SA
ENDROOT
BRANCH   1  12
HETATM   12  N3  UNL     1      40.383  41.857  19.226  1.00  0.00    -0.305 N 
HETATM   13  C4  UNL     1      40.789  42.725  20.239  1.00  0.00     0.256 C 
HETATM   14  O1  UNL     1      41.075  42.219  21.370  1.00  0.00    -0.271 OA
ATOM     15  H3  UNL     1      39.411  41.900  18.920  1.00  0.00     0.171 HD
BRANCH  13  16
HETATM   16  C3  UNL     1      40.894  44.193  20.041  1.00  0.00     0.304 C 
BRANCH  16  17
HETATM   17  C2  UNL     1      42.352  44.586  20.119  1.00  0.00     0.219 C 
HETATM   18  C1  UNL     1      42.591  45.932  19.520  1.00  0.00     0.042 C 
BRANCH  17  19
HETATM   19  N1  UNL     1      42.855  44.563  21.465  1.00  0.00    -0.073 N 
ATOM     20  H13 UNL     1      42.934  43.614  21.831  1.00  0.00     0.274 HD
ATOM     21  H12 UNL     1      43.841  44.821  21.512  1.00  0.00     0.274 HD
ATOM     22  H11 UNL     1      42.274  45.156  22.057  1.00  0.00     0.274 HD
ENDBRANCH  17  19
ENDBRANCH  16  17
BRANCH  16  23
HETATM   23  N2  UNL     1      40.093  44.833  21.037  1.00  0.00    -0.064 N 
ATOM     24  H23 UNL     1      40.668  45.165  21.812  1.00  0.00     0.275 HD
ATOM     25  H22 UNL     1      39.736  45.727  20.700  1.00  0.00     0.275 HD
ATOM     26  H21 UNL     1      39.334  44.241  21.374  1.00  0.00     0.275 HD
ENDBRANCH  16  23
ENDBRANCH  13  16
ENDBRANCH   1  12
BRANCH   4  27
HETATM   27  N5  UNL     1      44.583  40.673  17.879  1.00  0.00    -0.138 N 
ATOM     28  H5  UNL     1      45.288  40.179  18.425  1.00  0.00     0.205 HD
BRANCH  27  29
HETATM   29  N6  UNL     1      44.925  41.754  17.089  1.00  0.00    -0.331 N 
ATOM     30  H62 UNL     1      44.241  42.151  16.445  1.00  0.00     0.177 HD
ATOM     31  H61 UNL     1      45.869  42.133  17.173  1.00  0.00     0.177 HD
ENDBRANCH  27  29
ENDBRANCH   4  27
TORSDOF 7
ENDMDL
MODEL 3
REMARK VINA RESULT: -5.450782859      1.095      2.399
REMARK  7 active torsions:
REMARK  status: ('A' for Active; 'I' for Inactive)
REMARK    1  A    between atoms: C2_2  and  N1_3 
REMARK    2  A    between atoms: C2_2  and  C3_7 
REMARK    3  A    between atoms: C3_7  and  N2_8 
REMARK    4  A    between atoms: C3_7  and  C4_12 
REMARK       I    between atoms: C4_12  and  N3_14 
REMARK    5  A    between atoms: N3_14  and  C5_16 
REMARK    6  A    between atoms: C6_19  and  N5_20 
REMARK    7  A    between atoms: N5_20  and  N6_22 
ROOT
HETATM    1  C5  UNL     1      41.345  41.561  18.911  1.00  0.00     0.169 A 
HETATM    2  N4  UNL     1      40.891  40.386  18.497  1.00  0.00    -0.168 N 
ATOM      3  H4  UNL     1      39.891  40.215  18.594  1.00  0.00     0.186 HD
HETATM    4  C6  UNL     1      41.642  39.388  17.955  1.00  0.00     0.700 A 
HETATM    5  N7  UNL     1      42.948  39.427  17.751  1.00  0.00    -0.169 N 
ATOM      6  H7  UNL     1      43.362  38.594  17.333  1.00  0.00     0.186 HD
HETATM    7  C7  UNL     1      43.792  40.431  18.028  1.00  0.00     0.160 A 
HETATM    8  N8  UNL     1      45.062  40.350  17.780  1.00  0.00    -0.379 N 
ATOM      9  H81 UNL     1      45.704  41.114  17.991  1.00  0.00     0.158 HD
ATOM     10  H82 UNL     1      45.519  39.539  17.365  1.00  0.00     0.158 HD
HETATM   11  S1  UNL     1      43.020  41.803  18.730  1.00  0.00    -0.017 SA
ENDROOT
BRANCH   1  12
HETATM   12  N3  UNL     1      40.589  42.485  19.424  1.00  0.00    -0.305 N 
HETATM   13  C4  UNL     1      40.864  43.148  20.619  1.00  0.00     0.256 C 
HETATM   14  O1  UNL     1      40.783  42.479  21.697  1.00  0.00    -0.271 OA
ATOM     15  H3  UNL     1      39.740  42.742  18.919  1.00  0.00     0.171 HD
BRANCH  13  16
HETATM   16  C3  UNL     1      41.243  44.583  20.670  1.00  0.00     0.304 C 
BRANCH  16  17
HETATM   17  C2  UNL     1      41.388  45.093  19.254  1.00  0.00     0.219 C 
HETATM   18  C1  UNL     1      40.347  46.109  18.926  1.00  0.00     0.042 C 
BRANCH  17  19
HETATM   19  N1  UNL     1      42.692  45.642  18.999  1.00  0.00    -0.073 N 
ATOM     20  H13 UNL     1      42.806  46.569  19.409  1.00  0.00     0.274 HD
ATOM     21  H12 UNL     1      43.422  45.159  19.524  1.00  0.00     0.274 HD
ATOM     22  H11 UNL     1      42.873  45.639  17.996  1.00  0.00     0.274 HD
ENDBRANCH  17  19
ENDBRANCH  16  17
BRANCH  16  23
HETATM   23  N2  UNL     1      42.451  44.696  21.427  1.00  0.00    -0.064 N 
ATOM     24  H23 UNL     1      43.176  45.171  20.889  1.00  0.00     0.275 HD
ATOM     25  H22 UNL     1      42.343  45.365  22.189  1.00  0.00     0.275 HD
ATOM     26  H21 UNL     1      42.785  43.797  21.775  1.00  0.00     0.275 HD
ENDBRANCH  16  23
ENDBRANCH  13  16
ENDBRANCH   1  12
BRANCH   4  27
HETATM   27  N5  UNL     1      40.988  38.310  17.616  1.00  0.00    -0.138 N 
ATOM     28  H5  UNL     1      40.058  38.123  17.990  1.00  0.00     0.205 HD
BRANCH  27  29
HETATM   29  N6  UNL     1      41.588  37.430  16.735  1.00  0.00    -0.331 N 
ATOM     30  H62 UNL     1      41.186  37.283  15.810  1.00  0.00     0.177 HD
ATOM     31  H61 UNL     1      42.431  36.944  17.039  1.00  0.00     0.177 HD
ENDBRANCH  27  29
ENDBRANCH   4  27
TORSDOF 7
ENDMDL
MODEL 4
REMARK VINA RESULT: -5.180663486      6.329      9.706
REMARK  7 active torsions:
REMARK  status: ('A' for Active; 'I' for Inactive)
REMARK    1  A    between atoms: C2_2  and  N1_3 
REMARK    2  A    between atoms: C2_2  and  C3_7 
REMARK    3  A    between atoms: C3_7  and  N2_8 
REMARK    4  A    between atoms: C3_7  and  C4_12 
REMARK       I    between atoms: C4_12  and  N3_14 
REMARK    5  A    between atoms: N3_14  and  C5_16 
REMARK    6  A    between atoms: C6_19  and  N5_20 
REMARK    7  A    between atoms: N5_20  and  N6_22 
ROOT
HETATM    1  C5  UNL     1      40.968  37.437  12.561  1.00  0.00     0.169 A 
HETATM    2  N4  UNL     1      40.923  37.622  13.873  1.00  0.00    -0.168 N 
ATOM      3  H4  UNL     1      40.605  36.837  14.442  1.00  0.00     0.186 HD
HETATM    4  C6  UNL     1      41.263  38.766  14.529  1.00  0.00     0.700 A 
HETATM    5  N7  UNL     1      41.696  39.880  13.965  1.00  0.00    -0.169 N 
ATOM      6  H7  UNL     1      41.910  40.650  14.598  1.00  0.00     0.186 HD
HETATM    7  C7  UNL     1      41.886  40.119  12.659  1.00  0.00     0.160 A 
HETATM    8  N8  UNL     1      42.317  41.262  12.224  1.00  0.00    -0.379 N 
ATOM      9  H81 UNL     1      42.462  41.443  11.232  1.00  0.00     0.158 HD
ATOM     10  H82 UNL     1      42.543  42.058  12.820  1.00  0.00     0.158 HD
HETATM   11  S1  UNL     1      41.505  38.773  11.652  1.00  0.00    -0.017 SA
ENDROOT
BRANCH   1  12
HETATM   12  N3  UNL     1      40.632  36.325  11.979  1.00  0.00    -0.305 N 
HETATM   13  C4  UNL     1      40.686  35.074  12.591  1.00  0.00     0.256 C 
HETATM   14  O1  UNL     1      41.833  34.593  12.852  1.00  0.00    -0.271 OA
ATOM     15  H3  UNL     1      40.308  36.371  11.012  1.00  0.00     0.171 HD
BRANCH  13  16
HETATM   16  C3  UNL     1      39.467  34.301  12.940  1.00  0.00     0.304 C 
BRANCH  16  17
HETATM   17  C2  UNL     1      39.831  32.835  13.018  1.00  0.00     0.219 C 
HETATM   18  C1  UNL     1      39.389  32.226  14.306  1.00  0.00     0.042 C 
BRANCH  17  19
HETATM   19  N1  UNL     1      39.295  32.078  11.920  1.00  0.00    -0.073 N 
ATOM     20  H13 UNL     1      38.302  32.259  11.776  1.00  0.00     0.274 HD
ATOM     21  H12 UNL     1      39.638  32.412  11.019  1.00  0.00     0.274 HD
ATOM     22  H11 UNL     1      39.489  31.087  12.062  1.00  0.00     0.274 HD
ENDBRANCH  17  19
ENDBRANCH  16  17
BRANCH  16  23
HETATM   23  N2  UNL     1      38.471  34.573  11.951  1.00  0.00    -0.064 N 
ATOM     24  H23 UNL     1      38.708  34.131  11.062  1.00  0.00     0.275 HD
ATOM     25  H22 UNL     1      37.605  34.077  12.158  1.00  0.00     0.275 HD
ATOM     26  H21 UNL     1      38.300  35.571  11.827  1.00  0.00     0.275 HD
ENDBRANCH  16  23
ENDBRANCH  13  16
ENDBRANCH   1  12
BRANCH   4  27
HETATM   27  N5  UNL     1      41.142  38.728  15.829  1.00  0.00    -0.138 N 
ATOM     28  H5  UNL     1      40.650  39.467  16.330  1.00  0.00     0.205 HD
BRANCH  27  29
HETATM   29  N6  UNL     1      41.699  37.660  16.507  1.00  0.00    -0.331 N 
ATOM     30  H62 UNL     1      42.664  37.713  16.835  1.00  0.00     0.177 HD
ATOM     31  H61 UNL     1      41.123  36.834  16.663  1.00  0.00     0.177 HD
ENDBRANCH  27  29
ENDBRANCH   4  27
TORSDOF 7
ENDMDL
MODEL 5
REMARK VINA RESULT: -5.029018511      3.187      4.774
REMARK  7 active torsions:
REMARK  status: ('A' for Active; 'I' for Inactive)
REMARK    1  A    between atoms: C2_2  and  N1_3 
REMARK    2  A    between atoms: C2_2  and  C3_7 
REMARK    3  A    between atoms: C3_7  and  N2_8 
REMARK    4  A    between atoms: C3_7  and  C4_12 
REMARK       I    between atoms: C4_12  and  N3_14 
REMARK    5  A    between atoms: N3_14  and  C5_16 
REMARK    6  A    between atoms: C6_19  and  N5_20 
REMARK    7  A    between atoms: N5_20  and  N6_22 
ROOT
HETATM    1  C5  UNL     1      43.459  41.753  18.075  1.00  0.00     0.169 A 
HETATM    2  N4  UNL     1      43.438  40.518  17.593  1.00  0.00    -0.168 N 
ATOM      3  H4  UNL     1      44.315  40.148  17.226  1.00  0.00     0.186 HD
HETATM    4  C6  UNL     1      42.352  39.699  17.545  1.00  0.00     0.700 A 
HETATM    5  N7  UNL     1      41.138  40.000  17.973  1.00  0.00    -0.169 N 
ATOM      6  H7  UNL     1      40.430  39.273  17.866  1.00  0.00     0.186 HD
HETATM    7  C7  UNL     1      40.725  41.148  18.530  1.00  0.00     0.160 A 
HETATM    8  N8  UNL     1      39.499  41.327  18.911  1.00  0.00    -0.379 N 
ATOM      9  H81 UNL     1      39.186  42.199  19.335  1.00  0.00     0.158 HD
ATOM     10  H82 UNL     1      38.760  40.629  18.824  1.00  0.00     0.158 HD
HETATM   11  S1  UNL     1      41.974  42.327  18.678  1.00  0.00    -0.017 SA
ENDROOT
BRANCH   1  12
HETATM   12  N3  UNL     1      44.523  42.499  18.100  1.00  0.00    -0.305 N 
HETATM   13  C4  UNL     1      45.443  42.584  17.055  1.00  0.00     0.256 C 
HETATM   14  O1  UNL     1      46.161  41.563  16.817  1.00  0.00    -0.271 OA
ATOM     15  H3  UNL     1      44.695  43.057  18.936  1.00  0.00     0.171 HD
BRANCH  13  16
HETATM   16  C3  UNL     1      45.605  43.807  16.230  1.00  0.00     0.304 C 
BRANCH  16  17
HETATM   17  C2  UNL     1      44.557  43.797  15.140  1.00  0.00     0.219 C 
HETATM   18  C1  UNL     1      44.788  44.883  14.144  1.00  0.00     0.042 C 
BRANCH  17  19
HETATM   19  N1  UNL     1      44.483  42.532  14.462  1.00  0.00    -0.073 N 
ATOM     20  H13 UNL     1      43.826  41.893  14.910  1.00  0.00     0.274 HD
ATOM     21  H12 UNL     1      44.021  42.607  13.556  1.00  0.00     0.274 HD
ATOM     22  H11 UNL     1      45.418  42.131  14.386  1.00  0.00     0.274 HD
ENDBRANCH  17  19
ENDBRANCH  16  17
BRANCH  16  23
HETATM   23  N2  UNL     1      46.939  43.821  15.716  1.00  0.00    -0.064 N 
ATOM     24  H23 UNL     1      46.985  43.362  14.805  1.00  0.00     0.275 HD
ATOM     25  H22 UNL     1      47.216  44.763  15.440  1.00  0.00     0.275 HD
ATOM     26  H21 UNL     1      47.616  43.417  16.362  1.00  0.00     0.275 HD
ENDBRANCH  16  23
ENDBRANCH  13  16
ENDBRANCH   1  12
BRANCH   4  27
HETATM   27  N5  UNL     1      42.558  38.518  17.027  1.00  0.00    -0.138 N 
ATOM     28  H5  UNL     1      43.447  38.289  16.583  1.00  0.00     0.205 HD
BRANCH  27  29
HETATM   29  N6  UNL     1      41.539  37.586  17.098  1.00  0.00    -0.331 N 
ATOM     30  H62 UNL     1      40.618  37.864  17.435  1.00  0.00     0.177 HD
ATOM     31  H61 UNL     1      41.739  36.630  16.806  1.00  0.00     0.177 HD
ENDBRANCH  27  29
ENDBRANCH   4  27
TORSDOF 7
ENDMDL
