MODEL 1
REMARK VINA RESULT: -6.341317026      0.000      0.000
REMARK  5 active torsions:
REMARK  status: ('A' for Active; 'I' for Inactive)
REMARK       I    between atoms: N1_1  and  C1_4 
REMARK       I    between atoms: C1_4  and  N3_6 
REMARK    1  A    between atoms: N3_6  and  N4_8 
REMARK    2  A    between atoms: N4_8  and  C2_10 
REMARK    3  A    between atoms: C2_10  and  C3_11 
REMARK    4  A    between atoms: C4_14  and  C5_15 
REMARK       I    between atoms: C5_15  and  N6_17 
REMARK    5  A    between atoms: N6_17  and  N7_19 
REMARK       I    between atoms: N7_19  and  C6_21 
ROOT
HETATM    1  C3  UNL     1      41.448  39.411  14.904  1.00  0.00     0.189 A 
HETATM    2  N5  UNL     1      41.784  38.632  15.979  1.00  0.00    -0.314 N 
ATOM      3  H5  UNL     1      41.611  37.629  16.057  1.00  0.00     0.170 HD
HETATM    4  C4  UNL     1      42.376  39.394  16.912  1.00  0.00     0.198 A 
HETATM    5  N9  UNL     1      42.390  40.649  16.380  1.00  0.00    -0.238 N 
ATOM      6  H9  UNL     1      42.771  41.481  16.831  1.00  0.00     0.197 HD
HETATM    7  O3  UNL     1      41.833  40.614  15.194  1.00  0.00    -0.216 OA
ENDROOT
BRANCH   1   8
HETATM    8  C2  UNL     1      40.778  38.909  13.686  1.00  0.00     0.165 C 
BRANCH   8   9
HETATM    9  N4  UNL     1      39.734  38.170  13.731  1.00  0.00    -0.305 N 
ATOM     10  H4  UNL     1      38.881  38.502  14.183  1.00  0.00     0.186 HD
BRANCH   9  11
HETATM   11  N3  UNL     1      39.782  36.903  13.151  1.00  0.00    -0.274 N 
HETATM   12  C1  UNL     1      40.824  35.990  13.373  1.00  0.00     0.200 C 
HETATM   13  N1  UNL     1      41.061  35.573  14.556  1.00  0.00    -0.372 N 
HETATM   14  N2  UNL     1      41.609  35.532  12.293  1.00  0.00    -0.062 NA
ATOM     15  H12 UNL     1      41.818  34.909  14.717  1.00  0.00     0.158 HD
ATOM     16  H11 UNL     1      40.493  35.904  15.336  1.00  0.00     0.158 HD
ATOM     17  H3  UNL     1      39.019  36.625  12.534  1.00  0.00     0.189 HD
ENDBRANCH   9  11
ENDBRANCH   8   9
ENDBRANCH   1   8
BRANCH   4  18
HETATM   18  C5  UNL     1      42.913  39.035  18.233  1.00  0.00     0.305 C 
HETATM   19  O1  UNL     1      42.281  38.226  18.943  1.00  0.00    -0.263 OA
HETATM   20  N6  UNL     1      44.115  39.591  18.687  1.00  0.00    -0.260 N 
ATOM     21  H6  UNL     1      44.624  40.252  18.100  1.00  0.00     0.190 HD
BRANCH  20  22
HETATM   22  N7  UNL     1      44.621  39.239  19.954  1.00  0.00    -0.251 N 
HETATM   23  C6  UNL     1      44.723  40.282  20.921  1.00  0.00     0.347 C 
HETATM   24  N8  UNL     1      45.199  40.071  22.199  1.00  0.00    -0.038 NA
HETATM   25  O2  UNL     1      44.343  41.443  20.534  1.00  0.00    -0.249 OA
ATOM     26  H7  UNL     1      44.901  38.282  20.169  1.00  0.00     0.191 HD
ENDBRANCH  20  22
ENDBRANCH   4  18
TORSDOF 5
ENDMDL
MODEL 2
REMARK VINA RESULT: -6.106222602      1.476      1.765
REMARK  5 active torsions:
REMARK  status: ('A' for Active; 'I' for Inactive)
REMARK       I    between atoms: N1_1  and  C1_4 
REMARK       I    between atoms: C1_4  and  N3_6 
REMARK    1  A    between atoms: N3_6  and  N4_8 
REMARK    2  A    between atoms: N4_8  and  C2_10 
REMARK    3  A    between atoms: C2_10  and  C3_11 
REMARK    4  A    between atoms: C4_14  and  C5_15 
REMARK       I    between atoms: C5_15  and  N6_17 
REMARK    5  A    between atoms: N6_17  and  N7_19 
REMARK       I    between atoms: N7_19  and  C6_21 
ROOT
HETATM    1  C3  UNL     1      40.755  38.747  13.538  1.00  0.00     0.189 A 
HETATM    2  N5  UNL     1      40.852  38.347  14.844  1.00  0.00    -0.314 N 
ATOM      3  H5  UNL     1      40.464  37.484  15.227  1.00  0.00     0.170 HD
HETATM    4  C4  UNL     1      41.538  39.267  15.541  1.00  0.00     0.198 A 
HETATM    5  N9  UNL     1      41.851  40.232  14.630  1.00  0.00    -0.238 N 
ATOM      6  H9  UNL     1      42.374  41.085  14.825  1.00  0.00     0.197 HD
HETATM    7  O3  UNL     1      41.371  39.885  13.461  1.00  0.00    -0.216 OA
ENDROOT
BRANCH   1   8
HETATM    8  C2  UNL     1      40.066  37.980  12.479  1.00  0.00     0.165 C 
BRANCH   8   9
HETATM    9  N4  UNL     1      39.192  37.082  12.739  1.00  0.00    -0.305 N 
ATOM     10  H4  UNL     1      38.288  37.336  13.138  1.00  0.00     0.186 HD
BRANCH   9  11
HETATM   11  N3  UNL     1      39.498  35.748  12.469  1.00  0.00    -0.274 N 
HETATM   12  C1  UNL     1      40.451  35.012  13.189  1.00  0.00     0.200 C 
HETATM   13  N1  UNL     1      40.297  34.832  14.444  1.00  0.00    -0.372 N 
HETATM   14  N2  UNL     1      41.576  34.471  12.532  1.00  0.00    -0.062 NA
ATOM     15  H12 UNL     1      40.989  34.296  14.967  1.00  0.00     0.158 HD
ATOM     16  H11 UNL     1      39.483  35.223  14.918  1.00  0.00     0.158 HD
ATOM     17  H3  UNL     1      39.004  35.284  11.707  1.00  0.00     0.189 HD
ENDBRANCH   9  11
ENDBRANCH   8   9
ENDBRANCH   1   8
BRANCH   4  18
HETATM   18  C5  UNL     1      41.906  39.304  16.964  1.00  0.00     0.305 C 
HETATM   19  O1  UNL     1      41.349  38.513  17.753  1.00  0.00    -0.263 OA
HETATM   20  N6  UNL     1      42.867  40.210  17.427  1.00  0.00    -0.260 N 
ATOM     21  H6  UNL     1      43.317  40.852  16.775  1.00  0.00     0.190 HD
BRANCH  20  22
HETATM   22  N7  UNL     1      43.214  40.235  18.793  1.00  0.00    -0.251 N 
HETATM   23  C6  UNL     1      44.508  39.746  19.138  1.00  0.00     0.347 C 
HETATM   24  N8  UNL     1      44.973  39.718  20.438  1.00  0.00    -0.038 NA
HETATM   25  O2  UNL     1      45.227  39.329  18.164  1.00  0.00    -0.249 OA
ATOM     26  H7  UNL     1      42.569  40.586  19.500  1.00  0.00     0.191 HD
ENDBRANCH  20  22
ENDBRANCH   4  18
TORSDOF 5
ENDMDL
MODEL 3
REMARK VINA RESULT: -6.046332757      2.079      2.771
REMARK  5 active torsions:
REMARK  status: ('A' for Active; 'I' for Inactive)
REMARK       I    between atoms: N1_1  and  C1_4 
REMARK       I    between atoms: C1_4  and  N3_6 
REMARK    1  A    between atoms: N3_6  and  N4_8 
REMARK    2  A    between atoms: N4_8  and  C2_10 
REMARK    3  A    between atoms: C2_10  and  C3_11 
REMARK    4  A    between atoms: C4_14  and  C5_15 
REMARK       I    between atoms: C5_15  and  N6_17 
REMARK    5  A    between atoms: N6_17  and  N7_19 
REMARK       I    between atoms: N7_19  and  C6_21 
ROOT
HETATM    1  C3  UNL     1      40.906  38.829  13.743  1.00  0.00     0.189 A 
HETATM    2  N5  UNL     1      40.987  38.451  15.057  1.00  0.00    -0.314 N 
ATOM      3  H5  UNL     1      40.598  37.593  15.449  1.00  0.00     0.170 HD
HETATM    4  C4  UNL     1      41.658  39.387  15.747  1.00  0.00     0.198 A 
HETATM    5  N9  UNL     1      41.979  40.338  14.824  1.00  0.00    -0.238 N 
ATOM      6  H9  UNL     1      42.495  41.197  15.012  1.00  0.00     0.197 HD
HETATM    7  O3  UNL     1      41.517  39.968  13.655  1.00  0.00    -0.216 OA
ENDROOT
BRANCH   1   8
HETATM    8  C2  UNL     1      40.236  38.040  12.688  1.00  0.00     0.165 C 
BRANCH   8   9
HETATM    9  N4  UNL     1      39.199  37.326  12.918  1.00  0.00    -0.305 N 
ATOM     10  H4  UNL     1      39.215  36.318  12.758  1.00  0.00     0.186 HD
BRANCH   9  11
HETATM   11  N3  UNL     1      38.045  37.950  13.390  1.00  0.00    -0.274 N 
HETATM   12  C1  UNL     1      36.864  38.063  12.641  1.00  0.00     0.200 C 
HETATM   13  N1  UNL     1      36.260  37.010  12.247  1.00  0.00    -0.372 N 
HETATM   14  N2  UNL     1      36.344  39.336  12.322  1.00  0.00    -0.062 NA
ATOM     15  H12 UNL     1      35.401  37.092  11.702  1.00  0.00     0.158 HD
ATOM     16  H11 UNL     1      36.636  36.090  12.478  1.00  0.00     0.158 HD
ATOM     17  H3  UNL     1      38.060  38.345  14.330  1.00  0.00     0.189 HD
ENDBRANCH   9  11
ENDBRANCH   8   9
ENDBRANCH   1   8
BRANCH   4  18
HETATM   18  C5  UNL     1      42.006  39.449  17.174  1.00  0.00     0.305 C 
HETATM   19  O1  UNL     1      41.366  38.747  17.984  1.00  0.00    -0.263 OA
HETATM   20  N6  UNL     1      43.039  40.282  17.618  1.00  0.00    -0.260 N 
ATOM     21  H6  UNL     1      43.557  40.853  16.950  1.00  0.00     0.190 HD
BRANCH  20  22
HETATM   22  N7  UNL     1      43.366  40.333  18.988  1.00  0.00    -0.251 N 
HETATM   23  C6  UNL     1      44.581  39.699  19.386  1.00  0.00     0.347 C 
HETATM   24  N8  UNL     1      45.018  39.680  20.695  1.00  0.00    -0.038 NA
HETATM   25  O2  UNL     1      45.254  39.143  18.449  1.00  0.00    -0.249 OA
ATOM     26  H7  UNL     1      42.762  40.801  19.664  1.00  0.00     0.191 HD
ENDBRANCH  20  22
ENDBRANCH   4  18
TORSDOF 5
ENDMDL
MODEL 4
REMARK VINA RESULT: -6.004412263      2.725      7.227
REMARK  5 active torsions:
REMARK  status: ('A' for Active; 'I' for Inactive)
REMARK       I    between atoms: N1_1  and  C1_4 
REMARK       I    between atoms: C1_4  and  N3_6 
REMARK    1  A    between atoms: N3_6  and  N4_8 
REMARK    2  A    between atoms: N4_8  and  C2_10 
REMARK    3  A    between atoms: C2_10  and  C3_11 
REMARK    4  A    between atoms: C4_14  and  C5_15 
REMARK       I    between atoms: C5_15  and  N6_17 
REMARK    5  A    between atoms: N6_17  and  N7_19 
REMARK       I    between atoms: N7_19  and  C6_21 
ROOT
HETATM    1  C3  UNL     1      42.756  39.689  18.037  1.00  0.00     0.189 A 
HETATM    2  N5  UNL     1      42.444  39.787  16.707  1.00  0.00    -0.314 N 
ATOM      3  H5  UNL     1      42.679  40.574  16.103  1.00  0.00     0.170 HD
HETATM    4  C4  UNL     1      41.781  38.684  16.324  1.00  0.00     0.198 A 
HETATM    5  N9  UNL     1      41.697  37.919  17.450  1.00  0.00    -0.238 N 
ATOM      6  H9  UNL     1      41.250  37.004  17.514  1.00  0.00     0.197 HD
HETATM    7  O3  UNL     1      42.286  38.549  18.436  1.00  0.00    -0.216 OA
ENDROOT
BRANCH   1   8
HETATM    8  C2  UNL     1      43.487  40.722  18.801  1.00  0.00     0.165 C 
BRANCH   8   9
HETATM    9  N4  UNL     1      42.894  41.704  19.369  1.00  0.00    -0.305 N 
ATOM     10  H4  UNL     1      43.246  42.085  20.248  1.00  0.00     0.186 HD
BRANCH   9  11
HETATM   11  N3  UNL     1      41.759  42.243  18.766  1.00  0.00    -0.274 N 
HETATM   12  C1  UNL     1      40.471  42.143  19.313  1.00  0.00     0.200 C 
HETATM   13  N1  UNL     1      40.228  42.645  20.461  1.00  0.00    -0.372 N 
HETATM   14  N2  UNL     1      39.444  41.489  18.598  1.00  0.00    -0.062 NA
ATOM     15  H12 UNL     1      39.292  42.572  20.858  1.00  0.00     0.158 HD
ATOM     16  H11 UNL     1      40.970  43.117  20.978  1.00  0.00     0.158 HD
ATOM     17  H3  UNL     1      41.870  42.737  17.881  1.00  0.00     0.189 HD
ENDBRANCH   9  11
ENDBRANCH   8   9
ENDBRANCH   1   8
BRANCH   4  18
HETATM   18  C5  UNL     1      41.233  38.310  15.012  1.00  0.00     0.305 C 
HETATM   19  O1  UNL     1      40.765  39.203  14.276  1.00  0.00    -0.263 OA
HETATM   20  N6  UNL     1      41.239  36.975  14.593  1.00  0.00    -0.260 N 
ATOM     21  H6  UNL     1      41.623  36.252  15.200  1.00  0.00     0.190 HD
BRANCH  20  22
HETATM   22  N7  UNL     1      40.713  36.628  13.332  1.00  0.00    -0.251 N 
HETATM   23  C6  UNL     1      40.217  35.300  13.183  1.00  0.00     0.347 C 
HETATM   24  N8  UNL     1      39.673  34.835  12.002  1.00  0.00    -0.038 NA
HETATM   25  O2  UNL     1      40.302  34.551  14.218  1.00  0.00    -0.249 OA
ATOM     26  H7  UNL     1      40.689  37.297  12.562  1.00  0.00     0.191 HD
ENDBRANCH  20  22
ENDBRANCH   4  18
TORSDOF 5
ENDMDL
MODEL 5
REMARK VINA RESULT: -5.994546250      3.475      4.682
REMARK  5 active torsions:
REMARK  status: ('A' for Active; 'I' for Inactive)
REMARK       I    between atoms: N1_1  and  C1_4 
REMARK       I    between atoms: C1_4  and  N3_6 
REMARK    1  A    between atoms: N3_6  and  N4_8 
REMARK    2  A    between atoms: N4_8  and  C2_10 
REMARK    3  A    between atoms: C2_10  and  C3_11 
REMARK    4  A    between atoms: C4_14  and  C5_15 
REMARK       I    between atoms: C5_15  and  N6_17 
REMARK    5  A    between atoms: N6_17  and  N7_19 
REMARK       I    between atoms: N7_19  and  C6_21 
ROOT
HETATM    1  C3  UNL     1      43.111  41.990  18.223  1.00  0.00     0.189 A 
HETATM    2  N5  UNL     1      44.168  41.487  18.933  1.00  0.00    -0.314 N 
ATOM      3  H5  UNL     1      44.920  40.916  18.547  1.00  0.00     0.170 HD
HETATM    4  C4  UNL     1      44.059  41.864  20.217  1.00  0.00     0.198 A 
HETATM    5  N9  UNL     1      42.914  42.603  20.268  1.00  0.00    -0.238 N 
ATOM      6  H9  UNL     1      42.530  43.045  21.103  1.00  0.00     0.197 HD
HETATM    7  O3  UNL     1      42.388  42.652  19.069  1.00  0.00    -0.216 OA
ENDROOT
BRANCH   1   8
HETATM    8  C2  UNL     1      42.902  41.777  16.775  1.00  0.00     0.165 C 
BRANCH   8   9
HETATM    9  N4  UNL     1      42.195  40.813  16.317  1.00  0.00    -0.305 N 
ATOM     10  H4  UNL     1      41.428  40.993  15.669  1.00  0.00     0.186 HD
BRANCH   9  11
HETATM   11  N3  UNL     1      42.492  39.512  16.721  1.00  0.00    -0.274 N 
HETATM   12  C1  UNL     1      41.901  38.893  17.833  1.00  0.00     0.200 C 
HETATM   13  N1  UNL     1      40.636  38.728  17.870  1.00  0.00    -0.372 N 
HETATM   14  N2  UNL     1      42.701  38.454  18.911  1.00  0.00    -0.062 NA
ATOM     15  H12 UNL     1      40.206  38.278  18.678  1.00  0.00     0.158 HD
ATOM     16  H11 UNL     1      40.058  39.045  17.091  1.00  0.00     0.158 HD
ATOM     17  H3  UNL     1      43.175  38.982  16.180  1.00  0.00     0.189 HD
ENDBRANCH   9  11
ENDBRANCH   8   9
ENDBRANCH   1   8
BRANCH   4  18
HETATM   18  C5  UNL     1      44.930  41.583  21.368  1.00  0.00     0.305 C 
HETATM   19  O1  UNL     1      45.579  42.520  21.878  1.00  0.00    -0.263 OA
HETATM   20  N6  UNL     1      45.029  40.286  21.886  1.00  0.00    -0.260 N 
ATOM     21  H6  UNL     1      44.495  39.527  21.463  1.00  0.00     0.190 HD
BRANCH  20  22
HETATM   22  N7  UNL     1      45.865  40.029  22.990  1.00  0.00    -0.251 N 
HETATM   23  C6  UNL     1      45.237  39.937  24.267  1.00  0.00     0.347 C 
HETATM   24  N8  UNL     1      45.941  39.685  25.428  1.00  0.00    -0.038 NA
HETATM   25  O2  UNL     1      43.967  40.102  24.279  1.00  0.00    -0.249 OA
ATOM     26  H7  UNL     1      46.873  39.913  22.881  1.00  0.00     0.191 HD
ENDBRANCH  20  22
ENDBRANCH   4  18
TORSDOF 5
ENDMDL
