MODEL 1
REMARK VINA RESULT: -5.842992276      0.000      0.000
REMARK  6 active torsions:
REMARK  status: ('A' for Active; 'I' for Inactive)
REMARK    1  A    between atoms: C2_2  and  N1_3 
REMARK    2  A    between atoms: C2_2  and  C3_7 
REMARK    3  A    between atoms: C3_7  and  N2_8 
REMARK    4  A    between atoms: N2_8  and  C4_10 
REMARK    5  A    between atoms: C7_19  and  N6_20 
REMARK    6  A    between atoms: C8_23  and  C9_24 
ROOT
HETATM    1  C4  UNL     1      43.137  41.605  17.584  1.00  0.00     0.137 A 
HETATM    2  N3  UNL     1      43.653  41.800  16.367  1.00  0.00    -0.337 N 
ATOM      3  H3  UNL     1      44.226  41.054  15.971  1.00  0.00     0.168 HD
HETATM    4  C5  UNL     1      43.472  42.913  15.620  1.00  0.00     0.183 A 
HETATM    5  N4  UNL     1      42.726  43.914  16.102  1.00  0.00    -0.337 N 
ATOM      6  H4  UNL     1      42.576  44.762  15.555  1.00  0.00     0.168 HD
HETATM    7  C6  UNL     1      42.178  43.779  17.323  1.00  0.00     0.139 A 
HETATM    8  N5  UNL     1      41.422  44.824  17.783  1.00  0.00    -0.325 N 
ATOM      9  H5  UNL     1      41.287  45.661  17.215  1.00  0.00     0.169 HD
HETATM   10  C7  UNL     1      40.860  44.722  18.999  1.00  0.00     0.133 A 
HETATM   11  C8  UNL     1      41.039  43.592  19.769  1.00  0.00     0.142 A 
HETATM   12  N8  UNL     1      41.790  42.549  19.317  1.00  0.00    -0.343 N 
ATOM     13  H8  UNL     1      41.923  41.712  19.885  1.00  0.00     0.166 HD
HETATM   14  C10 UNL     1      42.353  42.657  18.093  1.00  0.00     0.122 A 
ENDROOT
BRANCH   1  15
HETATM   15  N2  UNL     1      43.276  40.583  18.327  1.00  0.00    -0.352 N 
ATOM     16  H2  UNL     1      43.559  40.736  19.295  1.00  0.00     0.166 HD
BRANCH  15  17
HETATM   17  C3  UNL     1      43.069  39.262  17.911  1.00  0.00     0.094 C 
BRANCH  17  18
HETATM   18  C2  UNL     1      41.699  38.985  17.335  1.00  0.00     0.217 C 
HETATM   19  C1  UNL     1      40.592  39.397  18.275  1.00  0.00     0.045 C 
BRANCH  18  20
HETATM   20  N1  UNL     1      41.560  37.608  16.916  1.00  0.00    -0.071 N 
ATOM     21  H13 UNL     1      42.181  37.391  16.137  1.00  0.00     0.275 HD
ATOM     22  H12 UNL     1      41.944  36.967  17.610  1.00  0.00     0.275 HD
ATOM     23  H11 UNL     1      40.591  37.378  16.693  1.00  0.00     0.275 HD
ENDBRANCH  18  20
ENDBRANCH  17  18
ENDBRANCH  15  17
ENDBRANCH   1  15
BRANCH  11  24
HETATM   24  C9  UNL     1      40.405  43.535  21.082  1.00  0.00     0.285 C 
HETATM   25  N7  UNL     1      39.004  43.646  21.218  1.00  0.00    -0.056 NA
HETATM   26  O1  UNL     1      41.123  43.388  22.082  1.00  0.00    -0.269 OA
ENDBRANCH  11  24
BRANCH  10  27
HETATM   27  N6  UNL     1      40.129  45.683  19.492  1.00  0.00    -0.383 N 
ATOM     28  H62 UNL     1      39.131  45.508  19.608  1.00  0.00     0.157 HD
ATOM     29  H61 UNL     1      40.537  46.580  19.753  1.00  0.00     0.157 HD
ENDBRANCH  10  27
TORSDOF 6
ENDMDL
MODEL 2
REMARK VINA RESULT: -5.780295049      1.812      1.971
REMARK  6 active torsions:
REMARK  status: ('A' for Active; 'I' for Inactive)
REMARK    1  A    between atoms: C2_2  and  N1_3 
REMARK    2  A    between atoms: C2_2  and  C3_7 
REMARK    3  A    between atoms: C3_7  and  N2_8 
REMARK    4  A    between atoms: N2_8  and  C4_10 
REMARK    5  A    between atoms: C7_19  and  N6_20 
REMARK    6  A    between atoms: C8_23  and  C9_24 
ROOT
HETATM    1  C4  UNL     1      43.668  41.738  17.552  1.00  0.00     0.137 A 
HETATM    2  N3  UNL     1      44.806  41.948  16.883  1.00  0.00    -0.337 N 
ATOM      3  H3  UNL     1      45.031  41.308  16.122  1.00  0.00     0.168 HD
HETATM    4  C5  UNL     1      45.681  42.946  17.143  1.00  0.00     0.183 A 
HETATM    5  N4  UNL     1      45.423  43.808  18.133  1.00  0.00    -0.337 N 
ATOM      6  H4  UNL     1      46.070  44.567  18.344  1.00  0.00     0.168 HD
HETATM    7  C6  UNL     1      44.292  43.650  18.844  1.00  0.00     0.139 A 
HETATM    8  N5  UNL     1      44.061  44.551  19.850  1.00  0.00    -0.325 N 
ATOM      9  H5  UNL     1      44.725  45.303  20.040  1.00  0.00     0.169 HD
HETATM   10  C7  UNL     1      42.941  44.423  20.580  1.00  0.00     0.133 A 
HETATM   11  C8  UNL     1      42.042  43.409  20.325  1.00  0.00     0.142 A 
HETATM   12  N8  UNL     1      42.266  42.510  19.326  1.00  0.00    -0.343 N 
ATOM     13  H8  UNL     1      41.601  41.760  19.135  1.00  0.00     0.166 HD
HETATM   14  C10 UNL     1      43.394  42.643  18.594  1.00  0.00     0.122 A 
ENDROOT
BRANCH   1  15
HETATM   15  N2  UNL     1      42.813  40.819  17.352  1.00  0.00    -0.352 N 
ATOM     16  H2  UNL     1      41.943  41.076  16.885  1.00  0.00     0.166 HD
BRANCH  15  17
HETATM   17  C3  UNL     1      42.980  39.481  17.726  1.00  0.00     0.094 C 
BRANCH  17  18
HETATM   18  C2  UNL     1      41.882  38.550  17.266  1.00  0.00     0.217 C 
HETATM   19  C1  UNL     1      41.537  38.752  15.810  1.00  0.00     0.045 C 
BRANCH  18  20
HETATM   20  N1  UNL     1      40.711  38.640  18.109  1.00  0.00    -0.071 N 
ATOM     21  H13 UNL     1      39.885  38.907  17.573  1.00  0.00     0.275 HD
ATOM     22  H12 UNL     1      40.406  37.718  18.422  1.00  0.00     0.275 HD
ATOM     23  H11 UNL     1      40.861  39.269  18.898  1.00  0.00     0.275 HD
ENDBRANCH  18  20
ENDBRANCH  17  18
ENDBRANCH  15  17
ENDBRANCH   1  15
BRANCH  11  24
HETATM   24  C9  UNL     1      40.841  43.318  21.149  1.00  0.00     0.285 C 
HETATM   25  N7  UNL     1      39.782  44.240  20.997  1.00  0.00    -0.056 NA
HETATM   26  O1  UNL     1      40.768  42.411  21.993  1.00  0.00    -0.269 OA
ENDBRANCH  11  24
BRANCH  10  27
HETATM   27  N6  UNL     1      42.665  45.249  21.551  1.00  0.00    -0.383 N 
ATOM     28  H62 UNL     1      42.898  46.233  21.418  1.00  0.00     0.157 HD
ATOM     29  H61 UNL     1      42.233  44.926  22.416  1.00  0.00     0.157 HD
ENDBRANCH  10  27
TORSDOF 6
ENDMDL
MODEL 3
REMARK VINA RESULT: -5.685318874      3.575      5.191
REMARK  6 active torsions:
REMARK  status: ('A' for Active; 'I' for Inactive)
REMARK    1  A    between atoms: C2_2  and  N1_3 
REMARK    2  A    between atoms: C2_2  and  C3_7 
REMARK    3  A    between atoms: C3_7  and  N2_8 
REMARK    4  A    between atoms: N2_8  and  C4_10 
REMARK    5  A    between atoms: C7_19  and  N6_20 
REMARK    6  A    between atoms: C8_23  and  C9_24 
ROOT
HETATM    1  C4  UNL     1      40.941  39.023  13.516  1.00  0.00     0.137 A 
HETATM    2  N3  UNL     1      41.209  39.693  12.391  1.00  0.00    -0.337 N 
ATOM      3  H3  UNL     1      40.869  39.298  11.514  1.00  0.00     0.168 HD
HETATM    4  C5  UNL     1      41.897  40.855  12.330  1.00  0.00     0.183 A 
HETATM    5  N4  UNL     1      42.359  41.407  13.458  1.00  0.00    -0.337 N 
ATOM      6  H4  UNL     1      42.880  42.284  13.434  1.00  0.00     0.168 HD
HETATM    7  C6  UNL     1      42.122  40.781  14.625  1.00  0.00     0.139 A 
HETATM    8  N5  UNL     1      42.611  41.375  15.759  1.00  0.00    -0.325 N 
ATOM      9  H5  UNL     1      43.128  42.253  15.706  1.00  0.00     0.169 HD
HETATM   10  C7  UNL     1      42.392  40.775  16.941  1.00  0.00     0.133 A 
HETATM   11  C8  UNL     1      41.692  39.589  17.015  1.00  0.00     0.142 A 
HETATM   12  N8  UNL     1      41.204  38.994  15.891  1.00  0.00    -0.343 N 
ATOM     13  H8  UNL     1      40.685  38.117  15.944  1.00  0.00     0.166 HD
HETATM   14  C10 UNL     1      41.426  39.601  14.704  1.00  0.00     0.122 A 
ENDROOT
BRANCH   1  15
HETATM   15  N2  UNL     1      40.302  37.930  13.631  1.00  0.00    -0.352 N 
ATOM     16  H2  UNL     1      39.687  37.823  14.437  1.00  0.00     0.166 HD
BRANCH  15  17
HETATM   17  C3  UNL     1      40.382  36.862  12.729  1.00  0.00     0.094 C 
BRANCH  17  18
HETATM   18  C2  UNL     1      40.872  35.562  13.324  1.00  0.00     0.217 C 
HETATM   19  C1  UNL     1      39.906  34.427  13.086  1.00  0.00     0.045 C 
BRANCH  18  20
HETATM   20  N1  UNL     1      41.199  35.701  14.726  1.00  0.00    -0.071 N 
ATOM     21  H13 UNL     1      41.527  34.819  15.120  1.00  0.00     0.275 HD
ATOM     22  H12 UNL     1      42.042  36.258  14.858  1.00  0.00     0.275 HD
ATOM     23  H11 UNL     1      40.416  36.077  15.260  1.00  0.00     0.275 HD
ENDBRANCH  18  20
ENDBRANCH  17  18
ENDBRANCH  15  17
ENDBRANCH   1  15
BRANCH  11  24
HETATM   24  C9  UNL     1      41.484  38.983  18.326  1.00  0.00     0.285 C 
HETATM   25  N7  UNL     1      42.451  38.124  18.892  1.00  0.00    -0.056 NA
HETATM   26  O1  UNL     1      40.435  39.238  18.937  1.00  0.00    -0.269 OA
ENDBRANCH  11  24
BRANCH  10  27
HETATM   27  N6  UNL     1      42.831  41.291  18.055  1.00  0.00    -0.383 N 
ATOM     28  H62 UNL     1      43.727  40.957  18.413  1.00  0.00     0.157 HD
ATOM     29  H61 UNL     1      42.301  42.004  18.556  1.00  0.00     0.157 HD
ENDBRANCH  10  27
TORSDOF 6
ENDMDL
MODEL 4
REMARK VINA RESULT: -5.218450982      2.666      4.926
REMARK  6 active torsions:
REMARK  status: ('A' for Active; 'I' for Inactive)
REMARK    1  A    between atoms: C2_2  and  N1_3 
REMARK    2  A    between atoms: C2_2  and  C3_7 
REMARK    3  A    between atoms: C3_7  and  N2_8 
REMARK    4  A    between atoms: N2_8  and  C4_10 
REMARK    5  A    between atoms: C7_19  and  N6_20 
REMARK    6  A    between atoms: C8_23  and  C9_24 
ROOT
HETATM    1  C4  UNL     1      43.387  43.711  18.989  1.00  0.00     0.137 A 
HETATM    2  N3  UNL     1      42.870  44.905  19.290  1.00  0.00    -0.337 N 
ATOM      3  H3  UNL     1      43.519  45.681  19.422  1.00  0.00     0.168 HD
HETATM    4  C5  UNL     1      41.550  45.161  19.432  1.00  0.00     0.183 A 
HETATM    5  N4  UNL     1      40.665  44.171  19.266  1.00  0.00    -0.337 N 
ATOM      6  H4  UNL     1      39.665  44.343  19.368  1.00  0.00     0.168 HD
HETATM    7  C6  UNL     1      41.123  42.944  18.961  1.00  0.00     0.139 A 
HETATM    8  N5  UNL     1      40.189  41.955  18.798  1.00  0.00    -0.325 N 
ATOM      9  H5  UNL     1      39.194  42.155  18.906  1.00  0.00     0.169 HD
HETATM   10  C7  UNL     1      40.613  40.717  18.494  1.00  0.00     0.133 A 
HETATM   11  C8  UNL     1      41.957  40.445  18.347  1.00  0.00     0.142 A 
HETATM   12  N8  UNL     1      42.891  41.424  18.507  1.00  0.00    -0.343 N 
ATOM     13  H8  UNL     1      43.885  41.224  18.398  1.00  0.00     0.166 HD
HETATM   14  C10 UNL     1      42.459  42.668  18.814  1.00  0.00     0.122 A 
ENDROOT
BRANCH   1  15
HETATM   15  N2  UNL     1      44.616  43.415  18.845  1.00  0.00    -0.352 N 
ATOM     16  H2  UNL     1      44.998  42.679  19.438  1.00  0.00     0.166 HD
BRANCH  15  17
HETATM   17  C3  UNL     1      45.480  44.028  17.930  1.00  0.00     0.094 C 
BRANCH  17  18
HETATM   18  C2  UNL     1      46.145  43.085  16.953  1.00  0.00     0.217 C 
HETATM   19  C1  UNL     1      47.298  43.737  16.228  1.00  0.00     0.045 C 
BRANCH  18  20
HETATM   20  N1  UNL     1      45.194  42.505  16.032  1.00  0.00    -0.071 N 
ATOM     21  H13 UNL     1      44.967  43.150  15.275  1.00  0.00     0.275 HD
ATOM     22  H12 UNL     1      45.617  41.757  15.482  1.00  0.00     0.275 HD
ATOM     23  H11 UNL     1      44.352  42.184  16.511  1.00  0.00     0.275 HD
ENDBRANCH  18  20
ENDBRANCH  17  18
ENDBRANCH  15  17
ENDBRANCH   1  15
BRANCH  11  24
HETATM   24  C9  UNL     1      42.360  39.082  18.014  1.00  0.00     0.285 C 
HETATM   25  N7  UNL     1      42.547  38.112  19.024  1.00  0.00    -0.056 NA
HETATM   26  O1  UNL     1      42.536  38.790  16.822  1.00  0.00    -0.269 OA
ENDBRANCH  11  24
BRANCH  10  27
HETATM   27  N6  UNL     1      39.772  39.734  18.326  1.00  0.00    -0.383 N 
ATOM     28  H62 UNL     1      39.018  39.633  19.006  1.00  0.00     0.157 HD
ATOM     29  H61 UNL     1      39.862  39.086  17.544  1.00  0.00     0.157 HD
ENDBRANCH  10  27
TORSDOF 6
ENDMDL
MODEL 5
REMARK VINA RESULT: -5.140716475      3.477      5.906
REMARK  6 active torsions:
REMARK  status: ('A' for Active; 'I' for Inactive)
REMARK    1  A    between atoms: C2_2  and  N1_3 
REMARK    2  A    between atoms: C2_2  and  C3_7 
REMARK    3  A    between atoms: C3_7  and  N2_8 
REMARK    4  A    between atoms: N2_8  and  C4_10 
REMARK    5  A    between atoms: C7_19  and  N6_20 
REMARK    6  A    between atoms: C8_23  and  C9_24 
ROOT
HETATM    1  C4  UNL     1      42.836  44.021  20.669  1.00  0.00     0.137 A 
HETATM    2  N3  UNL     1      41.815  44.881  20.606  1.00  0.00    -0.337 N 
ATOM      3  H3  UNL     1      41.827  45.675  21.246  1.00  0.00     0.168 HD
HETATM    4  C5  UNL     1      40.768  44.776  19.756  1.00  0.00     0.183 A 
HETATM    5  N4  UNL     1      40.715  43.749  18.900  1.00  0.00    -0.337 N 
ATOM      6  H4  UNL     1      39.935  43.652  18.251  1.00  0.00     0.168 HD
HETATM    7  C6  UNL     1      41.714  42.848  18.914  1.00  0.00     0.139 A 
HETATM    8  N5  UNL     1      41.626  41.811  18.023  1.00  0.00    -0.325 N 
ATOM      9  H5  UNL     1      40.834  41.738  17.384  1.00  0.00     0.169 HD
HETATM   10  C7  UNL     1      42.607  40.893  18.010  1.00  0.00     0.133 A 
HETATM   11  C8  UNL     1      43.679  40.990  18.872  1.00  0.00     0.142 A 
HETATM   12  N8  UNL     1      43.773  42.019  19.760  1.00  0.00    -0.343 N 
ATOM     13  H8  UNL     1      44.565  42.093  20.398  1.00  0.00     0.166 HD
HETATM   14  C10 UNL     1      42.783  42.940  19.769  1.00  0.00     0.122 A 
ENDROOT
BRANCH   1  15
HETATM   15  N2  UNL     1      43.842  44.071  21.445  1.00  0.00    -0.352 N 
ATOM     16  H2  UNL     1      43.901  43.375  22.188  1.00  0.00     0.166 HD
BRANCH  15  17
HETATM   17  C3  UNL     1      44.873  45.014  21.353  1.00  0.00     0.094 C 
BRANCH  17  18
HETATM   18  C2  UNL     1      46.070  44.734  22.231  1.00  0.00     0.217 C 
HETATM   19  C1  UNL     1      46.291  43.255  22.439  1.00  0.00     0.045 C 
BRANCH  18  20
HETATM   20  N1  UNL     1      45.993  45.444  23.489  1.00  0.00    -0.071 N 
ATOM     21  H13 UNL     1      46.612  45.032  24.188  1.00  0.00     0.275 HD
ATOM     22  H12 UNL     1      46.421  46.368  23.422  1.00  0.00     0.275 HD
ATOM     23  H11 UNL     1      45.034  45.503  23.830  1.00  0.00     0.275 HD
ENDBRANCH  18  20
ENDBRANCH  17  18
ENDBRANCH  15  17
ENDBRANCH   1  15
BRANCH  11  24
HETATM   24  C9  UNL     1      44.716  39.964  18.814  1.00  0.00     0.285 C 
HETATM   25  N7  UNL     1      44.808  38.966  19.808  1.00  0.00    -0.056 NA
HETATM   26  O1  UNL     1      45.519  39.986  17.869  1.00  0.00    -0.269 OA
ENDBRANCH  11  24
BRANCH  10  27
HETATM   27  N6  UNL     1      42.580  39.883  17.186  1.00  0.00    -0.383 N 
ATOM     28  H62 UNL     1      43.097  39.970  16.311  1.00  0.00     0.157 HD
ATOM     29  H61 UNL     1      42.061  39.033  17.404  1.00  0.00     0.157 HD
ENDBRANCH  10  27
TORSDOF 6
ENDMDL
