MODEL 1
REMARK VINA RESULT: -5.591616448      0.000      0.000
REMARK  8 active torsions:
REMARK  status: ('A' for Active; 'I' for Inactive)
REMARK    1  A    between atoms: C2_5  and  C3_6 
REMARK    2  A    between atoms: C2_5  and  N8_18 
REMARK    3  A    between atoms: C3_6  and  N3_7 
REMARK    4  A    between atoms: N3_7  and  C4_9 
REMARK    5  A    between atoms: N8_18  and  N9_20 
REMARK    6  A    between atoms: N9_20  and  C5_22 
REMARK    7  A    between atoms: C5_22  and  N10_24 
REMARK    8  A    between atoms: N10_24  and  N11_26 
ROOT
HETATM    1  N1  UNL     1      38.983  43.733  21.257  1.00  0.00    -0.172 NA
HETATM    2  C1  UNL     1      40.101  43.541  21.022  1.00  0.00     0.183 C 
HETATM    3  N2  UNL     1      41.443  43.319  20.761  1.00  0.00    -0.280 N 
ATOM      4  H2  UNL     1      42.122  43.623  21.459  1.00  0.00     0.179 HD
HETATM    5  C2  UNL     1      41.888  42.756  19.696  1.00  0.00     0.123 C 
ENDROOT
BRANCH   5   6
HETATM    6  C3  UNL     1      40.976  42.286  18.634  1.00  0.00     0.216 C 
BRANCH   6   7
HETATM    7  N3  UNL     1      40.520  40.923  18.880  1.00  0.00    -0.216 N 
ATOM      8  H3  UNL     1      39.804  40.720  19.579  1.00  0.00     0.178 HD
BRANCH   7   9
HETATM    9  C4  UNL     1      41.060  39.984  18.178  1.00  0.00     0.710 A 
HETATM   10  N4  UNL     1      40.701  38.679  18.177  1.00  0.00    -0.115 N 
HETATM   11  N5  UNL     1      41.505  38.049  17.319  1.00  0.00    -0.213 N 
ATOM     12  H4  UNL     1      39.956  38.256  18.730  1.00  0.00     0.207 HD
HETATM   13  N6  UNL     1      42.345  38.889  16.784  1.00  0.00    -0.213 N 
ATOM     14  H5  UNL     1      41.467  37.051  17.110  1.00  0.00     0.210 HD
HETATM   15  N7  UNL     1      42.094  40.079  17.295  1.00  0.00    -0.115 N 
ATOM     16  H6  UNL     1      43.066  38.667  16.096  1.00  0.00     0.210 HD
ATOM     17  H7  UNL     1      42.596  40.937  17.064  1.00  0.00     0.207 HD
ENDBRANCH   7   9
ENDBRANCH   6   7
ENDBRANCH   5   6
BRANCH   5  18
HETATM   18  N8  UNL     1      43.285  42.570  19.514  1.00  0.00    -0.285 N 
ATOM     19  H8  UNL     1      43.840  43.269  19.019  1.00  0.00     0.188 HD
BRANCH  18  20
HETATM   20  N9  UNL     1      43.885  41.427  20.019  1.00  0.00    -0.274 N 
ATOM     21  H9  UNL     1      43.731  40.535  19.549  1.00  0.00     0.189 HD
BRANCH  20  22
HETATM   22  C5  UNL     1      44.709  41.470  21.174  1.00  0.00     0.204 C 
HETATM   23  S1  UNL     1      45.183  42.908  21.759  1.00  0.00    -0.038 SA
BRANCH  22  24
HETATM   24  N10 UNL     1      45.100  40.254  21.794  1.00  0.00    -0.282 N 
ATOM     25  H10 UNL     1      44.730  39.373  21.436  1.00  0.00     0.189 HD
BRANCH  24  26
HETATM   26  N11 UNL     1      45.977  40.231  22.881  1.00  0.00    -0.343 N 
ATOM     27 2H11 UNL     1      45.841  39.513  23.594  1.00  0.00     0.176 HD
ATOM     28 1H11 UNL     1      46.737  40.905  22.973  1.00  0.00     0.176 HD
ENDBRANCH  24  26
ENDBRANCH  22  24
ENDBRANCH  20  22
ENDBRANCH  18  20
ENDBRANCH   5  18
TORSDOF 8
ENDMDL
MODEL 2
REMARK VINA RESULT: -5.577211514      1.528      2.133
REMARK  8 active torsions:
REMARK  status: ('A' for Active; 'I' for Inactive)
REMARK    1  A    between atoms: C2_5  and  C3_6 
REMARK    2  A    between atoms: C2_5  and  N8_18 
REMARK    3  A    between atoms: C3_6  and  N3_7 
REMARK    4  A    between atoms: N3_7  and  C4_9 
REMARK    5  A    between atoms: N8_18  and  N9_20 
REMARK    6  A    between atoms: N9_20  and  C5_22 
REMARK    7  A    between atoms: C5_22  and  N10_24 
REMARK    8  A    between atoms: N10_24  and  N11_26 
ROOT
HETATM    1  N1  UNL     1      38.897  43.694  21.314  1.00  0.00    -0.172 NA
HETATM    2  C1  UNL     1      40.002  43.427  21.096  1.00  0.00     0.183 C 
HETATM    3  N2  UNL     1      41.330  43.114  20.855  1.00  0.00    -0.280 N 
ATOM      4  H2  UNL     1      42.011  43.333  21.582  1.00  0.00     0.179 HD
HETATM    5  C2  UNL     1      41.758  42.566  19.776  1.00  0.00     0.123 C 
ENDROOT
BRANCH   5   6
HETATM    6  C3  UNL     1      40.840  42.216  18.672  1.00  0.00     0.216 C 
BRANCH   6   7
HETATM    7  N3  UNL     1      40.357  40.844  18.789  1.00  0.00    -0.216 N 
ATOM      8  H3  UNL     1      39.586  40.604  19.413  1.00  0.00     0.178 HD
BRANCH   7   9
HETATM    9  C4  UNL     1      40.946  39.948  18.071  1.00  0.00     0.710 A 
HETATM   10  N4  UNL     1      40.730  38.614  18.123  1.00  0.00    -0.115 N 
HETATM   11  N5  UNL     1      41.537  38.047  17.224  1.00  0.00    -0.213 N 
ATOM     12  H4  UNL     1      40.073  38.130  18.735  1.00  0.00     0.207 HD
HETATM   13  N6  UNL     1      42.245  38.955  16.614  1.00  0.00    -0.213 N 
ATOM     14  H5  UNL     1      41.592  37.045  17.040  1.00  0.00     0.210 HD
HETATM   15  N7  UNL     1      41.903  40.126  17.116  1.00  0.00    -0.115 N 
ATOM     16  H6  UNL     1      42.937  38.791  15.883  1.00  0.00     0.210 HD
ATOM     17  H7  UNL     1      42.293  41.025  16.833  1.00  0.00     0.207 HD
ENDBRANCH   7   9
ENDBRANCH   6   7
ENDBRANCH   5   6
BRANCH   5  18
HETATM   18  N8  UNL     1      43.141  42.281  19.617  1.00  0.00    -0.285 N 
ATOM     19  H8  UNL     1      43.477  41.802  18.782  1.00  0.00     0.188 HD
BRANCH  18  20
HETATM   20  N9  UNL     1      44.028  42.662  20.612  1.00  0.00    -0.274 N 
ATOM     21  H9  UNL     1      44.226  42.017  21.376  1.00  0.00     0.189 HD
BRANCH  20  22
HETATM   22  C5  UNL     1      44.665  43.931  20.591  1.00  0.00     0.204 C 
HETATM   23  S1  UNL     1      45.600  44.330  19.326  1.00  0.00    -0.038 SA
BRANCH  22  24
HETATM   24  N10 UNL     1      44.469  44.825  21.677  1.00  0.00    -0.282 N 
ATOM     25  H10 UNL     1      45.040  44.720  22.515  1.00  0.00     0.189 HD
BRANCH  24  26
HETATM   26  N11 UNL     1      43.515  45.845  21.628  1.00  0.00    -0.343 N 
ATOM     27 2H11 UNL     1      42.542  45.602  21.817  1.00  0.00     0.176 HD
ATOM     28 1H11 UNL     1      43.770  46.808  21.411  1.00  0.00     0.176 HD
ENDBRANCH  24  26
ENDBRANCH  22  24
ENDBRANCH  20  22
ENDBRANCH  18  20
ENDBRANCH   5  18
TORSDOF 8
ENDMDL
MODEL 3
REMARK VINA RESULT: -5.551755262      2.246      2.837
REMARK  8 active torsions:
REMARK  status: ('A' for Active; 'I' for Inactive)
REMARK    1  A    between atoms: C2_5  and  C3_6 
REMARK    2  A    between atoms: C2_5  and  N8_18 
REMARK    3  A    between atoms: C3_6  and  N3_7 
REMARK    4  A    between atoms: N3_7  and  C4_9 
REMARK    5  A    between atoms: N8_18  and  N9_20 
REMARK    6  A    between atoms: N9_20  and  C5_22 
REMARK    7  A    between atoms: C5_22  and  N10_24 
REMARK    8  A    between atoms: N10_24  and  N11_26 
ROOT
HETATM    1  N1  UNL     1      38.970  43.765  21.301  1.00  0.00    -0.172 NA
HETATM    2  C1  UNL     1      40.065  43.489  21.048  1.00  0.00     0.183 C 
HETATM    3  N2  UNL     1      41.382  43.166  20.764  1.00  0.00    -0.280 N 
ATOM      4  H2  UNL     1      42.094  43.421  21.449  1.00  0.00     0.179 HD
HETATM    5  C2  UNL     1      41.764  42.567  19.695  1.00  0.00     0.123 C 
ENDROOT
BRANCH   5   6
HETATM    6  C3  UNL     1      40.801  42.162  18.651  1.00  0.00     0.216 C 
BRANCH   6   7
HETATM    7  N3  UNL     1      40.394  40.770  18.806  1.00  0.00    -0.216 N 
ATOM      8  H3  UNL     1      39.685  40.496  19.487  1.00  0.00     0.178 HD
BRANCH   7   9
HETATM    9  C4  UNL     1      40.969  39.900  18.045  1.00  0.00     0.710 A 
HETATM   10  N4  UNL     1      40.755  38.564  18.056  1.00  0.00    -0.115 N 
HETATM   11  N5  UNL     1      41.543  38.029  17.121  1.00  0.00    -0.213 N 
ATOM     12  H4  UNL     1      40.112  38.058  18.665  1.00  0.00     0.207 HD
HETATM   13  N6  UNL     1      42.237  38.959  16.528  1.00  0.00    -0.213 N 
ATOM     14  H5  UNL     1      41.596  37.035  16.902  1.00  0.00     0.210 HD
HETATM   15  N7  UNL     1      41.904  40.112  17.076  1.00  0.00    -0.115 N 
ATOM     16  H6  UNL     1      42.913  38.821  15.776  1.00  0.00     0.210 HD
ATOM     17  H7  UNL     1      42.287  41.021  16.815  1.00  0.00     0.207 HD
ENDBRANCH   7   9
ENDBRANCH   6   7
ENDBRANCH   5   6
BRANCH   5  18
HETATM   18  N8  UNL     1      43.140  42.277  19.490  1.00  0.00    -0.285 N 
ATOM     19  H8  UNL     1      43.557  41.436  19.892  1.00  0.00     0.188 HD
BRANCH  18  20
HETATM   20  N9  UNL     1      43.910  43.149  18.736  1.00  0.00    -0.274 N 
ATOM     21  H9  UNL     1      44.315  43.970  19.184  1.00  0.00     0.189 HD
BRANCH  20  22
HETATM   22  C5  UNL     1      44.145  42.926  17.353  1.00  0.00     0.204 C 
HETATM   23  S1  UNL     1      43.265  43.737  16.257  1.00  0.00    -0.038 SA
BRANCH  22  24
HETATM   24  N10 UNL     1      45.145  41.998  16.960  1.00  0.00    -0.282 N 
ATOM     25  H10 UNL     1      45.280  41.150  17.511  1.00  0.00     0.189 HD
BRANCH  24  26
HETATM   26  N11 UNL     1      45.950  42.215  15.839  1.00  0.00    -0.343 N 
ATOM     27 2H11 UNL     1      46.253  43.169  15.642  1.00  0.00     0.176 HD
ATOM     28 1H11 UNL     1      46.234  41.451  15.226  1.00  0.00     0.176 HD
ENDBRANCH  24  26
ENDBRANCH  22  24
ENDBRANCH  20  22
ENDBRANCH  18  20
ENDBRANCH   5  18
TORSDOF 8
ENDMDL
MODEL 4
REMARK VINA RESULT: -5.429291016      1.970      2.777
REMARK  8 active torsions:
REMARK  status: ('A' for Active; 'I' for Inactive)
REMARK    1  A    between atoms: C2_5  and  C3_6 
REMARK    2  A    between atoms: C2_5  and  N8_18 
REMARK    3  A    between atoms: C3_6  and  N3_7 
REMARK    4  A    between atoms: N3_7  and  C4_9 
REMARK    5  A    between atoms: N8_18  and  N9_20 
REMARK    6  A    between atoms: N9_20  and  C5_22 
REMARK    7  A    between atoms: C5_22  and  N10_24 
REMARK    8  A    between atoms: N10_24  and  N11_26 
ROOT
HETATM    1  N1  UNL     1      39.080  43.787  21.249  1.00  0.00    -0.172 NA
HETATM    2  C1  UNL     1      40.178  43.498  21.023  1.00  0.00     0.183 C 
HETATM    3  N2  UNL     1      41.498  43.159  20.773  1.00  0.00    -0.280 N 
ATOM      4  H2  UNL     1      42.193  43.386  21.484  1.00  0.00     0.179 HD
HETATM    5  C2  UNL     1      41.903  42.577  19.703  1.00  0.00     0.123 C 
ENDROOT
BRANCH   5   6
HETATM    6  C3  UNL     1      40.966  42.212  18.621  1.00  0.00     0.216 C 
BRANCH   6   7
HETATM    7  N3  UNL     1      40.452  40.857  18.789  1.00  0.00    -0.216 N 
ATOM      8  H3  UNL     1      39.706  40.650  19.454  1.00  0.00     0.178 HD
BRANCH   7   9
HETATM    9  C4  UNL     1      40.980  39.931  18.061  1.00  0.00     0.710 A 
HETATM   10  N4  UNL     1      41.908  40.107  17.092  1.00  0.00    -0.115 N 
HETATM   11  N5  UNL     1      42.185  38.904  16.586  1.00  0.00    -0.213 N 
ATOM     12  H4  UNL     1      42.319  40.995  16.802  1.00  0.00     0.207 HD
HETATM   13  N6  UNL     1      41.481  37.986  17.187  1.00  0.00    -0.213 N 
ATOM     14  H5  UNL     1      42.853  38.727  15.836  1.00  0.00     0.210 HD
HETATM   15  N7  UNL     1      40.736  38.590  18.093  1.00  0.00    -0.115 N 
ATOM     16  H6  UNL     1      41.503  36.985  16.993  1.00  0.00     0.210 HD
ATOM     17  H7  UNL     1      40.078  38.125  18.719  1.00  0.00     0.207 HD
ENDBRANCH   7   9
ENDBRANCH   6   7
ENDBRANCH   5   6
BRANCH   5  18
HETATM   18  N8  UNL     1      43.280  42.267  19.533  1.00  0.00    -0.285 N 
ATOM     19  H8  UNL     1      43.615  41.312  19.665  1.00  0.00     0.188 HD
BRANCH  18  20
HETATM   20  N9  UNL     1      44.162  43.278  19.185  1.00  0.00    -0.274 N 
ATOM     21  H9  UNL     1      44.202  44.122  19.757  1.00  0.00     0.189 HD
BRANCH  20  22
HETATM   22  C5  UNL     1      45.009  43.166  18.051  1.00  0.00     0.204 C 
HETATM   23  S1  UNL     1      46.245  44.204  17.878  1.00  0.00    -0.038 SA
BRANCH  22  24
HETATM   24  N10 UNL     1      44.758  42.148  17.094  1.00  0.00    -0.282 N 
ATOM     25  H10 UNL     1      45.011  41.185  17.316  1.00  0.00     0.189 HD
BRANCH  24  26
HETATM   26  N11 UNL     1      44.172  42.429  15.857  1.00  0.00    -0.343 N 
ATOM     27 2H11 UNL     1      44.440  41.855  15.057  1.00  0.00     0.176 HD
ATOM     28 1H11 UNL     1      43.495  43.183  15.742  1.00  0.00     0.176 HD
ENDBRANCH  24  26
ENDBRANCH  22  24
ENDBRANCH  20  22
ENDBRANCH  18  20
ENDBRANCH   5  18
TORSDOF 8
ENDMDL
MODEL 5
REMARK VINA RESULT: -5.323310326      2.674      3.825
REMARK  8 active torsions:
REMARK  status: ('A' for Active; 'I' for Inactive)
REMARK    1  A    between atoms: C2_5  and  C3_6 
REMARK    2  A    between atoms: C2_5  and  N8_18 
REMARK    3  A    between atoms: C3_6  and  N3_7 
REMARK    4  A    between atoms: N3_7  and  C4_9 
REMARK    5  A    between atoms: N8_18  and  N9_20 
REMARK    6  A    between atoms: N9_20  and  C5_22 
REMARK    7  A    between atoms: C5_22  and  N10_24 
REMARK    8  A    between atoms: N10_24  and  N11_26 
ROOT
HETATM    1  N1  UNL     1      45.600  41.175  17.390  1.00  0.00    -0.172 NA
HETATM    2  C1  UNL     1      44.803  42.014  17.432  1.00  0.00     0.183 C 
HETATM    3  N2  UNL     1      43.862  43.030  17.468  1.00  0.00    -0.280 N 
ATOM      4  H2  UNL     1      44.062  43.885  16.948  1.00  0.00     0.179 HD
HETATM    5  C2  UNL     1      42.755  42.965  18.113  1.00  0.00     0.123 C 
ENDROOT
BRANCH   5   6
HETATM    6  C3  UNL     1      42.385  41.765  18.893  1.00  0.00     0.216 C 
BRANCH   6   7
HETATM    7  N3  UNL     1      41.276  41.045  18.277  1.00  0.00    -0.216 N 
ATOM      8  H3  UNL     1      40.340  41.450  18.229  1.00  0.00     0.178 HD
BRANCH   7   9
HETATM    9  C4  UNL     1      41.527  39.875  17.795  1.00  0.00     0.710 A 
HETATM   10  N4  UNL     1      40.812  38.748  18.018  1.00  0.00    -0.115 N 
HETATM   11  N5  UNL     1      41.404  37.763  17.340  1.00  0.00    -0.213 N 
ATOM     12  H4  UNL     1      39.976  38.666  18.597  1.00  0.00     0.207 HD
HETATM   13  N6  UNL     1      42.450  38.214  16.706  1.00  0.00    -0.213 N 
ATOM     14  H5  UNL     1      41.085  36.794  17.321  1.00  0.00     0.210 HD
HETATM   15  N7  UNL     1      42.547  39.502  16.970  1.00  0.00    -0.115 N 
ATOM     16  H6  UNL     1      43.078  37.669  16.114  1.00  0.00     0.210 HD
ATOM     17  H7  UNL     1      43.272  40.124  16.611  1.00  0.00     0.207 HD
ENDBRANCH   7   9
ENDBRANCH   6   7
ENDBRANCH   5   6
BRANCH   5  18
HETATM   18  N8  UNL     1      41.848  44.059  18.092  1.00  0.00    -0.285 N 
ATOM     19  H8  UNL     1      41.104  44.101  17.395  1.00  0.00     0.188 HD
BRANCH  18  20
HETATM   20  N9  UNL     1      41.987  45.070  19.031  1.00  0.00    -0.274 N 
ATOM     21  H9  UNL     1      42.257  46.003  18.722  1.00  0.00     0.189 HD
BRANCH  20  22
HETATM   22  C5  UNL     1      41.763  44.834  20.413  1.00  0.00     0.204 C 
HETATM   23  S1  UNL     1      40.306  44.312  20.904  1.00  0.00    -0.038 SA
BRANCH  22  24
HETATM   24  N10 UNL     1      42.818  45.058  21.336  1.00  0.00    -0.282 N 
ATOM     25  H10 UNL     1      42.846  45.937  21.854  1.00  0.00     0.189 HD
BRANCH  24  26
HETATM   26  N11 UNL     1      43.819  44.108  21.555  1.00  0.00    -0.343 N 
ATOM     27 2H11 UNL     1      43.917  43.349  20.880  1.00  0.00     0.176 HD
ATOM     28 1H11 UNL     1      44.440  44.159  22.362  1.00  0.00     0.176 HD
ENDBRANCH  24  26
ENDBRANCH  22  24
ENDBRANCH  20  22
ENDBRANCH  18  20
ENDBRANCH   5  18
TORSDOF 8
ENDMDL
