MODEL 1
REMARK VINA RESULT: -5.181537936      0.000      0.000
REMARK  6 active torsions:
REMARK  status: ('A' for Active; 'I' for Inactive)
REMARK    1  A    between atoms: N1_1  and  C1_4 
REMARK    2  A    between atoms: C6_15  and  N5_16 
REMARK    3  A    between atoms: N6_19  and  C7_20 
REMARK    4  A    between atoms: C7_20  and  C8_21 
REMARK    5  A    between atoms: C8_21  and  N7_22 
REMARK       I    between atoms: N7_22  and  C9_24 
REMARK       I    between atoms: C9_24  and  N8_26 
REMARK    6  A    between atoms: N8_26  and  N9_28 
ROOT
HETATM    1  C1  UNL     1      41.414  39.037  17.815  1.00  0.00     0.130 A 
HETATM    2  N2  UNL     1      40.117  39.248  18.140  1.00  0.00    -0.337 N 
ATOM      3  H2  UNL     1      39.432  38.501  18.024  1.00  0.00     0.168 HD
HETATM    4  C2  UNL     1      39.732  40.449  18.616  1.00  0.00     0.183 A 
HETATM    5  N3  UNL     1      40.655  41.415  18.756  1.00  0.00    -0.336 N 
ATOM      6  H3  UNL     1      40.353  42.321  19.117  1.00  0.00     0.168 HD
HETATM    7  C3  UNL     1      41.953  41.254  18.446  1.00  0.00     0.141 A 
HETATM    8  C4  UNL     1      42.375  40.016  17.951  1.00  0.00     0.121 A 
HETATM    9  N4  UNL     1      43.670  39.831  17.635  1.00  0.00    -0.356 N 
ATOM     10  H4  UNL     1      43.975  38.927  17.272  1.00  0.00     0.165 HD
HETATM   11  C5  UNL     1      44.580  40.834  17.790  1.00  0.00     0.137 A 
HETATM   12  C6  UNL     1      44.167  42.056  18.278  1.00  0.00     0.118 A 
HETATM   13  N6  UNL     1      42.872  42.226  18.590  1.00  0.00    -0.315 N 
ENDROOT
BRANCH  13  14
HETATM   14  C7  UNL     1      42.415  43.506  19.106  1.00  0.00     0.152 C 
BRANCH  14  15
HETATM   15  C8  UNL     1      42.255  43.511  20.581  1.00  0.00     0.144 C 
BRANCH  15  16
HETATM   16  N7  UNL     1      43.259  44.336  21.203  1.00  0.00    -0.340 N 
HETATM   17  C9  UNL     1      44.469  43.778  21.696  1.00  0.00     0.334 C 
HETATM   18  O1  UNL     1      44.755  42.551  21.641  1.00  0.00    -0.246 OA
HETATM   19  N8  UNL     1      45.411  44.690  22.292  1.00  0.00    -0.258 N 
ATOM     20  H8  UNL     1      45.218  45.689  22.358  1.00  0.00     0.191 HD
ATOM     21  H7  UNL     1      43.097  45.339  21.292  1.00  0.00     0.164 HD
BRANCH  19  22
HETATM   22  N9  UNL     1      46.602  44.142  22.778  1.00  0.00    -0.341 N 
ATOM     23  H92 UNL     1      47.475  44.262  22.265  1.00  0.00     0.177 HD
ATOM     24  H91 UNL     1      46.549  43.627  23.657  1.00  0.00     0.177 HD
ENDBRANCH  19  22
ENDBRANCH  15  16
ENDBRANCH  14  15
ENDBRANCH  13  14
BRANCH  12  25
HETATM   25  N5  UNL     1      44.961  43.057  18.456  1.00  0.00    -0.384 N 
ATOM     26  H52 UNL     1      44.747  43.924  17.962  1.00  0.00     0.157 HD
ATOM     27  H51 UNL     1      45.782  43.025  19.060  1.00  0.00     0.157 HD
ENDBRANCH  12  25
BRANCH   1  28
HETATM   28  N1  UNL     1      41.760  37.885  17.363  1.00  0.00    -0.383 N 
ATOM     29  H12 UNL     1      41.070  37.323  16.864  1.00  0.00     0.157 HD
ATOM     30  H11 UNL     1      42.716  37.563  17.516  1.00  0.00     0.157 HD
ENDBRANCH   1  28
TORSDOF 6
ENDMDL
MODEL 2
REMARK VINA RESULT: -5.084198498      1.570      1.711
REMARK  6 active torsions:
REMARK  status: ('A' for Active; 'I' for Inactive)
REMARK    1  A    between atoms: N1_1  and  C1_4 
REMARK    2  A    between atoms: C6_15  and  N5_16 
REMARK    3  A    between atoms: N6_19  and  C7_20 
REMARK    4  A    between atoms: C7_20  and  C8_21 
REMARK    5  A    between atoms: C8_21  and  N7_22 
REMARK       I    between atoms: N7_22  and  C9_24 
REMARK       I    between atoms: C9_24  and  N8_26 
REMARK    6  A    between atoms: N8_26  and  N9_28 
ROOT
HETATM    1  C1  UNL     1      41.419  39.040  17.821  1.00  0.00     0.130 A 
HETATM    2  N2  UNL     1      40.108  39.245  18.090  1.00  0.00    -0.337 N 
ATOM      3  H2  UNL     1      39.433  38.492  17.951  1.00  0.00     0.168 HD
HETATM    4  C2  UNL     1      39.696  40.445  18.542  1.00  0.00     0.183 A 
HETATM    5  N3  UNL     1      40.606  41.419  18.715  1.00  0.00    -0.336 N 
ATOM      6  H3  UNL     1      40.284  42.324  19.057  1.00  0.00     0.168 HD
HETATM    7  C3  UNL     1      41.917  41.264  18.460  1.00  0.00     0.141 A 
HETATM    8  C4  UNL     1      42.367  40.026  17.991  1.00  0.00     0.121 A 
HETATM    9  N4  UNL     1      43.675  39.848  17.729  1.00  0.00    -0.356 N 
ATOM     10  H4  UNL     1      44.001  38.944  17.386  1.00  0.00     0.165 HD
HETATM   11  C5  UNL     1      44.572  40.858  17.916  1.00  0.00     0.137 A 
HETATM   12  C6  UNL     1      44.131  42.080  18.379  1.00  0.00     0.118 A 
HETATM   13  N6  UNL     1      42.822  42.244  18.635  1.00  0.00    -0.315 N 
ENDROOT
BRANCH  13  14
HETATM   14  C7  UNL     1      42.337  43.523  19.124  1.00  0.00     0.152 C 
BRANCH  14  15
HETATM   15  C8  UNL     1      42.089  43.528  20.587  1.00  0.00     0.144 C 
BRANCH  15  16
HETATM   16  N7  UNL     1      43.073  44.327  21.271  1.00  0.00    -0.340 N 
HETATM   17  C9  UNL     1      43.004  45.746  21.266  1.00  0.00     0.334 C 
HETATM   18  O1  UNL     1      42.108  46.407  20.673  1.00  0.00    -0.246 OA
HETATM   19  N8  UNL     1      44.030  46.452  21.988  1.00  0.00    -0.258 N 
ATOM     20  H8  UNL     1      44.773  45.956  22.480  1.00  0.00     0.191 HD
ATOM     21  H7  UNL     1      43.835  43.866  21.768  1.00  0.00     0.164 HD
BRANCH  19  22
HETATM   22  N9  UNL     1      43.963  47.848  21.983  1.00  0.00    -0.341 N 
ATOM     23  H92 UNL     1      43.559  48.345  21.189  1.00  0.00     0.177 HD
ATOM     24  H91 UNL     1      44.333  48.331  22.802  1.00  0.00     0.177 HD
ENDBRANCH  19  22
ENDBRANCH  15  16
ENDBRANCH  14  15
ENDBRANCH  13  14
BRANCH  12  25
HETATM   25  N5  UNL     1      44.910  43.088  18.583  1.00  0.00    -0.384 N 
ATOM     26  H52 UNL     1      45.838  43.062  18.159  1.00  0.00     0.157 HD
ATOM     27  H51 UNL     1      44.646  43.900  19.141  1.00  0.00     0.157 HD
ENDBRANCH  12  25
BRANCH   1  28
HETATM   28  N1  UNL     1      41.791  37.887  17.391  1.00  0.00    -0.383 N 
ATOM     29  H12 UNL     1      41.121  37.311  16.881  1.00  0.00     0.157 HD
ATOM     30  H11 UNL     1      42.747  37.579  17.572  1.00  0.00     0.157 HD
ENDBRANCH   1  28
TORSDOF 6
ENDMDL
MODEL 3
REMARK VINA RESULT: -5.074436976      5.918      8.346
REMARK  6 active torsions:
REMARK  status: ('A' for Active; 'I' for Inactive)
REMARK    1  A    between atoms: N1_1  and  C1_4 
REMARK    2  A    between atoms: C6_15  and  N5_16 
REMARK    3  A    between atoms: N6_19  and  C7_20 
REMARK    4  A    between atoms: C7_20  and  C8_21 
REMARK    5  A    between atoms: C8_21  and  N7_22 
REMARK       I    between atoms: N7_22  and  C9_24 
REMARK       I    between atoms: C9_24  and  N8_26 
REMARK    6  A    between atoms: N8_26  and  N9_28 
ROOT
HETATM    1  C1  UNL     1      41.390  33.495  12.192  1.00  0.00     0.130 A 
HETATM    2  N2  UNL     1      40.341  33.173  12.988  1.00  0.00    -0.337 N 
ATOM      3  H2  UNL     1      40.159  32.198  13.225  1.00  0.00     0.168 HD
HETATM    4  C2  UNL     1      39.540  34.146  13.464  1.00  0.00     0.183 A 
HETATM    5  N3  UNL     1      39.802  35.421  13.134  1.00  0.00    -0.336 N 
ATOM      6  H3  UNL     1      39.189  36.150  13.499  1.00  0.00     0.168 HD
HETATM    7  C3  UNL     1      40.830  35.789  12.348  1.00  0.00     0.141 A 
HETATM    8  C4  UNL     1      41.675  34.796  11.843  1.00  0.00     0.121 A 
HETATM    9  N4  UNL     1      42.710  35.141  11.054  1.00  0.00    -0.356 N 
ATOM     10  H4  UNL     1      43.325  34.415  10.686  1.00  0.00     0.165 HD
HETATM   11  C5  UNL     1      42.949  36.446  10.739  1.00  0.00     0.137 A 
HETATM   12  C6  UNL     1      42.116  37.427  11.236  1.00  0.00     0.118 A 
HETATM   13  N6  UNL     1      41.087  37.069  12.022  1.00  0.00    -0.315 N 
ENDROOT
BRANCH  13  14
HETATM   14  C7  UNL     1      40.198  38.086  12.556  1.00  0.00     0.152 C 
BRANCH  14  15
HETATM   15  C8  UNL     1      40.838  38.923  13.601  1.00  0.00     0.144 C 
BRANCH  15  16
HETATM   16  N7  UNL     1      41.057  38.162  14.804  1.00  0.00    -0.340 N 
HETATM   17  C9  UNL     1      41.560  38.774  15.983  1.00  0.00     0.334 C 
HETATM   18  O1  UNL     1      41.857  39.997  16.072  1.00  0.00    -0.246 OA
HETATM   19  N8  UNL     1      41.735  37.927  17.134  1.00  0.00    -0.258 N 
ATOM     20  H8  UNL     1      41.508  36.933  17.104  1.00  0.00     0.191 HD
ATOM     21  H7  UNL     1      40.848  37.164  14.810  1.00  0.00     0.164 HD
BRANCH  19  22
HETATM   22  N9  UNL     1      42.230  38.529  18.294  1.00  0.00    -0.341 N 
ATOM     23  H92 UNL     1      42.722  37.977  18.996  1.00  0.00     0.177 HD
ATOM     24  H91 UNL     1      42.073  39.532  18.398  1.00  0.00     0.177 HD
ENDBRANCH  19  22
ENDBRANCH  15  16
ENDBRANCH  14  15
ENDBRANCH  13  14
BRANCH  12  25
HETATM   25  N5  UNL     1      42.269  38.684  10.988  1.00  0.00    -0.384 N 
ATOM     26  H52 UNL     1      41.497  39.309  11.221  1.00  0.00     0.157 HD
ATOM     27  H51 UNL     1      43.114  39.077  10.576  1.00  0.00     0.157 HD
ENDBRANCH  12  25
BRANCH   1  28
HETATM   28  N1  UNL     1      42.142  32.552  11.749  1.00  0.00    -0.383 N 
ATOM     29  H12 UNL     1      42.657  32.697  10.882  1.00  0.00     0.157 HD
ATOM     30  H11 UNL     1      42.203  31.681  12.279  1.00  0.00     0.157 HD
ENDBRANCH   1  28
TORSDOF 6
ENDMDL
MODEL 4
REMARK VINA RESULT: -5.047506263      2.288      6.321
REMARK  6 active torsions:
REMARK  status: ('A' for Active; 'I' for Inactive)
REMARK    1  A    between atoms: N1_1  and  C1_4 
REMARK    2  A    between atoms: C6_15  and  N5_16 
REMARK    3  A    between atoms: N6_19  and  C7_20 
REMARK    4  A    between atoms: C7_20  and  C8_21 
REMARK    5  A    between atoms: C8_21  and  N7_22 
REMARK       I    between atoms: N7_22  and  C9_24 
REMARK       I    between atoms: C9_24  and  N8_26 
REMARK    6  A    between atoms: N8_26  and  N9_28 
ROOT
HETATM    1  C1  UNL     1      43.475  45.944  20.794  1.00  0.00     0.130 A 
HETATM    2  N2  UNL     1      44.229  46.530  19.834  1.00  0.00    -0.337 N 
ATOM      3  H2  UNL     1      44.849  47.305  20.072  1.00  0.00     0.168 HD
HETATM    4  C2  UNL     1      44.159  46.088  18.564  1.00  0.00     0.183 A 
HETATM    5  N3  UNL     1      43.333  45.066  18.279  1.00  0.00    -0.336 N 
ATOM      6  H3  UNL     1      43.286  44.739  17.314  1.00  0.00     0.168 HD
HETATM    7  C3  UNL     1      42.565  44.453  19.197  1.00  0.00     0.141 A 
HETATM    8  C4  UNL     1      42.623  44.896  20.522  1.00  0.00     0.121 A 
HETATM    9  N4  UNL     1      41.863  44.297  21.458  1.00  0.00    -0.356 N 
ATOM     10  H4  UNL     1      41.906  44.623  22.424  1.00  0.00     0.165 HD
HETATM   11  C5  UNL     1      41.037  43.263  21.135  1.00  0.00     0.137 A 
HETATM   12  C6  UNL     1      40.978  42.824  19.828  1.00  0.00     0.118 A 
HETATM   13  N6  UNL     1      41.741  43.431  18.904  1.00  0.00    -0.315 N 
ENDROOT
BRANCH  13  14
HETATM   14  C7  UNL     1      41.694  42.984  17.522  1.00  0.00     0.152 C 
BRANCH  14  15
HETATM   15  C8  UNL     1      42.855  42.139  17.148  1.00  0.00     0.144 C 
BRANCH  15  16
HETATM   16  N7  UNL     1      42.421  40.939  16.478  1.00  0.00    -0.340 N 
HETATM   17  C9  UNL     1      42.159  39.745  17.201  1.00  0.00     0.334 C 
HETATM   18  O1  UNL     1      42.288  39.633  18.450  1.00  0.00    -0.246 OA
HETATM   19  N8  UNL     1      41.720  38.605  16.438  1.00  0.00    -0.258 N 
ATOM     20  H8  UNL     1      41.604  38.653  15.427  1.00  0.00     0.191 HD
ATOM     21  H7  UNL     1      42.300  40.948  15.465  1.00  0.00     0.164 HD
BRANCH  19  22
HETATM   22  N9  UNL     1      41.463  37.429  17.149  1.00  0.00    -0.341 N 
ATOM     23  H92 UNL     1      42.214  36.943  17.638  1.00  0.00     0.177 HD
ATOM     24  H91 UNL     1      40.500  37.092  17.150  1.00  0.00     0.177 HD
ENDBRANCH  19  22
ENDBRANCH  15  16
ENDBRANCH  14  15
ENDBRANCH  13  14
BRANCH  12  25
HETATM   25  N5  UNL     1      40.224  41.853  19.436  1.00  0.00    -0.384 N 
ATOM     26  H52 UNL     1      40.189  41.017  20.018  1.00  0.00     0.157 HD
ATOM     27  H51 UNL     1      39.668  41.882  18.582  1.00  0.00     0.157 HD
ENDBRANCH  12  25
BRANCH   1  28
HETATM   28  N1  UNL     1      43.558  46.382  22.000  1.00  0.00    -0.383 N 
ATOM     29  H12 UNL     1      44.479  46.570  22.394  1.00  0.00     0.157 HD
ATOM     30  H11 UNL     1      42.699  46.529  22.530  1.00  0.00     0.157 HD
ENDBRANCH   1  28
TORSDOF 6
ENDMDL
MODEL 5
REMARK VINA RESULT: -5.024090717      1.992      5.676
REMARK  6 active torsions:
REMARK  status: ('A' for Active; 'I' for Inactive)
REMARK    1  A    between atoms: N1_1  and  C1_4 
REMARK    2  A    between atoms: C6_15  and  N5_16 
REMARK    3  A    between atoms: N6_19  and  C7_20 
REMARK    4  A    between atoms: C7_20  and  C8_21 
REMARK    5  A    between atoms: C8_21  and  N7_22 
REMARK       I    between atoms: N7_22  and  C9_24 
REMARK       I    between atoms: C9_24  and  N8_26 
REMARK    6  A    between atoms: N8_26  and  N9_28 
ROOT
HETATM    1  C1  UNL     1      45.314  43.903  18.711  1.00  0.00     0.130 A 
HETATM    2  N2  UNL     1      45.468  43.077  17.649  1.00  0.00    -0.337 N 
ATOM      3  H2  UNL     1      46.393  42.934  17.242  1.00  0.00     0.168 HD
HETATM    4  C2  UNL     1      44.397  42.445  17.131  1.00  0.00     0.183 A 
HETATM    5  N3  UNL     1      43.191  42.653  17.686  1.00  0.00    -0.336 N 
ATOM      6  H3  UNL     1      42.387  42.170  17.286  1.00  0.00     0.168 HD
HETATM    7  C3  UNL     1      42.988  43.463  18.740  1.00  0.00     0.141 A 
HETATM    8  C4  UNL     1      44.087  44.129  19.295  1.00  0.00     0.121 A 
HETATM    9  N4  UNL     1      43.907  44.945  20.350  1.00  0.00    -0.356 N 
ATOM     10  H4  UNL     1      44.709  45.430  20.752  1.00  0.00     0.165 HD
HETATM   11  C5  UNL     1      42.669  45.133  20.890  1.00  0.00     0.137 A 
HETATM   12  C6  UNL     1      41.584  44.477  20.345  1.00  0.00     0.118 A 
HETATM   13  N6  UNL     1      41.778  43.666  19.291  1.00  0.00    -0.315 N 
ENDROOT
BRANCH  13  14
HETATM   14  C7  UNL     1      40.649  42.966  18.702  1.00  0.00     0.152 C 
BRANCH  14  15
HETATM   15  C8  UNL     1      40.217  41.792  19.499  1.00  0.00     0.144 C 
BRANCH  15  16
HETATM   16  N7  UNL     1      39.994  40.649  18.650  1.00  0.00    -0.340 N 
HETATM   17  C9  UNL     1      41.054  39.766  18.309  1.00  0.00     0.334 C 
HETATM   18  O1  UNL     1      42.244  39.907  18.702  1.00  0.00    -0.246 OA
HETATM   19  N8  UNL     1      40.724  38.649  17.462  1.00  0.00    -0.258 N 
ATOM     20  H8  UNL     1      39.774  38.500  17.122  1.00  0.00     0.191 HD
ATOM     21  H7  UNL     1      39.059  40.472  18.285  1.00  0.00     0.164 HD
BRANCH  19  22
HETATM   22  N9  UNL     1      41.766  37.780  17.127  1.00  0.00    -0.341 N 
ATOM     23  H92 UNL     1      42.127  37.115  17.810  1.00  0.00     0.177 HD
ATOM     24  H91 UNL     1      42.137  37.847  16.178  1.00  0.00     0.177 HD
ENDBRANCH  19  22
ENDBRANCH  15  16
ENDBRANCH  14  15
ENDBRANCH  13  14
BRANCH  12  25
HETATM   25  N5  UNL     1      40.381  44.598  20.792  1.00  0.00    -0.384 N 
ATOM     26  H52 UNL     1      39.811  45.357  20.418  1.00  0.00     0.157 HD
ATOM     27  H51 UNL     1      39.976  43.978  21.494  1.00  0.00     0.157 HD
ENDBRANCH  12  25
BRANCH   1  28
HETATM   28  N1  UNL     1      46.349  44.495  19.190  1.00  0.00    -0.383 N 
ATOM     29  H12 UNL     1      47.271  44.096  19.016  1.00  0.00     0.157 HD
ATOM     30  H11 UNL     1      46.220  45.350  19.733  1.00  0.00     0.157 HD
ENDBRANCH   1  28
TORSDOF 6
ENDMDL
