MODEL 1
REMARK VINA RESULT: -6.344020855      0.000      0.000
REMARK  4 active torsions:
REMARK  status: ('A' for Active; 'I' for Inactive)
REMARK    1  A    between atoms: S1_2  and  N1_5 
REMARK       I    between atoms: N1_5  and  C2_7 
REMARK    2  A    between atoms: C2_7  and  C3_9 
REMARK    3  A    between atoms: C5_14  and  N4_15 
REMARK    4  A    between atoms: C6_20  and  N6_21 
ROOT
HETATM    1  C3  UNL     1      41.610  41.124  18.673  1.00  0.00     0.118 A 
HETATM    2  C4  UNL     1      40.459  40.478  18.246  1.00  0.00     0.151 A 
HETATM    3  N2  UNL     1      39.176  41.035  18.551  1.00  0.00    -0.081 NA
HETATM    4  N3  UNL     1      40.548  39.339  17.551  1.00  0.00    -0.178 N 
ATOM      5  H3  UNL     1      39.683  38.890  17.253  1.00  0.00     0.185 HD
HETATM    6  C5  UNL     1      41.708  38.753  17.224  1.00  0.00     0.678 A 
HETATM    7  N5  UNL     1      42.819  39.368  17.631  1.00  0.00    -0.176 N 
ATOM      8  H5  UNL     1      43.721  38.950  17.401  1.00  0.00     0.186 HD
HETATM    9  C6  UNL     1      42.804  40.529  18.342  1.00  0.00     0.134 A 
ENDROOT
BRANCH   1  10
HETATM   10  C2  UNL     1      41.465  42.344  19.416  1.00  0.00     0.272 C 
HETATM   11  N1  UNL     1      40.882  43.557  19.006  1.00  0.00    -0.250 N 
ATOM     12  H1  UNL     1      40.489  43.656  18.070  1.00  0.00     0.181 HD
HETATM   13  O3  UNL     1      41.920  42.365  20.622  1.00  0.00    -0.266 OA
BRANCH  11  14
HETATM   14  S1  UNL     1      40.845  44.890  20.135  1.00  0.00     0.229 S 
HETATM   15  C1  UNL     1      42.487  45.277  20.698  1.00  0.00     0.186 C 
HETATM   16  O1  UNL     1      39.938  44.531  21.295  1.00  0.00    -0.206 OA
HETATM   17  O2  UNL     1      40.239  46.070  19.445  1.00  0.00    -0.206 OA
ENDBRANCH  11  14
ENDBRANCH   1  10
BRANCH   9  18
HETATM   18  N6  UNL     1      43.917  41.049  18.690  1.00  0.00    -0.384 N 
ATOM     19  H62 UNL     1      44.062  41.283  19.673  1.00  0.00     0.157 HD
ATOM     20  H61 UNL     1      44.651  41.228  18.005  1.00  0.00     0.157 HD
ENDBRANCH   9  18
BRANCH   6  21
HETATM   21  N4  UNL     1      41.754  37.639  16.543  1.00  0.00    -0.234 N 
ATOM     22  H42 UNL     1      40.955  37.005  16.502  1.00  0.00     0.174 HD
ATOM     23  H41 UNL     1      42.585  37.356  16.025  1.00  0.00     0.174 HD
ENDBRANCH   6  21
TORSDOF 4
ENDMDL
MODEL 2
REMARK VINA RESULT: -5.832707751      1.252      1.370
REMARK  4 active torsions:
REMARK  status: ('A' for Active; 'I' for Inactive)
REMARK    1  A    between atoms: S1_2  and  N1_5 
REMARK       I    between atoms: N1_5  and  C2_7 
REMARK    2  A    between atoms: C2_7  and  C3_9 
REMARK    3  A    between atoms: C5_14  and  N4_15 
REMARK    4  A    between atoms: C6_20  and  N6_21 
ROOT
HETATM    1  C3  UNL     1      41.717  41.174  18.221  1.00  0.00     0.118 A 
HETATM    2  C4  UNL     1      40.527  40.467  18.113  1.00  0.00     0.151 A 
HETATM    3  N2  UNL     1      39.299  41.078  18.521  1.00  0.00    -0.081 NA
HETATM    4  N3  UNL     1      40.530  39.220  17.631  1.00  0.00    -0.178 N 
ATOM      5  H3  UNL     1      39.639  38.730  17.566  1.00  0.00     0.185 HD
HETATM    6  C5  UNL     1      41.635  38.578  17.228  1.00  0.00     0.678 A 
HETATM    7  N5  UNL     1      42.782  39.250  17.328  1.00  0.00    -0.176 N 
ATOM      8  H5  UNL     1      43.644  38.792  17.031  1.00  0.00     0.186 HD
HETATM    9  C6  UNL     1      42.855  40.521  17.810  1.00  0.00     0.134 A 
ENDROOT
BRANCH   1  10
HETATM   10  C2  UNL     1      41.666  42.509  18.745  1.00  0.00     0.272 C 
HETATM   11  N1  UNL     1      41.002  42.976  19.894  1.00  0.00    -0.250 N 
ATOM     12  H1  UNL     1      40.467  42.338  20.483  1.00  0.00     0.181 HD
HETATM   13  O3  UNL     1      42.302  43.428  18.100  1.00  0.00    -0.266 OA
BRANCH  11  14
HETATM   14  S1  UNL     1      41.116  44.674  20.292  1.00  0.00     0.229 S 
HETATM   15  C1  UNL     1      40.683  45.676  18.889  1.00  0.00     0.186 C 
HETATM   16  O1  UNL     1      42.523  44.977  20.769  1.00  0.00    -0.206 OA
HETATM   17  O2  UNL     1      40.191  44.948  21.434  1.00  0.00    -0.206 OA
ENDBRANCH  11  14
ENDBRANCH   1  10
BRANCH   9  18
HETATM   18  N6  UNL     1      43.997  41.089  17.870  1.00  0.00    -0.384 N 
ATOM     19  H62 UNL     1      44.049  42.052  18.202  1.00  0.00     0.157 HD
ATOM     20  H61 UNL     1      44.845  40.594  17.592  1.00  0.00     0.157 HD
ENDBRANCH   9  18
BRANCH   6  21
HETATM   21  N4  UNL     1      41.595  37.359  16.761  1.00  0.00    -0.234 N 
ATOM     22  H42 UNL     1      40.710  36.878  16.596  1.00  0.00     0.174 HD
ATOM     23  H41 UNL     1      42.443  36.836  16.542  1.00  0.00     0.174 HD
ENDBRANCH   6  21
TORSDOF 4
ENDMDL
MODEL 3
REMARK VINA RESULT: -5.732539395      0.432      2.046
REMARK  4 active torsions:
REMARK  status: ('A' for Active; 'I' for Inactive)
REMARK    1  A    between atoms: S1_2  and  N1_5 
REMARK       I    between atoms: N1_5  and  C2_7 
REMARK    2  A    between atoms: C2_7  and  C3_9 
REMARK    3  A    between atoms: C5_14  and  N4_15 
REMARK    4  A    between atoms: C6_20  and  N6_21 
ROOT
HETATM    1  C3  UNL     1      41.258  41.071  18.592  1.00  0.00     0.118 A 
HETATM    2  C4  UNL     1      42.529  40.762  18.125  1.00  0.00     0.151 A 
HETATM    3  N2  UNL     1      43.626  41.632  18.423  1.00  0.00    -0.081 NA
HETATM    4  N3  UNL     1      42.726  39.656  17.400  1.00  0.00    -0.178 N 
ATOM      5  H3  UNL     1      43.671  39.460  17.072  1.00  0.00     0.185 HD
HETATM    6  C5  UNL     1      41.754  38.791  17.078  1.00  0.00     0.678 A 
HETATM    7  N5  UNL     1      40.531  39.081  17.523  1.00  0.00    -0.176 N 
ATOM      8  H5  UNL     1      39.766  38.445  17.297  1.00  0.00     0.186 HD
HETATM    9  C6  UNL     1      40.256  40.189  18.265  1.00  0.00     0.134 A 
ENDROOT
BRANCH   1  10
HETATM   10  C2  UNL     1      41.095  42.269  19.366  1.00  0.00     0.272 C 
HETATM   11  N1  UNL     1      40.941  43.592  18.913  1.00  0.00    -0.250 N 
ATOM     12  H1  UNL     1      40.934  43.805  17.915  1.00  0.00     0.181 HD
HETATM   13  O3  UNL     1      41.083  42.152  20.650  1.00  0.00    -0.266 OA
BRANCH  11  14
HETATM   14  S1  UNL     1      40.759  44.864  20.098  1.00  0.00     0.229 S 
HETATM   15  C1  UNL     1      42.275  45.103  20.995  1.00  0.00     0.186 C 
HETATM   16  O1  UNL     1      39.618  44.512  21.031  1.00  0.00    -0.206 OA
HETATM   17  O2  UNL     1      40.375  46.118  19.380  1.00  0.00    -0.206 OA
ENDBRANCH  11  14
ENDBRANCH   1  10
BRANCH   9  18
HETATM   18  N6  UNL     1      39.054  40.387  18.649  1.00  0.00    -0.384 N 
ATOM     19  H62 UNL     1      38.301  40.291  17.968  1.00  0.00     0.157 HD
ATOM     20  H61 UNL     1      38.846  40.635  19.616  1.00  0.00     0.157 HD
ENDBRANCH   9  18
BRANCH   6  21
HETATM   21  N4  UNL     1      41.987  37.721  16.368  1.00  0.00    -0.234 N 
ATOM     22  H42 UNL     1      41.325  36.944  16.338  1.00  0.00     0.174 HD
ATOM     23  H41 UNL     1      42.837  37.613  15.814  1.00  0.00     0.174 HD
ENDBRANCH   6  21
TORSDOF 4
ENDMDL
MODEL 4
REMARK VINA RESULT: -5.492613155      1.646      2.344
REMARK  4 active torsions:
REMARK  status: ('A' for Active; 'I' for Inactive)
REMARK    1  A    between atoms: S1_2  and  N1_5 
REMARK       I    between atoms: N1_5  and  C2_7 
REMARK    2  A    between atoms: C2_7  and  C3_9 
REMARK    3  A    between atoms: C5_14  and  N4_15 
REMARK    4  A    between atoms: C6_20  and  N6_21 
ROOT
HETATM    1  C3  UNL     1      41.384  40.851  17.914  1.00  0.00     0.118 A 
HETATM    2  C4  UNL     1      41.993  41.382  16.786  1.00  0.00     0.151 A 
HETATM    3  N2  UNL     1      42.528  42.709  16.826  1.00  0.00    -0.081 NA
HETATM    4  N3  UNL     1      42.080  40.657  15.666  1.00  0.00    -0.178 N 
ATOM      5  H3  UNL     1      42.533  41.078  14.856  1.00  0.00     0.185 HD
HETATM    6  C5  UNL     1      41.607  39.409  15.546  1.00  0.00     0.678 A 
HETATM    7  N5  UNL     1      41.020  38.891  16.626  1.00  0.00    -0.176 N 
ATOM      8  H5  UNL     1      40.647  37.943  16.571  1.00  0.00     0.186 HD
HETATM    9  C6  UNL     1      40.895  39.571  17.798  1.00  0.00     0.134 A 
ENDROOT
BRANCH   1  10
HETATM   10  C2  UNL     1      41.313  41.666  19.093  1.00  0.00     0.272 C 
HETATM   11  N1  UNL     1      40.296  42.555  19.485  1.00  0.00    -0.250 N 
ATOM     12  H1  UNL     1      39.468  42.689  18.905  1.00  0.00     0.181 HD
HETATM   13  O3  UNL     1      42.298  41.600  19.923  1.00  0.00    -0.266 OA
BRANCH  11  14
HETATM   14  S1  UNL     1      40.481  43.425  20.990  1.00  0.00     0.229 S 
HETATM   15  C1  UNL     1      41.749  44.663  20.843  1.00  0.00     0.186 C 
HETATM   16  O1  UNL     1      40.803  42.439  22.095  1.00  0.00    -0.206 OA
HETATM   17  O2  UNL     1      39.169  44.058  21.327  1.00  0.00    -0.206 OA
ENDBRANCH  11  14
ENDBRANCH   1  10
BRANCH   9  18
HETATM   18  N6  UNL     1      40.319  38.996  18.782  1.00  0.00    -0.384 N 
ATOM     19  H62 UNL     1      40.543  38.020  18.979  1.00  0.00     0.157 HD
ATOM     20  H61 UNL     1      39.646  39.497  19.363  1.00  0.00     0.157 HD
ENDBRANCH   9  18
BRANCH   6  21
HETATM   21  N4  UNL     1      41.712  38.732  14.434  1.00  0.00    -0.234 N 
ATOM     22  H42 UNL     1      41.680  37.712  14.425  1.00  0.00     0.174 HD
ATOM     23  H41 UNL     1      41.829  39.190  13.531  1.00  0.00     0.174 HD
ENDBRANCH   6  21
TORSDOF 4
ENDMDL
MODEL 5
REMARK VINA RESULT: -5.402155180      1.084      2.393
REMARK  4 active torsions:
REMARK  status: ('A' for Active; 'I' for Inactive)
REMARK    1  A    between atoms: S1_2  and  N1_5 
REMARK       I    between atoms: N1_5  and  C2_7 
REMARK    2  A    between atoms: C2_7  and  C3_9 
REMARK    3  A    between atoms: C5_14  and  N4_15 
REMARK    4  A    between atoms: C6_20  and  N6_21 
ROOT
HETATM    1  C3  UNL     1      41.896  41.065  18.635  1.00  0.00     0.118 A 
HETATM    2  C4  UNL     1      43.044  40.449  18.157  1.00  0.00     0.151 A 
HETATM    3  N2  UNL     1      44.324  41.035  18.412  1.00  0.00    -0.081 NA
HETATM    4  N3  UNL     1      42.953  39.312  17.459  1.00  0.00    -0.178 N 
ATOM      5  H3  UNL     1      43.816  38.886  17.121  1.00  0.00     0.185 HD
HETATM    6  C5  UNL     1      41.795  38.698  17.178  1.00  0.00     0.678 A 
HETATM    7  N5  UNL     1      40.688  39.284  17.634  1.00  0.00    -0.176 N 
ATOM      8  H5  UNL     1      39.788  38.846  17.438  1.00  0.00     0.186 HD
HETATM    9  C6  UNL     1      40.705  40.442  18.350  1.00  0.00     0.134 A 
ENDROOT
BRANCH   1  10
HETATM   10  C2  UNL     1      42.042  42.284  19.379  1.00  0.00     0.272 C 
HETATM   11  N1  UNL     1      42.337  43.574  18.900  1.00  0.00    -0.250 N 
ATOM     12  H1  UNL     1      42.477  43.741  17.904  1.00  0.00     0.181 HD
HETATM   13  O3  UNL     1      41.891  42.224  20.658  1.00  0.00    -0.266 OA
BRANCH  11  14
HETATM   14  S1  UNL     1      42.455  44.884  20.050  1.00  0.00     0.229 S 
HETATM   15  C1  UNL     1      42.886  46.400  19.227  1.00  0.00     0.186 C 
HETATM   16  O1  UNL     1      43.479  44.524  21.108  1.00  0.00    -0.206 OA
HETATM   17  O2  UNL     1      41.135  45.022  20.738  1.00  0.00    -0.206 OA
ENDBRANCH  11  14
ENDBRANCH   1  10
BRANCH   9  18
HETATM   18  N6  UNL     1      39.594  40.932  18.749  1.00  0.00    -0.384 N 
ATOM     19  H62 UNL     1      39.282  41.820  18.355  1.00  0.00     0.157 HD
ATOM     20  H61 UNL     1      39.027  40.450  19.446  1.00  0.00     0.157 HD
ENDBRANCH   9  18
BRANCH   6  21
HETATM   21  N4  UNL     1      41.749  37.587  16.493  1.00  0.00    -0.234 N 
ATOM     22  H42 UNL     1      42.341  36.790  16.727  1.00  0.00     0.174 HD
ATOM     23  H41 UNL     1      41.121  37.468  15.699  1.00  0.00     0.174 HD
ENDBRANCH   6  21
TORSDOF 4
ENDMDL
