MODEL 1
REMARK VINA RESULT: -8.076654285      0.000      0.000
REMARK  11 active torsions:
REMARK  status: ('A' for Active; 'I' for Inactive)
REMARK    1  A    between atoms: S1_2  and  C2_3 
REMARK    2  A    between atoms: C3_6  and  C4_7 
REMARK    3  A    between atoms: N3_10  and  C5_11 
REMARK    4  A    between atoms: C8_14  and  S2_15 
REMARK    5  A    between atoms: S2_15  and  N4_16 
REMARK    6  A    between atoms: C11_25  and  C12_26 
REMARK    7  A    between atoms: N8_32  and  C14_34 
REMARK    8  A    between atoms: C14_34  and  C15_35 
REMARK    9  A    between atoms: C16_38  and  C17_39 
REMARK   10  A    between atoms: C17_39  and  N11_43 
REMARK   11  A    between atoms: N11_43  and  N12_45 
ROOT
HETATM    1  C2  UNL     1      -5.274  22.034  33.880  1.00  0.00     0.088 A 
HETATM    2  N1  UNL     1      -6.241  22.900  33.572  1.00  0.00    -0.334 N 
ATOM      3  H1  UNL     1      -5.987  23.887  33.529  1.00  0.00     0.168 HD
HETATM    4  C3  UNL     1      -7.499  22.586  33.317  1.00  0.00     0.139 A 
HETATM    5  N7  UNL     1      -7.849  21.256  33.372  1.00  0.00    -0.326 N 
ATOM      6  H7  UNL     1      -8.809  20.970  33.183  1.00  0.00     0.169 HD
HETATM    7  C13 UNL     1      -6.914  20.335  33.679  1.00  0.00     0.120 A 
HETATM    8  N8  UNL     1      -7.191  19.088  33.742  1.00  0.00    -0.367 N 
ATOM      9  H8  UNL     1      -6.428  18.454  33.978  1.00  0.00     0.161 HD
HETATM   10  C16 UNL     1      -5.597  20.697  33.942  1.00  0.00     0.086 A 
ENDROOT
BRANCH   4  11
HETATM   11  C4  UNL     1      -8.569  23.507  32.980  1.00  0.00     0.127 A 
HETATM   12  N2  UNL     1      -9.434  23.331  31.915  1.00  0.00    -0.273 N 
HETATM   13  N3  UNL     1     -10.295  24.316  31.854  1.00  0.00    -0.196 N 
ATOM     14  H2  UNL     1      -9.406  22.544  31.266  1.00  0.00     0.189 HD
HETATM   15  N5  UNL     1     -10.032  25.135  32.839  1.00  0.00    -0.272 N 
HETATM   16  C11 UNL     1      -8.951  24.664  33.575  1.00  0.00     0.147 A 
ATOM     17  H5  UNL     1     -10.545  25.993  33.037  1.00  0.00     0.189 HD
BRANCH  13  18
HETATM   18  C5  UNL     1     -11.355  24.507  30.898  1.00  0.00     0.075 A 
HETATM   19  C6  UNL     1     -11.224  25.405  29.877  1.00  0.00     0.035 A 
HETATM   20  C7  UNL     1     -12.262  25.570  28.967  1.00  0.00     0.027 A 
HETATM   21  C8  UNL     1     -13.411  24.827  29.105  1.00  0.00     0.079 A 
HETATM   22  C9  UNL     1     -13.579  23.907  30.127  1.00  0.00     0.027 A 
HETATM   23  C10 UNL     1     -12.522  23.775  31.007  1.00  0.00     0.035 A 
BRANCH  21  24
HETATM   24  S2  UNL     1     -14.752  25.007  27.968  1.00  0.00     0.256 S 
HETATM   25  O1  UNL     1     -15.463  23.686  27.848  1.00  0.00    -0.201 OA
HETATM   26  O2  UNL     1     -14.224  25.455  26.641  1.00  0.00    -0.201 OA
BRANCH  24  27
HETATM   27  N4  UNL     1     -15.793  26.219  28.634  1.00  0.00    -0.324 N 
ATOM     28  H42 UNL     1     -16.668  26.054  29.132  1.00  0.00     0.169 HD
ATOM     29  H41 UNL     1     -15.354  27.117  28.428  1.00  0.00     0.169 HD
ENDBRANCH  24  27
ENDBRANCH  21  24
ENDBRANCH  13  18
BRANCH  16  30
HETATM   30  C12 UNL     1      -8.411  25.337  34.727  1.00  0.00     0.285 C 
HETATM   31  N6  UNL     1      -9.355  25.790  35.734  1.00  0.00    -0.056 NA
HETATM   32  O3  UNL     1      -7.241  25.587  34.983  1.00  0.00    -0.269 OA
ENDBRANCH  16  30
ENDBRANCH   4  11
BRANCH   1  33
HETATM   33  S1  UNL     1      -3.627  22.592  34.197  1.00  0.00    -0.116 SA
HETATM   34  C1  UNL     1      -3.418  24.237  33.466  1.00  0.00     0.097 C 
ENDBRANCH   1  33
BRANCH  10  35
HETATM   35  C17 UNL     1      -4.613  19.672  34.270  1.00  0.00     0.130 C 
HETATM   36  N10 UNL     1      -4.133  18.985  33.275  1.00  0.00    -0.384 N 
ATOM     37 2H10 UNL     1      -4.451  19.180  32.325  1.00  0.00     0.157 HD
ATOM     38 1H10 UNL     1      -3.445  18.268  33.504  1.00  0.00     0.157 HD
BRANCH  35  39
HETATM   39  N11 UNL     1      -4.172  19.403  35.584  1.00  0.00    -0.292 N 
ATOM     40  H11 UNL     1      -3.196  19.555  35.841  1.00  0.00     0.188 HD
BRANCH  39  41
HETATM   41  N12 UNL     1      -5.081  18.929  36.527  1.00  0.00    -0.344 N 
ATOM     42 2H12 UNL     1      -6.048  18.758  36.247  1.00  0.00     0.176 HD
ATOM     43 1H12 UNL     1      -4.769  18.759  37.482  1.00  0.00     0.176 HD
ENDBRANCH  39  41
ENDBRANCH  35  39
ENDBRANCH  10  35
BRANCH   8  44
HETATM   44  C14 UNL     1      -8.477  18.500  33.510  1.00  0.00     0.220 C 
BRANCH  44  45
HETATM   45  C15 UNL     1      -9.134  18.159  34.809  1.00  0.00     0.248 C 
HETATM   46  N9  UNL     1      -8.962  16.859  35.348  1.00  0.00    -0.061 NA
HETATM   47  O4  UNL     1      -9.829  18.989  35.431  1.00  0.00    -0.275 OA
ENDBRANCH  44  45
ENDBRANCH   8  44
TORSDOF 11
ENDMDL
MODEL 2
REMARK VINA RESULT: -8.029824072      0.935      1.165
REMARK  11 active torsions:
REMARK  status: ('A' for Active; 'I' for Inactive)
REMARK    1  A    between atoms: S1_2  and  C2_3 
REMARK    2  A    between atoms: C3_6  and  C4_7 
REMARK    3  A    between atoms: N3_10  and  C5_11 
REMARK    4  A    between atoms: C8_14  and  S2_15 
REMARK    5  A    between atoms: S2_15  and  N4_16 
REMARK    6  A    between atoms: C11_25  and  C12_26 
REMARK    7  A    between atoms: N8_32  and  C14_34 
REMARK    8  A    between atoms: C14_34  and  C15_35 
REMARK    9  A    between atoms: C16_38  and  C17_39 
REMARK   10  A    between atoms: C17_39  and  N11_43 
REMARK   11  A    between atoms: N11_43  and  N12_45 
ROOT
HETATM    1  C2  UNL     1      -5.235  21.850  33.934  1.00  0.00     0.088 A 
HETATM    2  N1  UNL     1      -6.154  22.758  33.603  1.00  0.00    -0.334 N 
ATOM      3  H1  UNL     1      -5.848  23.729  33.535  1.00  0.00     0.168 HD
HETATM    4  C3  UNL     1      -7.428  22.506  33.356  1.00  0.00     0.139 A 
HETATM    5  N7  UNL     1      -7.848  21.199  33.446  1.00  0.00    -0.326 N 
ATOM      6  H7  UNL     1      -8.822  20.959  33.264  1.00  0.00     0.169 HD
HETATM    7  C13 UNL     1      -6.964  20.237  33.777  1.00  0.00     0.120 A 
HETATM    8  N8  UNL     1      -7.307  19.008  33.872  1.00  0.00    -0.367 N 
ATOM      9  H8  UNL     1      -6.579  18.341  34.125  1.00  0.00     0.161 HD
HETATM   10  C16 UNL     1      -5.629  20.535  34.031  1.00  0.00     0.086 A 
ENDROOT
BRANCH   4  11
HETATM   11  C4  UNL     1      -8.447  23.474  32.994  1.00  0.00     0.127 A 
HETATM   12  N2  UNL     1      -9.348  23.297  31.959  1.00  0.00    -0.273 N 
HETATM   13  N3  UNL     1     -10.147  24.330  31.866  1.00  0.00    -0.196 N 
ATOM     14  H2  UNL     1      -9.384  22.478  31.352  1.00  0.00     0.189 HD
HETATM   15  N5  UNL     1      -9.810  25.180  32.799  1.00  0.00    -0.272 N 
HETATM   16  C11 UNL     1      -8.742  24.681  33.535  1.00  0.00     0.147 A 
ATOM     17  H5  UNL     1     -10.264  26.078  32.963  1.00  0.00     0.189 HD
BRANCH  13  18
HETATM   18  C5  UNL     1     -11.218  24.538  30.923  1.00  0.00     0.075 A 
HETATM   19  C6  UNL     1     -11.105  25.468  29.929  1.00  0.00     0.035 A 
HETATM   20  C7  UNL     1     -12.152  25.648  29.033  1.00  0.00     0.027 A 
HETATM   21  C8  UNL     1     -13.292  24.889  29.158  1.00  0.00     0.079 A 
HETATM   22  C9  UNL     1     -13.441  23.938  30.153  1.00  0.00     0.027 A 
HETATM   23  C10 UNL     1     -12.376  23.791  31.020  1.00  0.00     0.035 A 
BRANCH  21  24
HETATM   24  S2  UNL     1     -14.644  25.088  28.038  1.00  0.00     0.256 S 
HETATM   25  O1  UNL     1     -15.398  23.788  27.955  1.00  0.00    -0.201 OA
HETATM   26  O2  UNL     1     -14.124  25.493  26.694  1.00  0.00    -0.201 OA
BRANCH  24  27
HETATM   27  N4  UNL     1     -15.636  26.346  28.694  1.00  0.00    -0.324 N 
ATOM     28  H42 UNL     1     -15.715  26.598  29.679  1.00  0.00     0.169 HD
ATOM     29  H41 UNL     1     -16.116  26.774  27.902  1.00  0.00     0.169 HD
ENDBRANCH  24  27
ENDBRANCH  21  24
ENDBRANCH  13  18
BRANCH  16  30
HETATM   30  C12 UNL     1      -8.133  25.377  34.638  1.00  0.00     0.285 C 
HETATM   31  N6  UNL     1      -9.023  25.995  35.606  1.00  0.00    -0.056 NA
HETATM   32  O3  UNL     1      -6.943  25.524  34.881  1.00  0.00    -0.269 OA
ENDBRANCH  16  30
ENDBRANCH   4  11
BRANCH   1  33
HETATM   33  S1  UNL     1      -3.560  22.327  34.237  1.00  0.00    -0.116 SA
HETATM   34  C1  UNL     1      -3.450  24.136  34.184  1.00  0.00     0.097 C 
ENDBRANCH   1  33
BRANCH  10  35
HETATM   35  C17 UNL     1      -4.701  19.467  34.386  1.00  0.00     0.130 C 
HETATM   36  N10 UNL     1      -4.346  18.661  33.429  1.00  0.00    -0.384 N 
ATOM     37 2H10 UNL     1      -4.718  18.797  32.489  1.00  0.00     0.157 HD
ATOM     38 1H10 UNL     1      -3.697  17.914  33.677  1.00  0.00     0.157 HD
BRANCH  35  39
HETATM   39  N11 UNL     1      -4.186  19.279  35.688  1.00  0.00    -0.292 N 
ATOM     40  H11 UNL     1      -3.230  19.558  35.908  1.00  0.00     0.188 HD
BRANCH  39  41
HETATM   41  N12 UNL     1      -4.996  18.710  36.667  1.00  0.00    -0.344 N 
ATOM     42 2H12 UNL     1      -4.580  18.090  37.361  1.00  0.00     0.176 HD
ATOM     43 1H12 UNL     1      -5.994  18.922  36.678  1.00  0.00     0.176 HD
ENDBRANCH  39  41
ENDBRANCH  35  39
ENDBRANCH  10  35
BRANCH   8  44
HETATM   44  C14 UNL     1      -8.623  18.484  33.655  1.00  0.00     0.220 C 
BRANCH  44  45
HETATM   45  C15 UNL     1      -8.747  17.953  32.263  1.00  0.00     0.248 C 
HETATM   46  N9  UNL     1      -8.666  18.855  31.172  1.00  0.00    -0.061 NA
HETATM   47  O4  UNL     1      -8.919  16.737  32.037  1.00  0.00    -0.275 OA
ENDBRANCH  44  45
ENDBRANCH   8  44
TORSDOF 11
ENDMDL
MODEL 3
REMARK VINA RESULT: -7.988751008      4.283      5.954
REMARK  11 active torsions:
REMARK  status: ('A' for Active; 'I' for Inactive)
REMARK    1  A    between atoms: S1_2  and  C2_3 
REMARK    2  A    between atoms: C3_6  and  C4_7 
REMARK    3  A    between atoms: N3_10  and  C5_11 
REMARK    4  A    between atoms: C8_14  and  S2_15 
REMARK    5  A    between atoms: S2_15  and  N4_16 
REMARK    6  A    between atoms: C11_25  and  C12_26 
REMARK    7  A    between atoms: N8_32  and  C14_34 
REMARK    8  A    between atoms: C14_34  and  C15_35 
REMARK    9  A    between atoms: C16_38  and  C17_39 
REMARK   10  A    between atoms: C17_39  and  N11_43 
REMARK   11  A    between atoms: N11_43  and  N12_45 
ROOT
HETATM    1  C2  UNL     1      -9.705  20.960  32.087  1.00  0.00     0.088 A 
HETATM    2  N1  UNL     1      -9.651  22.193  32.594  1.00  0.00    -0.334 N 
ATOM      3  H1  UNL     1     -10.466  22.791  32.455  1.00  0.00     0.168 HD
HETATM    4  C3  UNL     1      -8.630  22.704  33.260  1.00  0.00     0.139 A 
HETATM    5  N7  UNL     1      -7.527  21.904  33.451  1.00  0.00    -0.326 N 
ATOM      6  H7  UNL     1      -6.718  22.259  33.959  1.00  0.00     0.169 HD
HETATM    7  C13 UNL     1      -7.524  20.648  32.961  1.00  0.00     0.120 A 
HETATM    8  N8  UNL     1      -6.522  19.868  33.114  1.00  0.00    -0.367 N 
ATOM      9  H8  UNL     1      -6.599  18.932  32.715  1.00  0.00     0.161 HD
HETATM   10  C16 UNL     1      -8.614  20.139  32.263  1.00  0.00     0.086 A 
ENDROOT
BRANCH   4  11
HETATM   11  C4  UNL     1      -8.546  24.041  33.822  1.00  0.00     0.127 A 
HETATM   12  N2  UNL     1      -9.647  24.829  34.107  1.00  0.00    -0.273 N 
HETATM   13  N3  UNL     1      -9.269  25.981  34.604  1.00  0.00    -0.196 N 
ATOM     14  H2  UNL     1     -10.616  24.553  33.953  1.00  0.00     0.189 HD
HETATM   15  N5  UNL     1      -7.963  25.982  34.657  1.00  0.00    -0.272 N 
HETATM   16  C11 UNL     1      -7.465  24.778  34.174  1.00  0.00     0.147 A 
ATOM     17  H5  UNL     1      -7.393  26.753  35.003  1.00  0.00     0.189 HD
BRANCH  13  18
HETATM   18  C5  UNL     1     -10.102  27.077  35.028  1.00  0.00     0.075 A 
HETATM   19  C6  UNL     1     -11.358  27.240  34.517  1.00  0.00     0.035 A 
HETATM   20  C7  UNL     1     -12.142  28.306  34.944  1.00  0.00     0.027 A 
HETATM   21  C8  UNL     1     -11.643  29.187  35.875  1.00  0.00     0.079 A 
HETATM   22  C9  UNL     1     -10.374  29.053  36.414  1.00  0.00     0.027 A 
HETATM   23  C10 UNL     1      -9.631  27.979  35.963  1.00  0.00     0.035 A 
BRANCH  21  24
HETATM   24  S2  UNL     1     -12.608  30.554  36.443  1.00  0.00     0.256 S 
HETATM   25  O1  UNL     1     -13.797  30.714  35.535  1.00  0.00    -0.201 OA
HETATM   26  O2  UNL     1     -11.766  31.791  36.448  1.00  0.00    -0.201 OA
BRANCH  24  27
HETATM   27  N4  UNL     1     -13.100  30.163  38.056  1.00  0.00    -0.324 N 
ATOM     28  H42 UNL     1     -12.880  30.696  38.898  1.00  0.00     0.169 HD
ATOM     29  H41 UNL     1     -13.647  29.304  37.988  1.00  0.00     0.169 HD
ENDBRANCH  24  27
ENDBRANCH  21  24
ENDBRANCH  13  18
BRANCH  16  30
HETATM   30  C12 UNL     1      -6.063  24.462  34.099  1.00  0.00     0.285 C 
HETATM   31  N6  UNL     1      -5.207  25.402  33.396  1.00  0.00    -0.056 NA
HETATM   32  O3  UNL     1      -5.476  23.489  34.555  1.00  0.00    -0.269 OA
ENDBRANCH  16  30
ENDBRANCH   4  11
BRANCH   1  33
HETATM   33  S1  UNL     1     -11.138  20.402  31.215  1.00  0.00    -0.116 SA
HETATM   34  C1  UNL     1     -12.177  19.448  32.353  1.00  0.00     0.097 C 
ENDBRANCH   1  33
BRANCH  10  35
HETATM   35  C17 UNL     1      -8.574  18.775  31.748  1.00  0.00     0.130 C 
HETATM   36  N10 UNL     1      -8.118  18.622  30.539  1.00  0.00    -0.384 N 
ATOM     37 2H10 UNL     1      -7.812  19.436  30.006  1.00  0.00     0.157 HD
ATOM     38 1H10 UNL     1      -8.090  17.668  30.178  1.00  0.00     0.157 HD
BRANCH  35  39
HETATM   39  N11 UNL     1      -8.996  17.647  32.485  1.00  0.00    -0.292 N 
ATOM     40  H11 UNL     1      -9.792  17.716  33.121  1.00  0.00     0.188 HD
BRANCH  39  41
HETATM   41  N12 UNL     1      -8.318  16.440  32.337  1.00  0.00    -0.344 N 
ATOM     42 2H12 UNL     1      -7.423  16.427  31.847  1.00  0.00     0.176 HD
ATOM     43 1H12 UNL     1      -8.724  15.587  32.720  1.00  0.00     0.176 HD
ENDBRANCH  39  41
ENDBRANCH  35  39
ENDBRANCH  10  35
BRANCH   8  44
HETATM   44  C14 UNL     1      -5.303  20.187  33.794  1.00  0.00     0.220 C 
BRANCH  44  45
HETATM   45  C15 UNL     1      -5.273  19.535  35.140  1.00  0.00     0.248 C 
HETATM   46  N9  UNL     1      -4.052  18.992  35.615  1.00  0.00    -0.061 NA
HETATM   47  O4  UNL     1      -6.293  19.457  35.855  1.00  0.00    -0.275 OA
ENDBRANCH  44  45
ENDBRANCH   8  44
TORSDOF 11
ENDMDL
MODEL 4
REMARK VINA RESULT: -7.697942399      4.319      5.714
REMARK  11 active torsions:
REMARK  status: ('A' for Active; 'I' for Inactive)
REMARK    1  A    between atoms: S1_2  and  C2_3 
REMARK    2  A    between atoms: C3_6  and  C4_7 
REMARK    3  A    between atoms: N3_10  and  C5_11 
REMARK    4  A    between atoms: C8_14  and  S2_15 
REMARK    5  A    between atoms: S2_15  and  N4_16 
REMARK    6  A    between atoms: C11_25  and  C12_26 
REMARK    7  A    between atoms: N8_32  and  C14_34 
REMARK    8  A    between atoms: C14_34  and  C15_35 
REMARK    9  A    between atoms: C16_38  and  C17_39 
REMARK   10  A    between atoms: C17_39  and  N11_43 
REMARK   11  A    between atoms: N11_43  and  N12_45 
ROOT
HETATM    1  C2  UNL     1      -6.410  23.334  34.087  1.00  0.00     0.088 A 
HETATM    2  N1  UNL     1      -7.312  24.311  33.974  1.00  0.00    -0.334 N 
ATOM      3  H1  UNL     1      -7.002  25.260  34.187  1.00  0.00     0.168 HD
HETATM    4  C3  UNL     1      -8.573  24.153  33.611  1.00  0.00     0.139 A 
HETATM    5  N7  UNL     1      -8.999  22.876  33.323  1.00  0.00    -0.326 N 
ATOM      6  H7  UNL     1      -9.964  22.709  33.040  1.00  0.00     0.169 HD
HETATM    7  C13 UNL     1      -8.132  21.848  33.420  1.00  0.00     0.120 A 
HETATM    8  N8  UNL     1      -8.481  20.645  33.162  1.00  0.00    -0.367 N 
ATOM      9  H8  UNL     1      -7.766  19.924  33.257  1.00  0.00     0.161 HD
HETATM   10  C16 UNL     1      -6.810  22.047  33.805  1.00  0.00     0.086 A 
ENDROOT
BRANCH   4  11
HETATM   11  C4  UNL     1      -9.573  25.197  33.481  1.00  0.00     0.127 A 
HETATM   12  N2  UNL     1      -9.846  26.132  34.463  1.00  0.00    -0.273 N 
HETATM   13  N3  UNL     1     -10.792  26.947  34.070  1.00  0.00    -0.196 N 
ATOM     14  H2  UNL     1      -9.377  26.179  35.368  1.00  0.00     0.189 HD
HETATM   15  N5  UNL     1     -11.152  26.587  32.866  1.00  0.00    -0.272 N 
HETATM   16  C11 UNL     1     -10.410  25.487  32.455  1.00  0.00     0.147 A 
ATOM     17  H5  UNL     1     -11.874  27.046  32.310  1.00  0.00     0.189 HD
BRANCH  13  18
HETATM   18  C5  UNL     1     -11.364  28.053  34.794  1.00  0.00     0.075 A 
HETATM   19  C6  UNL     1     -12.582  28.564  34.445  1.00  0.00     0.035 A 
HETATM   20  C7  UNL     1     -13.112  29.631  35.161  1.00  0.00     0.027 A 
HETATM   21  C8  UNL     1     -12.403  30.163  36.213  1.00  0.00     0.079 A 
HETATM   22  C9  UNL     1     -11.166  29.671  36.595  1.00  0.00     0.027 A 
HETATM   23  C10 UNL     1     -10.679  28.610  35.857  1.00  0.00     0.035 A 
BRANCH  21  24
HETATM   24  S2  UNL     1     -13.043  31.519  37.148  1.00  0.00     0.256 S 
HETATM   25  O1  UNL     1     -14.239  32.081  36.427  1.00  0.00    -0.201 OA
HETATM   26  O2  UNL     1     -11.979  32.559  37.312  1.00  0.00    -0.201 OA
BRANCH  24  27
HETATM   27  N4  UNL     1     -13.489  30.877  38.692  1.00  0.00    -0.324 N 
ATOM     28  H42 UNL     1     -14.000  30.010  38.859  1.00  0.00     0.169 HD
ATOM     29  H41 UNL     1     -13.138  31.536  39.388  1.00  0.00     0.169 HD
ENDBRANCH  24  27
ENDBRANCH  21  24
ENDBRANCH  13  18
BRANCH  16  30
HETATM   30  C12 UNL     1     -10.564  24.848  31.175  1.00  0.00     0.285 C 
HETATM   31  N6  UNL     1     -10.532  25.700  29.999  1.00  0.00    -0.056 NA
HETATM   32  O3  UNL     1     -10.723  23.658  30.932  1.00  0.00    -0.269 OA
ENDBRANCH  16  30
ENDBRANCH   4  11
BRANCH   1  33
HETATM   33  S1  UNL     1      -4.751  23.687  34.583  1.00  0.00    -0.116 SA
HETATM   34  C1  UNL     1      -3.832  24.302  33.147  1.00  0.00     0.097 C 
ENDBRANCH   1  33
BRANCH  10  35
HETATM   35  C17 UNL     1      -5.901  20.910  33.898  1.00  0.00     0.130 C 
HETATM   36  N10 UNL     1      -5.313  20.543  32.796  1.00  0.00    -0.384 N 
ATOM     37 2H10 UNL     1      -5.502  21.046  31.930  1.00  0.00     0.157 HD
ATOM     38 1H10 UNL     1      -4.678  19.748  32.861  1.00  0.00     0.157 HD
BRANCH  35  39
HETATM   39  N11 UNL     1      -5.640  20.214  35.098  1.00  0.00    -0.292 N 
ATOM     40  H11 UNL     1      -6.405  19.960  35.722  1.00  0.00     0.188 HD
BRANCH  39  41
HETATM   41  N12 UNL     1      -4.328  19.877  35.421  1.00  0.00    -0.344 N 
ATOM     42 2H12 UNL     1      -3.708  19.524  34.691  1.00  0.00     0.176 HD
ATOM     43 1H12 UNL     1      -4.004  19.988  36.381  1.00  0.00     0.176 HD
ENDBRANCH  39  41
ENDBRANCH  35  39
ENDBRANCH  10  35
BRANCH   8  44
HETATM   44  C14 UNL     1      -9.786  20.218  32.752  1.00  0.00     0.220 C 
BRANCH  44  45
HETATM   45  C15 UNL     1      -9.765  19.786  31.321  1.00  0.00     0.248 C 
HETATM   46  N9  UNL     1     -10.977  19.780  30.586  1.00  0.00    -0.061 NA
HETATM   47  O4  UNL     1      -8.709  19.431  30.757  1.00  0.00    -0.275 OA
ENDBRANCH  44  45
ENDBRANCH   8  44
TORSDOF 11
ENDMDL
MODEL 5
REMARK VINA RESULT: -7.609920872      0.877      1.446
REMARK  11 active torsions:
REMARK  status: ('A' for Active; 'I' for Inactive)
REMARK    1  A    between atoms: S1_2  and  C2_3 
REMARK    2  A    between atoms: C3_6  and  C4_7 
REMARK    3  A    between atoms: N3_10  and  C5_11 
REMARK    4  A    between atoms: C8_14  and  S2_15 
REMARK    5  A    between atoms: S2_15  and  N4_16 
REMARK    6  A    between atoms: C11_25  and  C12_26 
REMARK    7  A    between atoms: N8_32  and  C14_34 
REMARK    8  A    between atoms: C14_34  and  C15_35 
REMARK    9  A    between atoms: C16_38  and  C17_39 
REMARK   10  A    between atoms: C17_39  and  N11_43 
REMARK   11  A    between atoms: N11_43  and  N12_45 
ROOT
HETATM    1  C2  UNL     1      -5.537  21.645  33.930  1.00  0.00     0.088 A 
HETATM    2  N1  UNL     1      -6.403  22.605  33.600  1.00  0.00    -0.334 N 
ATOM      3  H1  UNL     1      -6.040  23.555  33.524  1.00  0.00     0.168 HD
HETATM    4  C3  UNL     1      -7.691  22.428  33.364  1.00  0.00     0.139 A 
HETATM    5  N7  UNL     1      -8.189  21.149  33.466  1.00  0.00    -0.326 N 
ATOM      6  H7  UNL     1      -9.177  20.968  33.292  1.00  0.00     0.169 HD
HETATM    7  C13 UNL     1      -7.361  20.138  33.796  1.00  0.00     0.120 A 
HETATM    8  N8  UNL     1      -7.778  18.933  33.901  1.00  0.00    -0.367 N 
ATOM      9  H8  UNL     1      -7.088  18.224  34.153  1.00  0.00     0.161 HD
HETATM   10  C16 UNL     1      -6.009  20.356  34.038  1.00  0.00     0.086 A 
ENDROOT
BRANCH   4  11
HETATM   11  C4  UNL     1      -8.654  23.454  33.004  1.00  0.00     0.127 A 
HETATM   12  N2  UNL     1      -9.560  23.333  31.966  1.00  0.00    -0.273 N 
HETATM   13  N3  UNL     1     -10.299  24.410  31.875  1.00  0.00    -0.196 N 
ATOM     14  H2  UNL     1      -9.640  22.520  31.356  1.00  0.00     0.189 HD
HETATM   15  N5  UNL     1      -9.917  25.235  32.814  1.00  0.00    -0.272 N 
HETATM   16  C11 UNL     1      -8.881  24.674  33.550  1.00  0.00     0.147 A 
ATOM     17  H5  UNL     1     -10.320  26.157  32.981  1.00  0.00     0.189 HD
BRANCH  13  18
HETATM   18  C5  UNL     1     -11.353  24.682  30.931  1.00  0.00     0.075 A 
HETATM   19  C6  UNL     1     -12.482  23.913  30.901  1.00  0.00     0.035 A 
HETATM   20  C7  UNL     1     -13.484  24.197  29.981  1.00  0.00     0.027 A 
HETATM   21  C8  UNL     1     -13.328  25.249  29.109  1.00  0.00     0.079 A 
HETATM   22  C9  UNL     1     -12.198  26.049  29.111  1.00  0.00     0.027 A 
HETATM   23  C10 UNL     1     -11.229  25.732  30.042  1.00  0.00     0.035 A 
BRANCH  21  24
HETATM   24  S2  UNL     1     -14.580  25.642  27.925  1.00  0.00     0.256 S 
HETATM   25  O1  UNL     1     -15.793  24.798  28.207  1.00  0.00    -0.201 OA
HETATM   26  O2  UNL     1     -14.059  25.388  26.545  1.00  0.00    -0.201 OA
BRANCH  24  27
HETATM   27  N4  UNL     1     -14.928  27.326  28.128  1.00  0.00    -0.324 N 
ATOM     28  H42 UNL     1     -14.496  28.096  27.617  1.00  0.00     0.169 HD
ATOM     29  H41 UNL     1     -15.642  27.385  28.854  1.00  0.00     0.169 HD
ENDBRANCH  24  27
ENDBRANCH  21  24
ENDBRANCH  13  18
BRANCH  16  30
HETATM   30  C12 UNL     1      -8.237  25.329  34.658  1.00  0.00     0.285 C 
HETATM   31  N6  UNL     1      -6.785  25.386  34.641  1.00  0.00    -0.056 NA
HETATM   32  O3  UNL     1      -8.751  25.856  35.635  1.00  0.00    -0.269 OA
ENDBRANCH  16  30
ENDBRANCH   4  11
BRANCH   1  33
HETATM   33  S1  UNL     1      -3.834  22.022  34.218  1.00  0.00    -0.116 SA
HETATM   34  C1  UNL     1      -3.565  23.785  33.895  1.00  0.00     0.097 C 
ENDBRANCH   1  33
BRANCH  10  35
HETATM   35  C17 UNL     1      -5.144  19.236  34.393  1.00  0.00     0.130 C 
HETATM   36  N10 UNL     1      -4.949  19.030  35.663  1.00  0.00    -0.384 N 
ATOM     37 2H10 UNL     1      -5.394  19.641  36.349  1.00  0.00     0.157 HD
ATOM     38 1H10 UNL     1      -4.344  18.248  35.911  1.00  0.00     0.157 HD
BRANCH  35  39
HETATM   39  N11 UNL     1      -4.530  18.391  33.443  1.00  0.00    -0.292 N 
ATOM     40  H11 UNL     1      -3.530  18.471  33.254  1.00  0.00     0.188 HD
BRANCH  39  41
HETATM   41  N12 UNL     1      -5.300  17.448  32.768  1.00  0.00    -0.344 N 
ATOM     42 2H12 UNL     1      -6.254  17.685  32.495  1.00  0.00     0.176 HD
ATOM     43 1H12 UNL     1      -4.900  16.534  32.556  1.00  0.00     0.176 HD
ENDBRANCH  39  41
ENDBRANCH  35  39
ENDBRANCH  10  35
BRANCH   8  44
HETATM   44  C14 UNL     1      -9.124  18.488  33.698  1.00  0.00     0.220 C 
BRANCH  44  45
HETATM   45  C15 UNL     1      -9.892  18.553  34.979  1.00  0.00     0.248 C 
HETATM   46  N9  UNL     1      -9.940  17.407  35.813  1.00  0.00    -0.061 NA
HETATM   47  O4  UNL     1     -10.491  19.589  35.333  1.00  0.00    -0.275 OA
ENDBRANCH  44  45
ENDBRANCH   8  44
TORSDOF 11
ENDMDL
