MODEL 1
REMARK VINA RESULT: -9.507271402      0.000      0.000
REMARK  10 active torsions:
REMARK  status: ('A' for Active; 'I' for Inactive)
REMARK    1  A    between atoms: N1_2  and  C2_3 
REMARK    2  A    between atoms: N1_2  and  C16_37 
REMARK    3  A    between atoms: C4_9  and  N4_10 
REMARK    4  A    between atoms: N4_10  and  C5_12 
REMARK    5  A    between atoms: C8_15  and  O1_16 
REMARK    6  A    between atoms: O1_16  and  N5_17 
REMARK    7  A    between atoms: C9_19  and  C10_20 
REMARK    8  A    between atoms: C14_26  and  S1_27 
REMARK    9  A    between atoms: S1_27  and  N7_28 
REMARK   10  A    between atoms: C17_40  and  N10_41 
ROOT
HETATM    1  C2  UNL     1      -5.138  22.759  34.031  1.00  0.00     0.714 A 
HETATM    2  N2  UNL     1      -4.917  23.965  34.538  1.00  0.00    -0.186 N 
ATOM      3  H2  UNL     1      -4.116  24.089  35.157  1.00  0.00     0.185 HD
HETATM    4  C3  UNL     1      -5.683  25.019  34.281  1.00  0.00     0.215 A 
HETATM    5  N3  UNL     1      -6.748  24.872  33.465  1.00  0.00    -0.187 N 
ATOM      6  H3  UNL     1      -7.351  25.668  33.255  1.00  0.00     0.185 HD
HETATM    7  C4  UNL     1      -7.004  23.665  32.933  1.00  0.00     0.694 A 
HETATM    8  N8  UNL     1      -6.206  22.627  33.215  1.00  0.00    -0.021 N 
ATOM      9  H8  UNL     1      -6.410  21.716  32.805  1.00  0.00     0.203 HD
ENDROOT
BRANCH   7  10
HETATM   10  N4  UNL     1      -8.040  23.490  32.142  1.00  0.00    -0.214 N 
ATOM     11  H4  UNL     1      -7.958  23.645  31.137  1.00  0.00     0.178 HD
BRANCH  10  12
HETATM   12  C5  UNL     1      -9.283  23.080  32.714  1.00  0.00     0.172 C 
HETATM   13  C6  UNL     1     -10.266  22.828  31.587  1.00  0.00     0.036 C 
HETATM   14  C7  UNL     1     -10.771  24.189  31.188  1.00  0.00     0.045 C 
HETATM   15  C8  UNL     1     -10.499  25.122  32.353  1.00  0.00     0.223 C 
HETATM   16  C15 UNL     1      -9.898  24.257  33.369  1.00  0.00     0.181 C 
HETATM   17  O4  UNL     1      -9.892  24.453  34.567  1.00  0.00    -0.293 OA
BRANCH  15  18
HETATM   18  O1  UNL     1     -11.730  25.700  32.801  1.00  0.00    -0.268 OA
BRANCH  18  19
HETATM   19  N5  UNL     1     -11.710  26.882  33.460  1.00  0.00    -0.276 N 
HETATM   20  C9  UNL     1     -12.065  27.043  34.698  1.00  0.00     0.127 C 
ATOM     21  H5  UNL     1     -11.392  27.704  32.948  1.00  0.00     0.193 HD
BRANCH  20  22
HETATM   22  C10 UNL     1     -11.986  28.387  35.262  1.00  0.00     0.007 A 
HETATM   23  C11 UNL     1     -12.874  29.364  34.879  1.00  0.00     0.031 A 
HETATM   24  C12 UNL     1     -12.824  30.639  35.394  1.00  0.00     0.088 A 
HETATM   25  N6  UNL     1     -11.880  30.929  36.294  1.00  0.00    -0.374 N 
HETATM   26  C13 UNL     1     -10.988  30.014  36.703  1.00  0.00     0.113 A 
ATOM     27  H6  UNL     1     -11.835  31.872  36.680  1.00  0.00     0.164 HD
HETATM   28  C14 UNL     1     -11.023  28.713  36.192  1.00  0.00     0.106 A 
BRANCH  28  29
HETATM   29  S1  UNL     1      -9.862  27.512  36.725  1.00  0.00     0.259 S 
HETATM   30  O2  UNL     1     -10.619  26.294  37.183  1.00  0.00    -0.201 OA
HETATM   31  O3  UNL     1      -9.096  28.020  37.904  1.00  0.00    -0.201 OA
BRANCH  29  32
HETATM   32  N7  UNL     1      -8.784  27.046  35.481  1.00  0.00    -0.324 N 
ATOM     33  H72 UNL     1      -7.774  27.174  35.545  1.00  0.00     0.169 HD
ATOM     34  H71 UNL     1      -9.266  26.633  34.682  1.00  0.00     0.169 HD
ENDBRANCH  29  32
ENDBRANCH  28  29
ENDBRANCH  20  22
ENDBRANCH  18  19
ENDBRANCH  15  18
ENDBRANCH  10  12
ENDBRANCH   7  10
BRANCH   1  35
HETATM   35  N1  UNL     1      -4.306  21.676  34.340  1.00  0.00    -0.017 N 
HETATM   36  C1  UNL     1      -2.875  22.047  34.529  1.00  0.00     0.195 C 
BRANCH  35  37
HETATM   37  C16 UNL     1      -4.617  20.322  34.484  1.00  0.00     0.727 A 
HETATM   38  N9  UNL     1      -4.574  19.750  35.742  1.00  0.00    -0.021 N 
HETATM   39  C17 UNL     1      -4.839  18.489  36.001  1.00  0.00     0.705 A 
ATOM     40  H9  UNL     1      -4.319  20.350  36.526  1.00  0.00     0.203 HD
HETATM   41  N11 UNL     1      -5.176  17.684  34.985  1.00  0.00    -0.022 N 
HETATM   42  C18 UNL     1      -5.245  18.145  33.730  1.00  0.00     0.705 A 
ATOM     43  H11 UNL     1      -5.383  16.703  35.171  1.00  0.00     0.203 HD
HETATM   44  N12 UNL     1      -5.565  17.393  32.735  1.00  0.00    -0.234 N 
HETATM   45  N13 UNL     1      -4.958  19.471  33.516  1.00  0.00    -0.021 N 
ATOM     46 2H12 UNL     1      -5.779  16.408  32.893  1.00  0.00     0.174 HD
ATOM     47 1H12 UNL     1      -5.617  17.745  31.778  1.00  0.00     0.174 HD
ATOM     48  H13 UNL     1      -5.009  19.826  32.561  1.00  0.00     0.203 HD
BRANCH  39  49
HETATM   49  N10 UNL     1      -4.790  17.972  37.194  1.00  0.00    -0.234 N 
ATOM     50 2H10 UNL     1      -5.601  18.097  37.800  1.00  0.00     0.174 HD
ATOM     51 1H10 UNL     1      -3.991  17.449  37.552  1.00  0.00     0.174 HD
ENDBRANCH  39  49
ENDBRANCH  35  37
ENDBRANCH   1  35
TORSDOF 10
ENDMDL
MODEL 2
REMARK VINA RESULT: -9.476144230      2.483      5.548
REMARK  10 active torsions:
REMARK  status: ('A' for Active; 'I' for Inactive)
REMARK    1  A    between atoms: N1_2  and  C2_3 
REMARK    2  A    between atoms: N1_2  and  C16_37 
REMARK    3  A    between atoms: C4_9  and  N4_10 
REMARK    4  A    between atoms: N4_10  and  C5_12 
REMARK    5  A    between atoms: C8_15  and  O1_16 
REMARK    6  A    between atoms: O1_16  and  N5_17 
REMARK    7  A    between atoms: C9_19  and  C10_20 
REMARK    8  A    between atoms: C14_26  and  S1_27 
REMARK    9  A    between atoms: S1_27  and  N7_28 
REMARK   10  A    between atoms: C17_40  and  N10_41 
ROOT
HETATM    1  C2  UNL     1      -6.746  18.846  33.469  1.00  0.00     0.714 A 
HETATM    2  N2  UNL     1      -6.061  17.753  33.780  1.00  0.00    -0.186 N 
ATOM      3  H2  UNL     1      -6.443  16.849  33.504  1.00  0.00     0.185 HD
HETATM    4  C3  UNL     1      -4.904  17.775  34.432  1.00  0.00     0.215 A 
HETATM    5  N3  UNL     1      -4.384  18.963  34.805  1.00  0.00    -0.187 N 
ATOM      6  H3  UNL     1      -3.497  19.004  35.308  1.00  0.00     0.185 HD
HETATM    7  C4  UNL     1      -5.050  20.092  34.508  1.00  0.00     0.694 A 
HETATM    8  N8  UNL     1      -6.214  20.028  33.848  1.00  0.00    -0.021 N 
ATOM      9  H8  UNL     1      -6.710  20.890  33.628  1.00  0.00     0.203 HD
ENDROOT
BRANCH   7  10
HETATM   10  N4  UNL     1      -4.572  21.264  34.868  1.00  0.00    -0.214 N 
ATOM     11  H4  UNL     1      -4.469  21.500  35.855  1.00  0.00     0.178 HD
BRANCH  10  12
HETATM   12  C5  UNL     1      -4.201  22.198  33.854  1.00  0.00     0.172 C 
HETATM   13  C6  UNL     1      -3.645  23.437  34.529  1.00  0.00     0.036 C 
HETATM   14  C7  UNL     1      -4.850  24.225  34.969  1.00  0.00     0.045 C 
HETATM   15  C8  UNL     1      -6.024  23.737  34.142  1.00  0.00     0.223 C 
HETATM   16  C15 UNL     1      -5.440  22.736  33.248  1.00  0.00     0.181 C 
HETATM   17  O4  UNL     1      -5.883  22.386  32.174  1.00  0.00    -0.293 OA
BRANCH  15  18
HETATM   18  O1  UNL     1      -6.590  24.836  33.420  1.00  0.00    -0.268 OA
BRANCH  18  19
HETATM   19  N5  UNL     1      -7.458  25.667  34.043  1.00  0.00    -0.276 N 
HETATM   20  C9  UNL     1      -8.463  25.278  34.765  1.00  0.00     0.127 C 
ATOM     21  H5  UNL     1      -7.312  26.670  33.937  1.00  0.00     0.193 HD
BRANCH  20  22
HETATM   22  C10 UNL     1      -9.308  26.304  35.370  1.00  0.00     0.007 A 
HETATM   23  C11 UNL     1      -8.980  26.860  36.583  1.00  0.00     0.031 A 
HETATM   24  C12 UNL     1      -9.757  27.828  37.177  1.00  0.00     0.088 A 
HETATM   25  N6  UNL     1     -10.863  28.236  36.548  1.00  0.00    -0.374 N 
HETATM   26  C13 UNL     1     -11.230  27.727  35.362  1.00  0.00     0.113 A 
ATOM     27  H6  UNL     1     -11.444  28.953  36.981  1.00  0.00     0.164 HD
HETATM   28  C14 UNL     1     -10.454  26.742  34.742  1.00  0.00     0.106 A 
BRANCH  28  29
HETATM   29  S1  UNL     1     -10.927  26.076  33.191  1.00  0.00     0.259 S 
HETATM   30  O2  UNL     1     -11.317  24.637  33.394  1.00  0.00    -0.201 OA
HETATM   31  O3  UNL     1      -9.768  26.086  32.247  1.00  0.00    -0.201 OA
BRANCH  29  32
HETATM   32  N7  UNL     1     -12.254  26.907  32.500  1.00  0.00    -0.324 N 
ATOM     33  H72 UNL     1     -13.124  27.079  33.004  1.00  0.00     0.169 HD
ATOM     34  H71 UNL     1     -12.072  27.204  31.542  1.00  0.00     0.169 HD
ENDBRANCH  29  32
ENDBRANCH  28  29
ENDBRANCH  20  22
ENDBRANCH  18  19
ENDBRANCH  15  18
ENDBRANCH  10  12
ENDBRANCH   7  10
BRANCH   1  35
HETATM   35  N1  UNL     1      -7.968  18.770  32.790  1.00  0.00    -0.017 N 
HETATM   36  C1  UNL     1      -8.453  17.378  32.573  1.00  0.00     0.195 C 
BRANCH  35  37
HETATM   37  C16 UNL     1      -8.777  19.791  32.287  1.00  0.00     0.727 A 
HETATM   38  N9  UNL     1     -10.003  19.471  31.734  1.00  0.00    -0.021 N 
HETATM   39  C17 UNL     1     -10.846  20.340  31.225  1.00  0.00     0.705 A 
ATOM     40  H9  UNL     1     -10.273  18.487  31.720  1.00  0.00     0.203 HD
HETATM   41  N11 UNL     1     -10.510  21.637  31.232  1.00  0.00    -0.022 N 
HETATM   42  C18 UNL     1      -9.343  22.046  31.746  1.00  0.00     0.705 A 
ATOM     43  H11 UNL     1     -11.154  22.324  30.840  1.00  0.00     0.203 HD
HETATM   44  N12 UNL     1      -8.995  23.287  31.765  1.00  0.00    -0.234 N 
HETATM   45  N13 UNL     1      -8.500  21.095  32.265  1.00  0.00    -0.021 N 
ATOM     46 2H12 UNL     1      -9.621  23.994  31.380  1.00  0.00     0.174 HD
ATOM     47 1H12 UNL     1      -8.106  23.598  32.157  1.00  0.00     0.174 HD
ATOM     48  H13 UNL     1      -7.610  21.404  32.656  1.00  0.00     0.203 HD
BRANCH  39  49
HETATM   49  N10 UNL     1     -11.995  20.015  30.708  1.00  0.00    -0.234 N 
ATOM     50 2H10 UNL     1     -11.991  19.510  29.822  1.00  0.00     0.174 HD
ATOM     51 1H10 UNL     1     -12.892  20.234  31.140  1.00  0.00     0.174 HD
ENDBRANCH  39  49
ENDBRANCH  35  37
ENDBRANCH   1  35
TORSDOF 10
ENDMDL
MODEL 3
REMARK VINA RESULT: -9.370244202      2.862      5.274
REMARK  10 active torsions:
REMARK  status: ('A' for Active; 'I' for Inactive)
REMARK    1  A    between atoms: N1_2  and  C2_3 
REMARK    2  A    between atoms: N1_2  and  C16_37 
REMARK    3  A    between atoms: C4_9  and  N4_10 
REMARK    4  A    between atoms: N4_10  and  C5_12 
REMARK    5  A    between atoms: C8_15  and  O1_16 
REMARK    6  A    between atoms: O1_16  and  N5_17 
REMARK    7  A    between atoms: C9_19  and  C10_20 
REMARK    8  A    between atoms: C14_26  and  S1_27 
REMARK    9  A    between atoms: S1_27  and  N7_28 
REMARK   10  A    between atoms: C17_40  and  N10_41 
ROOT
HETATM    1  C2  UNL     1      -5.322  19.091  35.169  1.00  0.00     0.714 A 
HETATM    2  N2  UNL     1      -4.501  18.397  35.945  1.00  0.00    -0.186 N 
ATOM      3  H2  UNL     1      -4.764  17.444  36.198  1.00  0.00     0.185 HD
HETATM    4  C3  UNL     1      -3.353  18.876  36.410  1.00  0.00     0.215 A 
HETATM    5  N3  UNL     1      -2.989  20.135  36.087  1.00  0.00    -0.187 N 
ATOM      6  H3  UNL     1      -2.112  20.524  36.434  1.00  0.00     0.185 HD
HETATM    7  C4  UNL     1      -3.797  20.869  35.303  1.00  0.00     0.694 A 
HETATM    8  N8  UNL     1      -4.946  20.349  34.853  1.00  0.00    -0.021 N 
ATOM      9  H8  UNL     1      -5.551  20.915  34.259  1.00  0.00     0.203 HD
ENDROOT
BRANCH   7  10
HETATM   10  N4  UNL     1      -3.473  22.103  34.980  1.00  0.00    -0.214 N 
ATOM     11  H4  UNL     1      -2.879  22.661  35.593  1.00  0.00     0.178 HD
BRANCH  10  12
HETATM   12  C5  UNL     1      -3.968  22.647  33.756  1.00  0.00     0.172 C 
HETATM   13  C6  UNL     1      -3.156  23.884  33.422  1.00  0.00     0.036 C 
HETATM   14  C7  UNL     1      -3.735  24.982  34.274  1.00  0.00     0.045 C 
HETATM   15  C8  UNL     1      -5.127  24.537  34.682  1.00  0.00     0.223 C 
HETATM   16  C15 UNL     1      -5.297  23.243  34.021  1.00  0.00     0.181 C 
HETATM   17  O4  UNL     1      -6.352  22.719  33.726  1.00  0.00    -0.293 OA
BRANCH  15  18
HETATM   18  O1  UNL     1      -6.088  25.499  34.232  1.00  0.00    -0.268 OA
BRANCH  18  19
HETATM   19  N5  UNL     1      -7.224  25.689  34.944  1.00  0.00    -0.276 N 
HETATM   20  C9  UNL     1      -8.419  25.434  34.509  1.00  0.00     0.127 C 
ATOM     21  H5  UNL     1      -7.133  26.059  35.890  1.00  0.00     0.193 HD
BRANCH  20  22
HETATM   22  C10 UNL     1      -9.543  25.697  35.403  1.00  0.00     0.007 A 
HETATM   23  C11 UNL     1      -9.430  26.610  36.424  1.00  0.00     0.031 A 
HETATM   24  C12 UNL     1     -10.471  26.879  37.282  1.00  0.00     0.088 A 
HETATM   25  N6  UNL     1     -11.626  26.227  37.111  1.00  0.00    -0.374 N 
HETATM   26  C13 UNL     1     -11.790  25.326  36.131  1.00  0.00     0.113 A 
ATOM     27  H6  UNL     1     -12.403  26.420  37.743  1.00  0.00     0.164 HD
HETATM   28  C14 UNL     1     -10.744  25.040  35.249  1.00  0.00     0.106 A 
BRANCH  28  29
HETATM   29  S1  UNL     1     -10.955  23.865  33.964  1.00  0.00     0.259 S 
HETATM   30  O2  UNL     1     -12.088  22.950  34.343  1.00  0.00    -0.201 OA
HETATM   31  O3  UNL     1      -9.732  23.016  33.832  1.00  0.00    -0.201 OA
BRANCH  29  32
HETATM   32  N7  UNL     1     -11.326  24.598  32.463  1.00  0.00    -0.324 N 
ATOM     33  H72 UNL     1     -11.026  25.541  32.217  1.00  0.00     0.169 HD
ATOM     34  H71 UNL     1     -11.873  23.987  31.856  1.00  0.00     0.169 HD
ENDBRANCH  29  32
ENDBRANCH  28  29
ENDBRANCH  20  22
ENDBRANCH  18  19
ENDBRANCH  15  18
ENDBRANCH  10  12
ENDBRANCH   7  10
BRANCH   1  35
HETATM   35  N1  UNL     1      -6.528  18.544  34.713  1.00  0.00    -0.017 N 
HETATM   36  C1  UNL     1      -6.679  17.090  35.000  1.00  0.00     0.195 C 
BRANCH  35  37
HETATM   37  C16 UNL     1      -7.585  19.152  34.030  1.00  0.00     0.727 A 
HETATM   38  N9  UNL     1      -7.360  19.683  32.774  1.00  0.00    -0.021 N 
HETATM   39  C17 UNL     1      -8.271  20.282  32.040  1.00  0.00     0.705 A 
ATOM     40  H9  UNL     1      -6.419  19.604  32.388  1.00  0.00     0.203 HD
HETATM   41  N11 UNL     1      -9.513  20.396  32.529  1.00  0.00    -0.022 N 
HETATM   42  C18 UNL     1      -9.828  19.913  33.737  1.00  0.00     0.705 A 
ATOM     43  H11 UNL     1     -10.230  20.859  31.971  1.00  0.00     0.203 HD
HETATM   44  N12 UNL     1     -11.014  20.010  34.231  1.00  0.00    -0.234 N 
HETATM   45  N13 UNL     1      -8.837  19.296  34.461  1.00  0.00    -0.021 N 
ATOM     46 2H12 UNL     1     -11.750  20.467  33.693  1.00  0.00     0.174 HD
ATOM     47 1H12 UNL     1     -11.254  19.642  35.152  1.00  0.00     0.174 HD
ATOM     48  H13 UNL     1      -9.074  18.928  35.382  1.00  0.00     0.203 HD
BRANCH  39  49
HETATM   49  N10 UNL     1      -8.036  20.776  30.860  1.00  0.00    -0.234 N 
ATOM     50 2H10 UNL     1      -7.063  20.859  30.564  1.00  0.00     0.174 HD
ATOM     51 1H10 UNL     1      -8.767  21.080  30.217  1.00  0.00     0.174 HD
ENDBRANCH  39  49
ENDBRANCH  35  37
ENDBRANCH   1  35
TORSDOF 10
ENDMDL
MODEL 4
REMARK VINA RESULT: -9.353543856      2.894      5.191
REMARK  10 active torsions:
REMARK  status: ('A' for Active; 'I' for Inactive)
REMARK    1  A    between atoms: N1_2  and  C2_3 
REMARK    2  A    between atoms: N1_2  and  C16_37 
REMARK    3  A    between atoms: C4_9  and  N4_10 
REMARK    4  A    between atoms: N4_10  and  C5_12 
REMARK    5  A    between atoms: C8_15  and  O1_16 
REMARK    6  A    between atoms: O1_16  and  N5_17 
REMARK    7  A    between atoms: C9_19  and  C10_20 
REMARK    8  A    between atoms: C14_26  and  S1_27 
REMARK    9  A    between atoms: S1_27  and  N7_28 
REMARK   10  A    between atoms: C17_40  and  N10_41 
ROOT
HETATM    1  C2  UNL     1      -5.195  19.091  35.207  1.00  0.00     0.714 A 
HETATM    2  N2  UNL     1      -4.363  18.402  35.977  1.00  0.00    -0.186 N 
ATOM      3  H2  UNL     1      -4.613  17.444  36.223  1.00  0.00     0.185 HD
HETATM    4  C3  UNL     1      -3.221  18.894  36.444  1.00  0.00     0.215 A 
HETATM    5  N3  UNL     1      -2.875  20.160  36.129  1.00  0.00    -0.187 N 
ATOM      6  H3  UNL     1      -2.003  20.559  36.477  1.00  0.00     0.185 HD
HETATM    7  C4  UNL     1      -3.694  20.889  35.351  1.00  0.00     0.694 A 
HETATM    8  N8  UNL     1      -4.837  20.356  34.899  1.00  0.00    -0.021 N 
ATOM      9  H8  UNL     1      -5.450  20.917  34.309  1.00  0.00     0.203 HD
ENDROOT
BRANCH   7  10
HETATM   10  N4  UNL     1      -3.388  22.129  35.036  1.00  0.00    -0.214 N 
ATOM     11  H4  UNL     1      -2.825  22.700  35.667  1.00  0.00     0.178 HD
BRANCH  10  12
HETATM   12  C5  UNL     1      -3.856  22.661  33.797  1.00  0.00     0.172 C 
HETATM   13  C6  UNL     1      -3.070  23.922  33.492  1.00  0.00     0.036 C 
HETATM   14  C7  UNL     1      -3.710  25.001  34.325  1.00  0.00     0.045 C 
HETATM   15  C8  UNL     1      -5.101  24.515  34.686  1.00  0.00     0.223 C 
HETATM   16  C15 UNL     1      -5.211  23.217  34.018  1.00  0.00     0.181 C 
HETATM   17  O4  UNL     1      -6.239  22.664  33.687  1.00  0.00    -0.293 OA
BRANCH  15  18
HETATM   18  O1  UNL     1      -6.074  25.449  34.205  1.00  0.00    -0.268 OA
BRANCH  18  19
HETATM   19  N5  UNL     1      -7.220  25.635  34.901  1.00  0.00    -0.276 N 
HETATM   20  C9  UNL     1      -8.407  25.357  34.456  1.00  0.00     0.127 C 
ATOM     21  H5  UNL     1      -7.146  26.020  35.842  1.00  0.00     0.193 HD
BRANCH  20  22
HETATM   22  C10 UNL     1      -9.544  25.618  35.334  1.00  0.00     0.007 A 
HETATM   23  C11 UNL     1      -9.455  26.547  36.343  1.00  0.00     0.031 A 
HETATM   24  C12 UNL     1     -10.510  26.814  37.185  1.00  0.00     0.088 A 
HETATM   25  N6  UNL     1     -11.654  26.146  37.010  1.00  0.00    -0.374 N 
HETATM   26  C13 UNL     1     -11.796  25.229  36.040  1.00  0.00     0.113 A 
ATOM     27  H6  UNL     1     -12.440  26.338  37.629  1.00  0.00     0.164 HD
HETATM   28  C14 UNL     1     -10.735  24.943  35.175  1.00  0.00     0.106 A 
BRANCH  28  29
HETATM   29  S1  UNL     1     -10.916  23.748  33.905  1.00  0.00     0.259 S 
HETATM   30  O2  UNL     1     -12.017  22.802  34.301  1.00  0.00    -0.201 OA
HETATM   31  O3  UNL     1      -9.667  22.937  33.774  1.00  0.00    -0.201 OA
BRANCH  29  32
HETATM   32  N7  UNL     1     -11.320  24.452  32.398  1.00  0.00    -0.324 N 
ATOM     33  H72 UNL     1     -12.121  25.069  32.271  1.00  0.00     0.169 HD
ATOM     34  H71 UNL     1     -10.673  24.183  31.657  1.00  0.00     0.169 HD
ENDBRANCH  29  32
ENDBRANCH  28  29
ENDBRANCH  20  22
ENDBRANCH  18  19
ENDBRANCH  15  18
ENDBRANCH  10  12
ENDBRANCH   7  10
BRANCH   1  35
HETATM   35  N1  UNL     1      -6.394  18.531  34.748  1.00  0.00    -0.017 N 
HETATM   36  C1  UNL     1      -6.576  17.101  35.125  1.00  0.00     0.195 C 
BRANCH  35  37
HETATM   37  C16 UNL     1      -7.419  19.105  33.993  1.00  0.00     0.727 A 
HETATM   38  N9  UNL     1      -8.670  19.261  34.561  1.00  0.00    -0.021 N 
HETATM   39  C17 UNL     1      -9.711  19.781  33.950  1.00  0.00     0.705 A 
ATOM     40  H9  UNL     1      -8.794  18.950  35.524  1.00  0.00     0.203 HD
HETATM   41  N11 UNL     1      -9.569  20.195  32.684  1.00  0.00    -0.022 N 
HETATM   42  C18 UNL     1      -8.396  20.086  32.048  1.00  0.00     0.705 A 
ATOM     43  H11 UNL     1     -10.368  20.599  32.197  1.00  0.00     0.203 HD
HETATM   44  N12 UNL     1      -8.232  20.476  30.831  1.00  0.00    -0.234 N 
HETATM   45  N13 UNL     1      -7.341  19.535  32.734  1.00  0.00    -0.021 N 
ATOM     46 2H12 UNL     1      -9.015  20.885  30.321  1.00  0.00     0.174 HD
ATOM     47 1H12 UNL     1      -7.338  20.393  30.346  1.00  0.00     0.174 HD
ATOM     48  H13 UNL     1      -6.446  19.451  32.251  1.00  0.00     0.203 HD
BRANCH  39  49
HETATM   49  N10 UNL     1     -10.880  19.915  34.504  1.00  0.00    -0.234 N 
ATOM     50 2H10 UNL     1     -11.007  19.537  35.443  1.00  0.00     0.174 HD
ATOM     51 1H10 UNL     1     -11.669  20.379  34.055  1.00  0.00     0.174 HD
ENDBRANCH  39  49
ENDBRANCH  35  37
ENDBRANCH   1  35
TORSDOF 10
ENDMDL
MODEL 5
REMARK VINA RESULT: -9.217023434      2.602      4.947
REMARK  10 active torsions:
REMARK  status: ('A' for Active; 'I' for Inactive)
REMARK    1  A    between atoms: N1_2  and  C2_3 
REMARK    2  A    between atoms: N1_2  and  C16_37 
REMARK    3  A    between atoms: C4_9  and  N4_10 
REMARK    4  A    between atoms: N4_10  and  C5_12 
REMARK    5  A    between atoms: C8_15  and  O1_16 
REMARK    6  A    between atoms: O1_16  and  N5_17 
REMARK    7  A    between atoms: C9_19  and  C10_20 
REMARK    8  A    between atoms: C14_26  and  S1_27 
REMARK    9  A    between atoms: S1_27  and  N7_28 
REMARK   10  A    between atoms: C17_40  and  N10_41 
ROOT
HETATM    1  C2  UNL     1      -5.197  18.967  35.178  1.00  0.00     0.714 A 
HETATM    2  N2  UNL     1      -4.312  18.323  35.927  1.00  0.00    -0.186 N 
ATOM      3  H2  UNL     1      -4.498  17.348  36.164  1.00  0.00     0.185 HD
HETATM    4  C3  UNL     1      -3.197  18.880  36.385  1.00  0.00     0.215 A 
HETATM    5  N3  UNL     1      -2.935  20.169  36.083  1.00  0.00    -0.187 N 
ATOM      6  H3  UNL     1      -2.085  20.617  36.425  1.00  0.00     0.185 HD
HETATM    7  C4  UNL     1      -3.810  20.854  35.326  1.00  0.00     0.694 A 
HETATM    8  N8  UNL     1      -4.923  20.256  34.883  1.00  0.00    -0.021 N 
ATOM      9  H8  UNL     1      -5.578  20.786  34.309  1.00  0.00     0.203 HD
ENDROOT
BRANCH   7  10
HETATM   10  N4  UNL     1      -3.586  22.115  35.024  1.00  0.00    -0.214 N 
ATOM     11  H4  UNL     1      -3.034  22.707  35.645  1.00  0.00     0.178 HD
BRANCH  10  12
HETATM   12  C5  UNL     1      -4.129  22.640  33.812  1.00  0.00     0.172 C 
HETATM   13  C6  UNL     1      -3.324  23.864  33.420  1.00  0.00     0.036 C 
HETATM   14  C7  UNL     1      -3.857  24.982  34.275  1.00  0.00     0.045 C 
HETATM   15  C8  UNL     1      -5.234  24.557  34.752  1.00  0.00     0.223 C 
HETATM   16  C15 UNL     1      -5.441  23.252  34.123  1.00  0.00     0.181 C 
HETATM   17  O4  UNL     1      -6.512  22.731  33.885  1.00  0.00    -0.293 OA
BRANCH  15  18
HETATM   18  O1  UNL     1      -6.206  25.518  34.325  1.00  0.00    -0.268 OA
BRANCH  18  19
HETATM   19  N5  UNL     1      -7.518  25.289  34.566  1.00  0.00    -0.276 N 
HETATM   20  C9  UNL     1      -8.275  26.040  35.306  1.00  0.00     0.127 C 
ATOM     21  H5  UNL     1      -7.943  24.469  34.134  1.00  0.00     0.193 HD
BRANCH  20  22
HETATM   22  C10 UNL     1      -9.673  25.653  35.467  1.00  0.00     0.007 A 
HETATM   23  C11 UNL     1     -10.194  24.589  34.769  1.00  0.00     0.031 A 
HETATM   24  C12 UNL     1     -11.507  24.202  34.900  1.00  0.00     0.088 A 
HETATM   25  N6  UNL     1     -12.296  24.887  35.734  1.00  0.00    -0.374 N 
HETATM   26  C13 UNL     1     -11.840  25.933  36.439  1.00  0.00     0.113 A 
ATOM     27  H6  UNL     1     -13.271  24.607  35.837  1.00  0.00     0.164 HD
HETATM   28  C14 UNL     1     -10.508  26.342  36.319  1.00  0.00     0.106 A 
BRANCH  28  29
HETATM   29  S1  UNL     1      -9.907  27.707  37.241  1.00  0.00     0.259 S 
HETATM   30  O2  UNL     1      -9.959  28.929  36.363  1.00  0.00    -0.201 OA
HETATM   31  O3  UNL     1      -8.474  27.493  37.609  1.00  0.00    -0.201 OA
BRANCH  29  32
HETATM   32  N7  UNL     1     -10.836  28.008  38.646  1.00  0.00    -0.324 N 
ATOM     33  H72 UNL     1     -11.275  28.907  38.839  1.00  0.00     0.169 HD
ATOM     34  H71 UNL     1     -10.894  27.192  39.256  1.00  0.00     0.169 HD
ENDBRANCH  29  32
ENDBRANCH  28  29
ENDBRANCH  20  22
ENDBRANCH  18  19
ENDBRANCH  15  18
ENDBRANCH  10  12
ENDBRANCH   7  10
BRANCH   1  35
HETATM   35  N1  UNL     1      -6.364  18.339  34.728  1.00  0.00    -0.017 N 
HETATM   36  C1  UNL     1      -6.594  16.993  35.325  1.00  0.00     0.195 C 
BRANCH  35  37
HETATM   37  C16 UNL     1      -7.321  18.779  33.810  1.00  0.00     0.727 A 
HETATM   38  N9  UNL     1      -8.376  19.553  34.254  1.00  0.00    -0.021 N 
HETATM   39  C17 UNL     1      -9.338  20.020  33.489  1.00  0.00     0.705 A 
ATOM     40  H9  UNL     1      -8.412  19.780  35.248  1.00  0.00     0.203 HD
HETATM   41  N11 UNL     1      -9.310  19.733  32.180  1.00  0.00    -0.022 N 
HETATM   42  C18 UNL     1      -8.328  18.990  31.656  1.00  0.00     0.705 A 
ATOM     43  H11 UNL     1     -10.050  20.087  31.574  1.00  0.00     0.203 HD
HETATM   44  N12 UNL     1      -8.277  18.699  30.402  1.00  0.00    -0.234 N 
HETATM   45  N13 UNL     1      -7.349  18.529  32.501  1.00  0.00    -0.021 N 
ATOM     46 2H12 UNL     1      -9.004  19.042  29.773  1.00  0.00     0.174 HD
ATOM     47 1H12 UNL     1      -7.529  18.132  30.002  1.00  0.00     0.174 HD
ATOM     48  H13 UNL     1      -6.599  17.961  32.104  1.00  0.00     0.203 HD
BRANCH  39  49
HETATM   49  N10 UNL     1     -10.323  20.745  33.930  1.00  0.00    -0.234 N 
ATOM     50 2H10 UNL     1     -11.046  20.282  34.479  1.00  0.00     0.174 HD
ATOM     51 1H10 UNL     1     -10.408  21.747  33.759  1.00  0.00     0.174 HD
ENDBRANCH  39  49
ENDBRANCH  35  37
ENDBRANCH   1  35
TORSDOF 10
ENDMDL
