MODEL 1
REMARK VINA RESULT: -10.124339508      0.000      0.000
REMARK  9 active torsions:
REMARK  status: ('A' for Active; 'I' for Inactive)
REMARK    1  A    between atoms: N1_1  and  C1_4 
REMARK    2  A    between atoms: C6_12  and  C7_13 
REMARK    3  A    between atoms: C7_13  and  C8_14 
REMARK    4  A    between atoms: C8_14  and  C9_16 
REMARK       I    between atoms: C9_16  and  N3_18 
REMARK    5  A    between atoms: C12_21  and  N4_22 
REMARK    6  A    between atoms: N4_22  and  C13_25 
REMARK    7  A    between atoms: C13_25  and  C14_26 
REMARK    8  A    between atoms: N8_33  and  C15_34 
REMARK    9  A    between atoms: C16_40  and  N11_41 
ROOT
HETATM    1  C9  UNL     1      -9.085  23.184  32.248  1.00  0.00     0.297 C 
HETATM    2  O3  UNL     1      -9.484  22.269  31.462  1.00  0.00    -0.264 OA
HETATM    3  N3  UNL     1      -7.719  23.352  32.476  1.00  0.00    -0.263 N 
HETATM    4  C10 UNL     1      -7.205  24.357  33.366  1.00  0.00     0.141 C 
HETATM    5  C11 UNL     1      -5.719  24.454  33.447  1.00  0.00     0.075 C 
HETATM    6  C12 UNL     1      -4.964  23.179  33.205  1.00  0.00     0.289 C 
HETATM    7  N12 UNL     1      -5.397  22.648  31.931  1.00  0.00    -0.314 N 
ATOM      8  H12 UNL     1      -4.735  22.411  31.192  1.00  0.00     0.166 HD
HETATM    9  C17 UNL     1      -6.798  22.474  31.771  1.00  0.00     0.327 C 
HETATM   10  O5  UNL     1      -7.291  21.590  31.042  1.00  0.00    -0.247 OA
ENDROOT
BRANCH   6  11
HETATM   11  N4  UNL     1      -5.218  22.173  34.207  1.00  0.00    -0.047 N 
ATOM     12  H42 UNL     1      -5.077  22.544  35.146  1.00  0.00     0.280 HD
ATOM     13  H41 UNL     1      -6.212  21.954  34.266  1.00  0.00     0.280 HD
BRANCH  11  14
HETATM   14  C13 UNL     1      -4.437  20.986  33.998  1.00  0.00     0.314 C 
BRANCH  14  15
HETATM   15  C14 UNL     1      -4.577  19.953  35.024  1.00  0.00     0.148 A 
HETATM   16  N5  UNL     1      -3.831  19.622  36.074  1.00  0.00    -0.270 N 
HETATM   17  N6  UNL     1      -4.379  18.605  36.707  1.00  0.00    -0.226 N 
ATOM     18  H5  UNL     1      -2.965  20.086  36.348  1.00  0.00     0.190 HD
HETATM   19  N7  UNL     1      -5.474  18.282  36.066  1.00  0.00    -0.218 N 
ATOM     20  H6  UNL     1      -4.015  18.151  37.545  1.00  0.00     0.210 HD
HETATM   21  N8  UNL     1      -5.626  19.074  35.045  1.00  0.00    -0.203 N 
ATOM     22  H7  UNL     1      -6.109  17.527  36.327  1.00  0.00     0.210 HD
BRANCH  21  23
HETATM   23  C15 UNL     1      -6.690  19.050  34.102  1.00  0.00     0.197 A 
HETATM   24  N9  UNL     1      -7.843  19.752  34.070  1.00  0.00    -0.220 N 
HETATM   25  O4  UNL     1      -8.521  19.400  33.013  1.00  0.00    -0.153 OA
ATOM     26  H9  UNL     1      -8.136  20.444  34.760  1.00  0.00     0.198 HD
HETATM   27  N10 UNL     1      -7.893  18.499  32.328  1.00  0.00    -0.222 N 
HETATM   28  C16 UNL     1      -6.745  18.255  32.978  1.00  0.00     0.169 A 
ATOM     29  H10 UNL     1      -8.209  18.060  31.463  1.00  0.00     0.198 HD
BRANCH  28  30
HETATM   30  N11 UNL     1      -5.832  17.410  32.613  1.00  0.00    -0.381 N 
ATOM     31 2H11 UNL     1      -5.542  16.583  33.135  1.00  0.00     0.157 HD
ATOM     32 1H11 UNL     1      -5.286  17.467  31.753  1.00  0.00     0.157 HD
ENDBRANCH  28  30
ENDBRANCH  21  23
ENDBRANCH  14  15
ENDBRANCH  11  14
ENDBRANCH   6  11
BRANCH   1  33
HETATM   33  C8  UNL     1     -10.108  23.991  32.852  1.00  0.00     0.221 C 
HETATM   34  O2  UNL     1     -10.511  25.037  32.291  1.00  0.00    -0.287 OA
BRANCH  33  35
HETATM   35  C7  UNL     1     -10.733  23.618  34.167  1.00  0.00     0.127 C 
BRANCH  35  36
HETATM   36  C6  UNL     1     -10.581  24.756  35.095  1.00  0.00    -0.049 A 
HETATM   37  C5  UNL     1      -9.358  25.324  35.378  1.00  0.00     0.009 A 
HETATM   38  C4  UNL     1      -9.269  26.367  36.246  1.00  0.00     0.020 A 
HETATM   39  C3  UNL     1     -10.433  26.857  36.846  1.00  0.00     0.060 A 
HETATM   40  C2  UNL     1     -10.408  27.906  37.729  1.00  0.00     0.272 A 
HETATM   41  C19 UNL     1     -11.664  26.275  36.551  1.00  0.00     0.065 A 
HETATM   42  N2  UNL     1     -11.512  28.398  38.323  1.00  0.00    -0.156 N 
HETATM   43  O1  UNL     1      -9.292  28.432  37.995  1.00  0.00    -0.267 OA
HETATM   44  C1  UNL     1     -12.685  27.812  38.014  1.00  0.00     0.679 A 
ATOM     45  H2  UNL     1     -11.463  29.180  38.977  1.00  0.00     0.187 HD
HETATM   46  N13 UNL     1     -12.759  26.784  37.157  1.00  0.00    -0.191 N 
ATOM     47  H13 UNL     1     -13.671  26.373  36.956  1.00  0.00     0.184 HD
HETATM   48  C18 UNL     1     -11.758  25.220  35.675  1.00  0.00     0.038 A 
BRANCH  44  49
HETATM   49  N1  UNL     1     -13.765  28.278  38.584  1.00  0.00    -0.234 N 
ATOM     50  H12 UNL     1     -13.706  29.045  39.254  1.00  0.00     0.174 HD
ATOM     51  H11 UNL     1     -14.656  27.850  38.331  1.00  0.00     0.174 HD
ENDBRANCH  44  49
ENDBRANCH  35  36
ENDBRANCH  33  35
ENDBRANCH   1  33
TORSDOF 9
ENDMDL
MODEL 2
REMARK VINA RESULT: -10.073490154      1.607      2.180
REMARK  9 active torsions:
REMARK  status: ('A' for Active; 'I' for Inactive)
REMARK    1  A    between atoms: N1_1  and  C1_4 
REMARK    2  A    between atoms: C6_12  and  C7_13 
REMARK    3  A    between atoms: C7_13  and  C8_14 
REMARK    4  A    between atoms: C8_14  and  C9_16 
REMARK       I    between atoms: C9_16  and  N3_18 
REMARK    5  A    between atoms: C12_21  and  N4_22 
REMARK    6  A    between atoms: N4_22  and  C13_25 
REMARK    7  A    between atoms: C13_25  and  C14_26 
REMARK    8  A    between atoms: N8_33  and  C15_34 
REMARK    9  A    between atoms: C16_40  and  N11_41 
ROOT
HETATM    1  C9  UNL     1      -9.843  22.987  31.955  1.00  0.00     0.297 C 
HETATM    2  O3  UNL     1     -10.482  22.146  31.249  1.00  0.00    -0.264 OA
HETATM    3  N3  UNL     1      -8.475  22.810  32.170  1.00  0.00    -0.263 N 
HETATM    4  C10 UNL     1      -7.700  23.716  32.972  1.00  0.00     0.141 C 
HETATM    5  C11 UNL     1      -6.238  23.427  33.049  1.00  0.00     0.075 C 
HETATM    6  C12 UNL     1      -5.848  21.983  32.919  1.00  0.00     0.289 C 
HETATM    7  N12 UNL     1      -6.429  21.479  31.694  1.00  0.00    -0.314 N 
ATOM      8  H12 UNL     1      -5.867  21.016  30.979  1.00  0.00     0.166 HD
HETATM    9  C17 UNL     1      -7.830  21.666  31.547  1.00  0.00     0.327 C 
HETATM   10  O5  UNL     1      -8.552  20.883  30.894  1.00  0.00    -0.247 OA
ENDROOT
BRANCH   6  11
HETATM   11  N4  UNL     1      -6.335  21.166  34.003  1.00  0.00    -0.047 N 
ATOM     12  H42 UNL     1      -6.465  21.718  34.851  1.00  0.00     0.280 HD
ATOM     13  H41 UNL     1      -7.300  20.881  33.844  1.00  0.00     0.280 HD
BRANCH  11  14
HETATM   14  C13 UNL     1      -5.493  20.029  34.250  1.00  0.00     0.314 C 
BRANCH  14  15
HETATM   15  C14 UNL     1      -4.253  20.310  34.973  1.00  0.00     0.148 A 
HETATM   16  N5  UNL     1      -3.362  21.294  34.883  1.00  0.00    -0.270 N 
HETATM   17  N6  UNL     1      -2.399  21.106  35.761  1.00  0.00    -0.226 N 
ATOM     18  H5  UNL     1      -3.418  22.076  34.231  1.00  0.00     0.190 HD
HETATM   19  N7  UNL     1      -2.669  20.003  36.416  1.00  0.00    -0.218 N 
ATOM     20  H6  UNL     1      -1.589  21.709  35.905  1.00  0.00     0.210 HD
HETATM   21  N8  UNL     1      -3.780  19.497  35.967  1.00  0.00    -0.203 N 
ATOM     22  H7  UNL     1      -2.097  19.605  37.160  1.00  0.00     0.210 HD
BRANCH  21  23
HETATM   23  C15 UNL     1      -4.413  18.306  36.418  1.00  0.00     0.197 A 
HETATM   24  N9  UNL     1      -5.042  18.039  37.582  1.00  0.00    -0.220 N 
HETATM   25  O4  UNL     1      -5.472  16.808  37.558  1.00  0.00    -0.153 OA
ATOM     26  H9  UNL     1      -5.161  18.694  38.356  1.00  0.00     0.198 HD
HETATM   27  N10 UNL     1      -5.168  16.226  36.442  1.00  0.00    -0.222 N 
HETATM   28  C16 UNL     1      -4.506  17.130  35.705  1.00  0.00     0.169 A 
ATOM     29  H10 UNL     1      -5.389  15.266  36.175  1.00  0.00     0.198 HD
BRANCH  28  30
HETATM   30  N11 UNL     1      -4.030  16.937  34.515  1.00  0.00    -0.381 N 
ATOM     31 2H11 UNL     1      -3.903  17.652  33.799  1.00  0.00     0.157 HD
ATOM     32 1H11 UNL     1      -3.721  16.038  34.143  1.00  0.00     0.157 HD
ENDBRANCH  28  30
ENDBRANCH  21  23
ENDBRANCH  14  15
ENDBRANCH  11  14
ENDBRANCH   6  11
BRANCH   1  33
HETATM   33  C8  UNL     1     -10.607  24.081  32.485  1.00  0.00     0.221 C 
HETATM   34  O2  UNL     1     -10.585  25.204  31.928  1.00  0.00    -0.287 OA
BRANCH  33  35
HETATM   35  C7  UNL     1     -11.458  23.926  33.713  1.00  0.00     0.127 C 
BRANCH  35  36
HETATM   36  C6  UNL     1     -11.010  24.911  34.718  1.00  0.00    -0.049 A 
HETATM   37  C5  UNL     1      -9.681  25.107  35.023  1.00  0.00     0.009 A 
HETATM   38  C4  UNL     1      -9.319  26.022  35.962  1.00  0.00     0.020 A 
HETATM   39  C3  UNL     1     -10.311  26.762  36.612  1.00  0.00     0.060 A 
HETATM   40  C2  UNL     1     -10.008  27.699  37.568  1.00  0.00     0.272 A 
HETATM   41  C19 UNL     1     -11.652  26.555  36.295  1.00  0.00     0.065 A 
HETATM   42  N2  UNL     1     -10.943  28.424  38.212  1.00  0.00    -0.156 N 
HETATM   43  O1  UNL     1      -8.794  27.885  37.853  1.00  0.00    -0.267 OA
HETATM   44  C1  UNL     1     -12.228  28.199  37.880  1.00  0.00     0.679 A 
ATOM     45  H2  UNL     1     -10.688  29.114  38.919  1.00  0.00     0.187 HD
HETATM   46  N13 UNL     1     -12.573  27.294  36.952  1.00  0.00    -0.191 N 
ATOM     47  H13 UNL     1     -13.560  27.158  36.737  1.00  0.00     0.184 HD
HETATM   48  C18 UNL     1     -12.022  25.631  35.348  1.00  0.00     0.038 A 
BRANCH  44  49
HETATM   49  N1  UNL     1     -13.146  28.895  38.497  1.00  0.00    -0.234 N 
ATOM     50  H12 UNL     1     -12.949  29.845  38.811  1.00  0.00     0.174 HD
ATOM     51  H11 UNL     1     -14.055  28.455  38.647  1.00  0.00     0.174 HD
ENDBRANCH  44  49
ENDBRANCH  35  36
ENDBRANCH  33  35
ENDBRANCH   1  33
TORSDOF 9
ENDMDL
MODEL 3
REMARK VINA RESULT: -9.974976013      3.410      7.303
REMARK  9 active torsions:
REMARK  status: ('A' for Active; 'I' for Inactive)
REMARK    1  A    between atoms: N1_1  and  C1_4 
REMARK    2  A    between atoms: C6_12  and  C7_13 
REMARK    3  A    between atoms: C7_13  and  C8_14 
REMARK    4  A    between atoms: C8_14  and  C9_16 
REMARK       I    between atoms: C9_16  and  N3_18 
REMARK    5  A    between atoms: C12_21  and  N4_22 
REMARK    6  A    between atoms: N4_22  and  C13_25 
REMARK    7  A    between atoms: C13_25  and  C14_26 
REMARK    8  A    between atoms: N8_33  and  C15_34 
REMARK    9  A    between atoms: C16_40  and  N11_41 
ROOT
HETATM    1  C9  UNL     1      -6.288  16.455  35.325  1.00  0.00     0.297 C 
HETATM    2  O3  UNL     1      -6.510  16.108  36.527  1.00  0.00    -0.264 OA
HETATM    3  N3  UNL     1      -5.492  17.572  35.065  1.00  0.00    -0.263 N 
HETATM    4  C10 UNL     1      -5.217  18.026  33.730  1.00  0.00     0.141 C 
HETATM    5  C11 UNL     1      -4.294  19.192  33.617  1.00  0.00     0.075 C 
HETATM    6  C12 UNL     1      -4.307  20.152  34.772  1.00  0.00     0.289 C 
HETATM    7  N12 UNL     1      -4.065  19.393  35.978  1.00  0.00    -0.314 N 
ATOM      8  H12 UNL     1      -3.321  19.638  36.632  1.00  0.00     0.166 HD
HETATM    9  C17 UNL     1      -4.926  18.283  36.200  1.00  0.00     0.327 C 
HETATM   10  O5  UNL     1      -5.226  17.878  37.342  1.00  0.00    -0.247 OA
ENDROOT
BRANCH   6  11
HETATM   11  N4  UNL     1      -5.571  20.831  34.928  1.00  0.00    -0.047 N 
ATOM     12  H42 UNL     1      -6.337  20.277  34.546  1.00  0.00     0.280 HD
ATOM     13  H41 UNL     1      -5.858  20.853  35.906  1.00  0.00     0.280 HD
BRANCH  11  14
HETATM   14  C13 UNL     1      -5.555  22.151  34.363  1.00  0.00     0.314 C 
BRANCH  14  15
HETATM   15  C14 UNL     1      -6.188  22.281  33.052  1.00  0.00     0.148 A 
HETATM   16  N5  UNL     1      -6.083  21.577  31.928  1.00  0.00    -0.270 N 
HETATM   17  N6  UNL     1      -6.866  22.093  31.003  1.00  0.00    -0.226 N 
ATOM     18  H5  UNL     1      -5.486  20.761  31.802  1.00  0.00     0.190 HD
HETATM   19  N7  UNL     1      -7.475  23.127  31.531  1.00  0.00    -0.218 N 
ATOM     20  H6  UNL     1      -6.978  21.751  30.049  1.00  0.00     0.210 HD
HETATM   21  N8  UNL     1      -7.091  23.270  32.765  1.00  0.00    -0.203 N 
ATOM     22  H7  UNL     1      -8.145  23.726  31.048  1.00  0.00     0.210 HD
BRANCH  21  23
HETATM   23  C15 UNL     1      -7.520  24.272  33.678  1.00  0.00     0.197 A 
HETATM   24  N9  UNL     1      -8.676  24.387  34.367  1.00  0.00    -0.220 N 
HETATM   25  O4  UNL     1      -8.632  25.474  35.087  1.00  0.00    -0.153 OA
ATOM     26  H9  UNL     1      -9.456  23.731  34.330  1.00  0.00     0.198 HD
HETATM   27  N10 UNL     1      -7.512  26.101  34.923  1.00  0.00    -0.222 N 
HETATM   28  C16 UNL     1      -6.792  25.381  34.050  1.00  0.00     0.169 A 
ATOM     29  H10 UNL     1      -7.231  26.974  35.371  1.00  0.00     0.198 HD
BRANCH  28  30
HETATM   30  N11 UNL     1      -5.604  25.675  33.622  1.00  0.00    -0.381 N 
ATOM     31 2H11 UNL     1      -4.856  25.007  33.434  1.00  0.00     0.157 HD
ATOM     32 1H11 UNL     1      -5.266  26.616  33.420  1.00  0.00     0.157 HD
ENDBRANCH  28  30
ENDBRANCH  21  23
ENDBRANCH  14  15
ENDBRANCH  11  14
ENDBRANCH   6  11
BRANCH   1  33
HETATM   33  C8  UNL     1      -6.893  15.642  34.308  1.00  0.00     0.221 C 
HETATM   34  O2  UNL     1      -6.187  14.920  33.566  1.00  0.00    -0.287 OA
BRANCH  33  35
HETATM   35  C7  UNL     1      -8.380  15.621  34.096  1.00  0.00     0.127 C 
BRANCH  35  36
HETATM   36  C6  UNL     1      -8.795  16.940  33.577  1.00  0.00    -0.049 A 
HETATM   37  C5  UNL     1      -8.325  17.451  32.388  1.00  0.00     0.009 A 
HETATM   38  C4  UNL     1      -8.732  18.674  31.956  1.00  0.00     0.020 A 
HETATM   39  C3  UNL     1      -9.635  19.406  32.732  1.00  0.00     0.060 A 
HETATM   40  C2  UNL     1     -10.083  20.645  32.350  1.00  0.00     0.272 A 
HETATM   41  C19 UNL     1     -10.105  18.879  33.934  1.00  0.00     0.065 A 
HETATM   42  N2  UNL     1     -10.952  21.373  33.079  1.00  0.00    -0.156 N 
HETATM   43  O1  UNL     1      -9.657  21.121  31.263  1.00  0.00    -0.267 OA
HETATM   44  C1  UNL     1     -11.385  20.832  34.233  1.00  0.00     0.679 A 
ATOM     45  H2  UNL     1     -11.267  22.293  32.769  1.00  0.00     0.187 HD
HETATM   46  N13 UNL     1     -10.975  19.625  34.648  1.00  0.00    -0.191 N 
ATOM     47  H13 UNL     1     -11.332  19.259  35.531  1.00  0.00     0.184 HD
HETATM   48  C18 UNL     1      -9.695  17.643  34.374  1.00  0.00     0.038 A 
BRANCH  44  49
HETATM   49  N1  UNL     1     -12.227  21.528  34.951  1.00  0.00    -0.234 N 
ATOM     50  H12 UNL     1     -13.223  21.309  34.934  1.00  0.00     0.174 HD
ATOM     51  H11 UNL     1     -11.851  22.286  35.521  1.00  0.00     0.174 HD
ENDBRANCH  44  49
ENDBRANCH  35  36
ENDBRANCH  33  35
ENDBRANCH   1  33
TORSDOF 9
ENDMDL
MODEL 4
REMARK VINA RESULT: -9.939349141      2.926      4.667
REMARK  9 active torsions:
REMARK  status: ('A' for Active; 'I' for Inactive)
REMARK    1  A    between atoms: N1_1  and  C1_4 
REMARK    2  A    between atoms: C6_12  and  C7_13 
REMARK    3  A    between atoms: C7_13  and  C8_14 
REMARK    4  A    between atoms: C8_14  and  C9_16 
REMARK       I    between atoms: C9_16  and  N3_18 
REMARK    5  A    between atoms: C12_21  and  N4_22 
REMARK    6  A    between atoms: N4_22  and  C13_25 
REMARK    7  A    between atoms: C13_25  and  C14_26 
REMARK    8  A    between atoms: N8_33  and  C15_34 
REMARK    9  A    between atoms: C16_40  and  N11_41 
ROOT
HETATM    1  C9  UNL     1     -11.304  20.446  33.045  1.00  0.00     0.297 C 
HETATM    2  O3  UNL     1     -12.192  20.658  33.929  1.00  0.00    -0.264 OA
HETATM    3  N3  UNL     1     -10.217  19.622  33.342  1.00  0.00    -0.263 N 
HETATM    4  C10 UNL     1      -9.172  19.356  32.392  1.00  0.00     0.141 C 
HETATM    5  C11 UNL     1      -8.117  18.401  32.838  1.00  0.00     0.075 C 
HETATM    6  C12 UNL     1      -7.846  18.366  34.314  1.00  0.00     0.289 C 
HETATM    7  N12 UNL     1      -9.103  18.127  34.987  1.00  0.00    -0.314 N 
ATOM      8  H12 UNL     1      -9.222  17.365  35.655  1.00  0.00     0.166 HD
HETATM    9  C17 UNL     1     -10.163  19.016  34.662  1.00  0.00     0.327 C 
HETATM   10  O5  UNL     1     -11.070  19.309  35.468  1.00  0.00    -0.247 OA
ENDROOT
BRANCH   6  11
HETATM   11  N4  UNL     1      -7.308  19.607  34.819  1.00  0.00    -0.047 N 
ATOM     12  H42 UNL     1      -8.053  20.233  35.125  1.00  0.00     0.280 HD
ATOM     13  H41 UNL     1      -6.837  19.466  35.712  1.00  0.00     0.280 HD
BRANCH  11  14
HETATM   14  C13 UNL     1      -6.444  20.253  33.873  1.00  0.00     0.314 C 
BRANCH  14  15
HETATM   15  C14 UNL     1      -5.213  20.814  34.426  1.00  0.00     0.148 A 
HETATM   16  N5  UNL     1      -4.767  22.061  34.546  1.00  0.00    -0.270 N 
HETATM   17  N6  UNL     1      -3.582  22.059  35.120  1.00  0.00    -0.226 N 
ATOM     18  H5  UNL     1      -5.268  22.895  34.238  1.00  0.00     0.190 HD
HETATM   19  N7  UNL     1      -3.265  20.813  35.370  1.00  0.00    -0.218 N 
ATOM     20  H6  UNL     1      -3.013  22.879  35.331  1.00  0.00     0.210 HD
HETATM   21  N8  UNL     1      -4.226  20.034  34.966  1.00  0.00    -0.203 N 
ATOM     22  H7  UNL     1      -2.400  20.502  35.812  1.00  0.00     0.210 HD
BRANCH  21  23
HETATM   23  C15 UNL     1      -4.265  18.615  35.058  1.00  0.00     0.197 A 
HETATM   24  N9  UNL     1      -4.233  17.678  34.088  1.00  0.00    -0.220 N 
HETATM   25  O4  UNL     1      -4.293  16.497  34.640  1.00  0.00    -0.153 OA
ATOM     26  H9  UNL     1      -4.173  17.862  33.086  1.00  0.00     0.198 HD
HETATM   27  N10 UNL     1      -4.364  16.584  35.929  1.00  0.00    -0.222 N 
HETATM   28  C16 UNL     1      -4.349  17.892  36.227  1.00  0.00     0.169 A 
ATOM     29  H10 UNL     1      -4.420  15.809  36.590  1.00  0.00     0.198 HD
BRANCH  28  30
HETATM   30  N11 UNL     1      -4.404  18.398  37.419  1.00  0.00    -0.381 N 
ATOM     31 2H11 UNL     1      -5.200  18.896  37.819  1.00  0.00     0.157 HD
ATOM     32 1H11 UNL     1      -3.655  18.363  38.110  1.00  0.00     0.157 HD
ENDBRANCH  28  30
ENDBRANCH  21  23
ENDBRANCH  14  15
ENDBRANCH  11  14
ENDBRANCH   6  11
BRANCH   1  33
HETATM   33  C8  UNL     1     -11.504  21.091  31.778  1.00  0.00     0.221 C 
HETATM   34  O2  UNL     1     -11.623  20.415  30.729  1.00  0.00    -0.287 OA
BRANCH  33  35
HETATM   35  C7  UNL     1     -11.579  22.587  31.658  1.00  0.00     0.127 C 
BRANCH  35  36
HETATM   36  C6  UNL     1     -10.332  23.162  32.199  1.00  0.00    -0.049 A 
HETATM   37  C5  UNL     1      -9.091  22.863  31.680  1.00  0.00     0.009 A 
HETATM   38  C4  UNL     1      -7.970  23.412  32.218  1.00  0.00     0.020 A 
HETATM   39  C3  UNL     1      -8.091  24.286  33.303  1.00  0.00     0.060 A 
HETATM   40  C2  UNL     1      -6.998  24.872  33.889  1.00  0.00     0.272 A 
HETATM   41  C19 UNL     1      -9.352  24.582  33.819  1.00  0.00     0.065 A 
HETATM   42  N2  UNL     1      -7.085  25.716  34.935  1.00  0.00    -0.156 N 
HETATM   43  O1  UNL     1      -5.858  24.603  33.420  1.00  0.00    -0.267 OA
HETATM   44  C1  UNL     1      -8.317  25.979  35.408  1.00  0.00     0.679 A 
ATOM     45  H2  UNL     1      -6.253  26.136  35.351  1.00  0.00     0.187 HD
HETATM   46  N13 UNL     1      -9.416  25.431  34.868  1.00  0.00    -0.191 N 
ATOM     47  H13 UNL     1     -10.328  25.661  35.262  1.00  0.00     0.184 HD
HETATM   48  C18 UNL     1     -10.487  24.027  33.279  1.00  0.00     0.038 A 
BRANCH  44  49
HETATM   49  N1  UNL     1      -8.417  26.796  36.423  1.00  0.00    -0.234 N 
ATOM     50  H12 UNL     1      -7.600  27.308  36.756  1.00  0.00     0.174 HD
ATOM     51  H11 UNL     1      -9.333  26.898  36.862  1.00  0.00     0.174 HD
ENDBRANCH  44  49
ENDBRANCH  35  36
ENDBRANCH  33  35
ENDBRANCH   1  33
TORSDOF 9
ENDMDL
MODEL 5
REMARK VINA RESULT: -9.752077816      4.463      6.574
REMARK  9 active torsions:
REMARK  status: ('A' for Active; 'I' for Inactive)
REMARK    1  A    between atoms: N1_1  and  C1_4 
REMARK    2  A    between atoms: C6_12  and  C7_13 
REMARK    3  A    between atoms: C7_13  and  C8_14 
REMARK    4  A    between atoms: C8_14  and  C9_16 
REMARK       I    between atoms: C9_16  and  N3_18 
REMARK    5  A    between atoms: C12_21  and  N4_22 
REMARK    6  A    between atoms: N4_22  and  C13_25 
REMARK    7  A    between atoms: C13_25  and  C14_26 
REMARK    8  A    between atoms: N8_33  and  C15_34 
REMARK    9  A    between atoms: C16_40  and  N11_41 
ROOT
HETATM    1  C9  UNL     1     -10.701  19.750  33.018  1.00  0.00     0.297 C 
HETATM    2  O3  UNL     1     -11.110  20.749  33.689  1.00  0.00    -0.264 OA
HETATM    3  N3  UNL     1     -10.559  18.511  33.644  1.00  0.00    -0.263 N 
HETATM    4  C10 UNL     1     -10.085  17.347  32.946  1.00  0.00     0.141 C 
HETATM    5  C11 UNL     1     -10.055  16.083  33.737  1.00  0.00     0.075 C 
HETATM    6  C12 UNL     1      -9.837  16.239  35.214  1.00  0.00     0.289 C 
HETATM    7  N12 UNL     1     -10.838  17.157  35.712  1.00  0.00    -0.314 N 
ATOM      8  H12 UNL     1     -11.452  16.918  36.491  1.00  0.00     0.166 HD
HETATM    9  C17 UNL     1     -10.915  18.413  35.050  1.00  0.00     0.327 C 
HETATM   10  O5  UNL     1     -11.281  19.458  35.625  1.00  0.00    -0.247 OA
ENDROOT
BRANCH   6  11
HETATM   11  N4  UNL     1      -8.542  16.784  35.541  1.00  0.00    -0.047 N 
ATOM     12  H42 UNL     1      -8.451  17.743  35.205  1.00  0.00     0.280 HD
ATOM     13  H41 UNL     1      -8.456  16.953  36.542  1.00  0.00     0.280 HD
BRANCH  11  14
HETATM   14  C13 UNL     1      -7.468  15.963  35.060  1.00  0.00     0.314 C 
BRANCH  14  15
HETATM   15  C14 UNL     1      -6.592  16.589  34.069  1.00  0.00     0.148 A 
HETATM   16  N5  UNL     1      -6.693  16.749  32.753  1.00  0.00    -0.270 N 
HETATM   17  N6  UNL     1      -5.634  17.386  32.298  1.00  0.00    -0.226 N 
ATOM     18  H5  UNL     1      -7.474  16.426  32.182  1.00  0.00     0.190 HD
HETATM   19  N7  UNL     1      -4.852  17.636  33.320  1.00  0.00    -0.218 N 
ATOM     20  H6  UNL     1      -5.454  17.638  31.327  1.00  0.00     0.210 HD
HETATM   21  N8  UNL     1      -5.399  17.170  34.405  1.00  0.00    -0.203 N 
ATOM     22  H7  UNL     1      -3.956  18.119  33.272  1.00  0.00     0.210 HD
BRANCH  21  23
HETATM   23  C15 UNL     1      -4.867  17.241  35.722  1.00  0.00     0.197 A 
HETATM   24  N9  UNL     1      -4.185  16.322  36.437  1.00  0.00    -0.220 N 
HETATM   25  O4  UNL     1      -3.894  16.826  37.605  1.00  0.00    -0.153 OA
ATOM     26  H9  UNL     1      -3.937  15.385  36.117  1.00  0.00     0.198 HD
HETATM   27  N10 UNL     1      -4.343  18.035  37.719  1.00  0.00    -0.222 N 
HETATM   28  C16 UNL     1      -4.956  18.328  36.563  1.00  0.00     0.169 A 
ATOM     29  H10 UNL     1      -4.248  18.646  38.531  1.00  0.00     0.198 HD
BRANCH  28  30
HETATM   30  N11 UNL     1      -5.539  19.450  36.278  1.00  0.00    -0.381 N 
ATOM     31 2H11 UNL     1      -6.365  19.560  35.689  1.00  0.00     0.157 HD
ATOM     32 1H11 UNL     1      -5.243  20.369  36.607  1.00  0.00     0.157 HD
ENDBRANCH  28  30
ENDBRANCH  21  23
ENDBRANCH  14  15
ENDBRANCH  11  14
ENDBRANCH   6  11
BRANCH   1  33
HETATM   33  C8  UNL     1     -10.413  19.992  31.633  1.00  0.00     0.221 C 
HETATM   34  O2  UNL     1     -11.339  20.213  30.818  1.00  0.00    -0.287 OA
BRANCH  33  35
HETATM   35  C7  UNL     1      -9.004  19.991  31.109  1.00  0.00     0.127 C 
BRANCH  35  36
HETATM   36  C6  UNL     1      -8.270  21.104  31.743  1.00  0.00    -0.049 A 
HETATM   37  C5  UNL     1      -8.698  22.411  31.671  1.00  0.00     0.009 A 
HETATM   38  C4  UNL     1      -7.983  23.402  32.266  1.00  0.00     0.020 A 
HETATM   39  C3  UNL     1      -6.809  23.079  32.953  1.00  0.00     0.060 A 
HETATM   40  C2  UNL     1      -6.044  24.034  33.574  1.00  0.00     0.272 A 
HETATM   41  C19 UNL     1      -6.386  21.752  33.020  1.00  0.00     0.065 A 
HETATM   42  N2  UNL     1      -4.909  23.751  34.241  1.00  0.00    -0.156 N 
HETATM   43  O1  UNL     1      -6.428  25.234  33.512  1.00  0.00    -0.267 OA
HETATM   44  C1  UNL     1      -4.531  22.460  34.286  1.00  0.00     0.679 A 
ATOM     45  H2  UNL     1      -4.360  24.483  34.693  1.00  0.00     0.187 HD
HETATM   46  N13 UNL     1      -5.245  21.491  33.695  1.00  0.00    -0.191 N 
ATOM     47  H13 UNL     1      -4.917  20.528  33.756  1.00  0.00     0.184 HD
HETATM   48  C18 UNL     1      -7.106  20.748  32.419  1.00  0.00     0.038 A 
BRANCH  44  49
HETATM   49  N1  UNL     1      -3.431  22.171  34.930  1.00  0.00    -0.234 N 
ATOM     50  H12 UNL     1      -2.652  22.829  34.942  1.00  0.00     0.174 HD
ATOM     51  H11 UNL     1      -3.386  21.273  35.413  1.00  0.00     0.174 HD
ENDBRANCH  44  49
ENDBRANCH  35  36
ENDBRANCH  33  35
ENDBRANCH   1  33
TORSDOF 9
ENDMDL
