MODEL 1
REMARK VINA RESULT: -7.968138948      0.000      0.000
REMARK  13 active torsions:
REMARK  status: ('A' for Active; 'I' for Inactive)
REMARK    1  A    between atoms: N1_1  and  S1_4 
REMARK    2  A    between atoms: S1_4  and  N2_7 
REMARK    3  A    between atoms: C3_12  and  C4_13 
REMARK    4  A    between atoms: C4_13  and  N4_14 
REMARK    5  A    between atoms: N4_14  and  C5_16 
REMARK    6  A    between atoms: C7_18  and  N5_19 
REMARK    7  A    between atoms: C9_21  and  O3_22 
REMARK    8  A    between atoms: C10_24  and  O4_25 
REMARK    9  A    between atoms: C10_24  and  C11_27 
REMARK   10  A    between atoms: C11_27  and  O5_28 
REMARK   11  A    between atoms: C13_33  and  N7_34 
REMARK   12  A    between atoms: C16_38  and  C17_39 
REMARK   13  A    between atoms: C17_39  and  O6_40 
ROOT
HETATM    1  C5  UNL     1      -7.923  25.512  34.439  1.00  0.00     0.120 A 
HETATM    2  C6  UNL     1      -8.548  26.303  35.378  1.00  0.00     0.097 A 
HETATM    3  C7  UNL     1      -9.764  26.933  35.102  1.00  0.00     0.122 A 
HETATM    4  N6  UNL     1     -10.322  26.755  33.894  1.00  0.00    -0.176 N 
ATOM      5  H6  UNL     1     -11.210  27.205  33.672  1.00  0.00     0.186 HD
HETATM    6  C13 UNL     1      -9.708  25.978  32.969  1.00  0.00     0.686 A 
HETATM    7  N10 UNL     1      -8.539  25.379  33.252  1.00  0.00    -0.177 N 
ATOM      8  H10 UNL     1      -8.100  24.800  32.536  1.00  0.00     0.186 HD
ENDROOT
BRANCH   1   9
HETATM    9  N4  UNL     1      -6.806  24.915  34.654  1.00  0.00    -0.370 N 
ATOM     10  H4  UNL     1      -6.612  24.613  35.610  1.00  0.00     0.161 HD
BRANCH   9  11
HETATM   11  C4  UNL     1      -5.801  24.635  33.655  1.00  0.00     0.181 C 
BRANCH  11  12
HETATM   12  C3  UNL     1      -5.039  23.414  34.004  1.00  0.00     0.063 A 
HETATM   13  N2  UNL     1      -5.355  22.147  33.713  1.00  0.00    -0.220 N 
HETATM   14  C1  UNL     1      -4.395  21.351  34.214  1.00  0.00     0.201 A 
HETATM   15  N3  UNL     1      -3.471  22.117  34.821  1.00  0.00    -0.359 N 
HETATM   16  C2  UNL     1      -3.861  23.399  34.698  1.00  0.00     0.117 A 
ATOM     17  H3  UNL     1      -2.628  21.786  35.291  1.00  0.00     0.166 HD
BRANCH  13  18
HETATM   18  S1  UNL     1      -6.764  21.683  32.846  1.00  0.00     0.324 S 
HETATM   19  O1  UNL     1      -6.903  20.189  32.947  1.00  0.00    -0.182 OA
HETATM   20  O2  UNL     1      -7.995  22.328  33.413  1.00  0.00    -0.182 OA
BRANCH  18  21
HETATM   21  N1  UNL     1      -6.675  22.125  31.178  1.00  0.00    -0.311 N 
ATOM     22  H12 UNL     1      -6.579  21.465  30.406  1.00  0.00     0.170 HD
ATOM     23  H11 UNL     1      -6.734  23.140  31.102  1.00  0.00     0.170 HD
ENDBRANCH  18  21
ENDBRANCH  13  18
ENDBRANCH  11  12
ENDBRANCH   9  11
ENDBRANCH   1   9
BRANCH   3  24
HETATM   24  N5  UNL     1     -10.415  27.744  36.057  1.00  0.00    -0.361 N 
HETATM   25  C8  UNL     1     -10.110  29.120  36.327  1.00  0.00     0.159 C 
HETATM   26  C9  UNL     1     -11.466  29.725  36.544  1.00  0.00     0.174 C 
HETATM   27  C10 UNL     1     -12.236  28.611  37.204  1.00  0.00     0.122 C 
HETATM   28  C12 UNL     1     -11.489  27.324  36.914  1.00  0.00     0.167 C 
BRANCH  26  29
HETATM   29  O3  UNL     1     -11.422  30.835  37.408  1.00  0.00    -0.391 OA
ATOM     30  H3  UNL     1     -11.724  31.631  36.986  1.00  0.00     0.210 HD
ENDBRANCH  26  29
BRANCH  27  31
HETATM   31  O4  UNL     1     -12.283  28.862  38.569  1.00  0.00    -0.383 OA
ATOM     32  H4  UNL     1     -11.420  29.142  38.852  1.00  0.00     0.210 HD
ENDBRANCH  27  31
BRANCH  27  33
HETATM   33  C11 UNL     1     -13.617  28.528  36.596  1.00  0.00     0.206 C 
BRANCH  33  34
HETATM   34  O5  UNL     1     -14.007  29.722  36.032  1.00  0.00    -0.398 OA
ATOM     35  H5  UNL     1     -14.648  30.176  36.567  1.00  0.00     0.209 HD
ENDBRANCH  33  34
ENDBRANCH  27  33
ENDBRANCH   3  24
BRANCH   6  36
HETATM   36  N7  UNL     1     -10.339  25.825  31.712  1.00  0.00    -0.176 N 
HETATM   37  C14 UNL     1     -11.449  25.183  31.621  1.00  0.00     0.123 A 
HETATM   38  C15 UNL     1     -12.008  25.075  30.346  1.00  0.00     0.076 A 
HETATM   39  N9  UNL     1     -12.076  24.626  32.675  1.00  0.00    -0.338 N 
HETATM   40  C16 UNL     1     -13.191  24.409  30.146  1.00  0.00     0.037 A 
HETATM   41  N8  UNL     1     -13.783  23.868  31.229  1.00  0.00    -0.354 N 
HETATM   42  C18 UNL     1     -13.230  23.978  32.464  1.00  0.00     0.182 A 
ATOM     43  H8  UNL     1     -14.664  23.366  31.119  1.00  0.00     0.166 HD
ATOM     44  H9  UNL     1     -11.682  24.696  33.613  1.00  0.00     0.168 HD
ATOM     45  H7  UNL     1      -9.913  26.225  30.876  1.00  0.00     0.186 HD
BRANCH  40  46
HETATM   46  C17 UNL     1     -13.823  24.270  28.807  1.00  0.00     0.221 C 
BRANCH  46  47
HETATM   47  O6  UNL     1     -12.887  24.621  27.826  1.00  0.00    -0.395 OA
ATOM     48  H6  UNL     1     -12.200  23.964  27.808  1.00  0.00     0.209 HD
ENDBRANCH  46  47
ENDBRANCH  40  46
ENDBRANCH   6  36
TORSDOF 13
ENDMDL
MODEL 2
REMARK VINA RESULT: -7.960140268      2.075      2.652
REMARK  13 active torsions:
REMARK  status: ('A' for Active; 'I' for Inactive)
REMARK    1  A    between atoms: N1_1  and  S1_4 
REMARK    2  A    between atoms: S1_4  and  N2_7 
REMARK    3  A    between atoms: C3_12  and  C4_13 
REMARK    4  A    between atoms: C4_13  and  N4_14 
REMARK    5  A    between atoms: N4_14  and  C5_16 
REMARK    6  A    between atoms: C7_18  and  N5_19 
REMARK    7  A    between atoms: C9_21  and  O3_22 
REMARK    8  A    between atoms: C10_24  and  O4_25 
REMARK    9  A    between atoms: C10_24  and  C11_27 
REMARK   10  A    between atoms: C11_27  and  O5_28 
REMARK   11  A    between atoms: C13_33  and  N7_34 
REMARK   12  A    between atoms: C16_38  and  C17_39 
REMARK   13  A    between atoms: C17_39  and  O6_40 
ROOT
HETATM    1  C5  UNL     1      -8.217  23.556  32.589  1.00  0.00     0.120 A 
HETATM    2  C6  UNL     1      -8.330  24.323  33.727  1.00  0.00     0.097 A 
HETATM    3  C7  UNL     1      -9.575  24.759  34.189  1.00  0.00     0.122 A 
HETATM    4  N6  UNL     1     -10.674  24.415  33.497  1.00  0.00    -0.176 N 
ATOM      5  H6  UNL     1     -11.593  24.722  33.816  1.00  0.00     0.186 HD
HETATM    6  C13 UNL     1     -10.564  23.662  32.376  1.00  0.00     0.686 A 
HETATM    7  N10 UNL     1      -9.359  23.252  31.948  1.00  0.00    -0.177 N 
ATOM      8  H10 UNL     1      -9.307  22.685  31.101  1.00  0.00     0.186 HD
ENDROOT
BRANCH   1   9
HETATM    9  N4  UNL     1      -7.092  23.136  32.133  1.00  0.00    -0.370 N 
ATOM     10  H4  UNL     1      -6.657  23.677  31.386  1.00  0.00     0.161 HD
BRANCH   9  11
HETATM   11  C4  UNL     1      -6.392  21.958  32.592  1.00  0.00     0.181 C 
BRANCH  11  12
HETATM   12  C3  UNL     1      -5.135  22.331  33.283  1.00  0.00     0.063 A 
HETATM   13  N2  UNL     1      -4.388  21.560  34.082  1.00  0.00    -0.220 N 
HETATM   14  C1  UNL     1      -3.337  22.285  34.498  1.00  0.00     0.201 A 
HETATM   15  N3  UNL     1      -3.420  23.516  33.960  1.00  0.00    -0.359 N 
HETATM   16  C2  UNL     1      -4.533  23.555  33.205  1.00  0.00     0.117 A 
ATOM     17  H3  UNL     1      -2.759  24.280  34.100  1.00  0.00     0.166 HD
BRANCH  13  18
HETATM   18  S1  UNL     1      -4.766  19.930  34.473  1.00  0.00     0.324 S 
HETATM   19  O1  UNL     1      -3.844  19.489  35.576  1.00  0.00    -0.182 OA
HETATM   20  O2  UNL     1      -6.187  19.791  34.936  1.00  0.00    -0.182 OA
BRANCH  18  21
HETATM   21  N1  UNL     1      -4.561  18.874  33.120  1.00  0.00    -0.311 N 
ATOM     22  H12 UNL     1      -3.661  18.599  32.727  1.00  0.00     0.170 HD
ATOM     23  H11 UNL     1      -5.480  18.580  32.789  1.00  0.00     0.170 HD
ENDBRANCH  18  21
ENDBRANCH  13  18
ENDBRANCH  11  12
ENDBRANCH   9  11
ENDBRANCH   1   9
BRANCH   3  24
HETATM   24  N5  UNL     1      -9.703  25.544  35.355  1.00  0.00    -0.361 N 
HETATM   25  C8  UNL     1      -8.647  26.287  35.980  1.00  0.00     0.159 C 
HETATM   26  C9  UNL     1      -9.337  27.549  36.409  1.00  0.00     0.174 C 
HETATM   27  C10 UNL     1     -10.721  27.076  36.769  1.00  0.00     0.122 C 
HETATM   28  C12 UNL     1     -10.914  25.727  36.107  1.00  0.00     0.167 C 
BRANCH  26  29
HETATM   29  O3  UNL     1      -8.734  28.127  37.542  1.00  0.00    -0.391 OA
ATOM     30  H3  UNL     1      -9.287  28.785  37.947  1.00  0.00     0.210 HD
ENDBRANCH  26  29
BRANCH  27  31
HETATM   31  O4  UNL     1     -10.800  26.968  38.152  1.00  0.00    -0.383 OA
ATOM     32  H4  UNL     1     -11.665  27.249  38.425  1.00  0.00     0.210 HD
ENDBRANCH  27  31
BRANCH  27  33
HETATM   33  C11 UNL     1     -11.741  28.046  36.218  1.00  0.00     0.206 C 
BRANCH  33  34
HETATM   34  O5  UNL     1     -11.236  29.323  36.111  1.00  0.00    -0.398 OA
ATOM     35  H5  UNL     1     -11.825  29.972  36.478  1.00  0.00     0.209 HD
ENDBRANCH  33  34
ENDBRANCH  27  33
ENDBRANCH   3  24
BRANCH   6  36
HETATM   36  N7  UNL     1     -11.754  23.330  31.686  1.00  0.00    -0.176 N 
HETATM   37  C14 UNL     1     -12.230  24.130  30.798  1.00  0.00     0.123 A 
HETATM   38  C15 UNL     1     -13.407  23.731  30.163  1.00  0.00     0.076 A 
HETATM   39  N9  UNL     1     -11.656  25.302  30.468  1.00  0.00    -0.338 N 
HETATM   40  C16 UNL     1     -13.993  24.515  29.202  1.00  0.00     0.037 A 
HETATM   41  N8  UNL     1     -13.385  25.680  28.903  1.00  0.00    -0.354 N 
HETATM   42  C18 UNL     1     -12.241  26.058  29.528  1.00  0.00     0.182 A 
ATOM     43  H8  UNL     1     -13.791  26.289  28.193  1.00  0.00     0.166 HD
ATOM     44  H9  UNL     1     -10.796  25.608  30.922  1.00  0.00     0.168 HD
ATOM     45  H7  UNL     1     -12.235  22.455  31.892  1.00  0.00     0.186 HD
BRANCH  40  46
HETATM   46  C17 UNL     1     -15.245  24.131  28.497  1.00  0.00     0.221 C 
BRANCH  46  47
HETATM   47  O6  UNL     1     -15.192  22.764  28.193  1.00  0.00    -0.395 OA
ATOM     48  H6  UNL     1     -15.785  22.297  28.770  1.00  0.00     0.209 HD
ENDBRANCH  46  47
ENDBRANCH  40  46
ENDBRANCH   6  36
TORSDOF 13
ENDMDL
MODEL 3
REMARK VINA RESULT: -7.831789607      2.823      7.144
REMARK  13 active torsions:
REMARK  status: ('A' for Active; 'I' for Inactive)
REMARK    1  A    between atoms: N1_1  and  S1_4 
REMARK    2  A    between atoms: S1_4  and  N2_7 
REMARK    3  A    between atoms: C3_12  and  C4_13 
REMARK    4  A    between atoms: C4_13  and  N4_14 
REMARK    5  A    between atoms: N4_14  and  C5_16 
REMARK    6  A    between atoms: C7_18  and  N5_19 
REMARK    7  A    between atoms: C9_21  and  O3_22 
REMARK    8  A    between atoms: C10_24  and  O4_25 
REMARK    9  A    between atoms: C10_24  and  C11_27 
REMARK   10  A    between atoms: C11_27  and  O5_28 
REMARK   11  A    between atoms: C13_33  and  N7_34 
REMARK   12  A    between atoms: C16_38  and  C17_39 
REMARK   13  A    between atoms: C17_39  and  O6_40 
ROOT
HETATM    1  C5  UNL     1     -10.528  23.525  33.894  1.00  0.00     0.120 A 
HETATM    2  C6  UNL     1      -9.171  23.468  33.663  1.00  0.00     0.097 A 
HETATM    3  C7  UNL     1      -8.388  24.626  33.649  1.00  0.00     0.122 A 
HETATM    4  N6  UNL     1      -8.985  25.809  33.867  1.00  0.00    -0.176 N 
ATOM      5  H6  UNL     1      -8.432  26.666  33.861  1.00  0.00     0.186 HD
HETATM    6  C13 UNL     1     -10.320  25.866  34.093  1.00  0.00     0.686 A 
HETATM    7  N10 UNL     1     -11.057  24.743  34.104  1.00  0.00    -0.177 N 
ATOM      8  H10 UNL     1     -12.059  24.817  34.277  1.00  0.00     0.186 HD
ENDROOT
BRANCH   1   9
HETATM    9  N4  UNL     1     -11.281  22.485  33.916  1.00  0.00    -0.370 N 
ATOM     10  H4  UNL     1     -12.290  22.637  33.925  1.00  0.00     0.161 HD
BRANCH   9  11
HETATM   11  C4  UNL     1     -10.817  21.116  33.930  1.00  0.00     0.181 C 
BRANCH  11  12
HETATM   12  C3  UNL     1     -10.820  20.548  32.561  1.00  0.00     0.063 A 
HETATM   13  N2  UNL     1      -9.915  19.723  32.023  1.00  0.00    -0.220 N 
HETATM   14  C1  UNL     1     -10.295  19.449  30.764  1.00  0.00     0.201 A 
HETATM   15  N3  UNL     1     -11.443  20.103  30.507  1.00  0.00    -0.359 N 
HETATM   16  C2  UNL     1     -11.777  20.788  31.616  1.00  0.00     0.117 A 
ATOM     17  H3  UNL     1     -11.965  20.083  29.631  1.00  0.00     0.166 HD
BRANCH  13  18
HETATM   18  S1  UNL     1      -8.523  19.148  32.852  1.00  0.00     0.324 S 
HETATM   19  O1  UNL     1      -7.633  20.325  33.140  1.00  0.00    -0.182 OA
HETATM   20  O2  UNL     1      -8.891  18.484  34.148  1.00  0.00    -0.182 OA
BRANCH  18  21
HETATM   21  N1  UNL     1      -7.640  17.995  31.917  1.00  0.00    -0.311 N 
ATOM     22  H12 UNL     1      -6.926  18.229  31.227  1.00  0.00     0.170 HD
ATOM     23  H11 UNL     1      -7.951  17.057  32.171  1.00  0.00     0.170 HD
ENDBRANCH  18  21
ENDBRANCH  13  18
ENDBRANCH  11  12
ENDBRANCH   9  11
ENDBRANCH   1   9
BRANCH   3  24
HETATM   24  N5  UNL     1      -6.997  24.580  33.414  1.00  0.00    -0.361 N 
HETATM   25  C8  UNL     1      -6.058  25.605  33.769  1.00  0.00     0.159 C 
HETATM   26  C9  UNL     1      -4.869  24.818  34.239  1.00  0.00     0.174 C 
HETATM   27  C10 UNL     1      -4.895  23.598  33.355  1.00  0.00     0.122 C 
HETATM   28  C12 UNL     1      -6.294  23.498  32.781  1.00  0.00     0.167 C 
BRANCH  26  29
HETATM   29  O3  UNL     1      -3.660  25.510  34.039  1.00  0.00    -0.391 OA
ATOM     30  H3  UNL     1      -3.032  25.346  34.733  1.00  0.00     0.210 HD
ENDBRANCH  26  29
BRANCH  27  31
HETATM   31  O4  UNL     1      -3.955  23.768  32.348  1.00  0.00    -0.383 OA
ATOM     32  H4  UNL     1      -4.287  23.361  31.556  1.00  0.00     0.210 HD
ENDBRANCH  27  31
BRANCH  27  33
HETATM   33  C11 UNL     1      -4.616  22.369  34.190  1.00  0.00     0.206 C 
BRANCH  33  34
HETATM   34  O5  UNL     1      -3.570  22.565  35.064  1.00  0.00    -0.398 OA
ATOM     35  H5  UNL     1      -3.866  22.649  35.962  1.00  0.00     0.209 HD
ENDBRANCH  33  34
ENDBRANCH  27  33
ENDBRANCH   3  24
BRANCH   6  36
HETATM   36  N7  UNL     1     -10.897  27.139  34.316  1.00  0.00    -0.176 N 
HETATM   37  C14 UNL     1     -11.127  27.542  35.515  1.00  0.00     0.123 A 
HETATM   38  C15 UNL     1     -11.699  28.808  35.651  1.00  0.00     0.076 A 
HETATM   39  N9  UNL     1     -10.848  26.813  36.612  1.00  0.00    -0.338 N 
HETATM   40  C16 UNL     1     -11.983  29.327  36.889  1.00  0.00     0.037 A 
HETATM   41  N8  UNL     1     -11.687  28.563  37.958  1.00  0.00    -0.354 N 
HETATM   42  C18 UNL     1     -11.132  27.333  37.815  1.00  0.00     0.182 A 
ATOM     43  H8  UNL     1     -11.883  28.916  38.895  1.00  0.00     0.166 HD
ATOM     44  H9  UNL     1     -10.430  25.887  36.530  1.00  0.00     0.168 HD
ATOM     45  H7  UNL     1     -11.131  27.738  33.524  1.00  0.00     0.186 HD
BRANCH  40  46
HETATM   46  C17 UNL     1     -12.590  30.671  37.082  1.00  0.00     0.221 C 
BRANCH  46  47
HETATM   47  O6  UNL     1     -11.604  31.551  37.545  1.00  0.00    -0.395 OA
ATOM     48  H6  UNL     1     -11.600  32.326  36.994  1.00  0.00     0.209 HD
ENDBRANCH  46  47
ENDBRANCH  40  46
ENDBRANCH   6  36
TORSDOF 13
ENDMDL
MODEL 4
REMARK VINA RESULT: -7.780165483      2.490      7.216
REMARK  13 active torsions:
REMARK  status: ('A' for Active; 'I' for Inactive)
REMARK    1  A    between atoms: N1_1  and  S1_4 
REMARK    2  A    between atoms: S1_4  and  N2_7 
REMARK    3  A    between atoms: C3_12  and  C4_13 
REMARK    4  A    between atoms: C4_13  and  N4_14 
REMARK    5  A    between atoms: N4_14  and  C5_16 
REMARK    6  A    between atoms: C7_18  and  N5_19 
REMARK    7  A    between atoms: C9_21  and  O3_22 
REMARK    8  A    between atoms: C10_24  and  O4_25 
REMARK    9  A    between atoms: C10_24  and  C11_27 
REMARK   10  A    between atoms: C11_27  and  O5_28 
REMARK   11  A    between atoms: C13_33  and  N7_34 
REMARK   12  A    between atoms: C16_38  and  C17_39 
REMARK   13  A    between atoms: C17_39  and  O6_40 
ROOT
HETATM    1  C5  UNL     1      -8.263  25.732  34.499  1.00  0.00     0.120 A 
HETATM    2  C6  UNL     1      -7.309  24.739  34.543  1.00  0.00     0.097 A 
HETATM    3  C7  UNL     1      -7.306  23.693  33.616  1.00  0.00     0.122 A 
HETATM    4  N6  UNL     1      -8.260  23.669  32.670  1.00  0.00    -0.176 N 
ATOM      5  H6  UNL     1      -8.276  22.915  31.984  1.00  0.00     0.186 HD
HETATM    6  C13 UNL     1      -9.199  24.644  32.627  1.00  0.00     0.686 A 
HETATM    7  N10 UNL     1      -9.185  25.643  33.525  1.00  0.00    -0.177 N 
ATOM      8  H10 UNL     1      -9.905  26.363  33.467  1.00  0.00     0.186 HD
ENDROOT
BRANCH   1   9
HETATM    9  N4  UNL     1      -8.298  26.709  35.331  1.00  0.00    -0.370 N 
ATOM     10  H4  UNL     1      -7.717  27.522  35.124  1.00  0.00     0.161 HD
BRANCH   9  11
HETATM   11  C4  UNL     1      -9.094  26.753  36.536  1.00  0.00     0.181 C 
BRANCH  11  12
HETATM   12  C3  UNL     1     -10.051  27.884  36.492  1.00  0.00     0.063 A 
HETATM   13  N2  UNL     1     -11.283  27.885  35.971  1.00  0.00    -0.220 N 
HETATM   14  C1  UNL     1     -11.808  29.111  36.141  1.00  0.00     0.201 A 
HETATM   15  N3  UNL     1     -10.904  29.884  36.772  1.00  0.00    -0.359 N 
HETATM   16  C2  UNL     1      -9.811  29.132  36.994  1.00  0.00     0.117 A 
ATOM     17  H3  UNL     1     -11.027  30.862  37.034  1.00  0.00     0.166 HD
BRANCH  13  18
HETATM   18  S1  UNL     1     -12.012  26.521  35.223  1.00  0.00     0.324 S 
HETATM   19  O1  UNL     1     -11.838  26.656  33.736  1.00  0.00    -0.182 OA
HETATM   20  O2  UNL     1     -11.375  25.240  35.677  1.00  0.00    -0.182 OA
BRANCH  18  21
HETATM   21  N1  UNL     1     -13.699  26.409  35.580  1.00  0.00    -0.311 N 
ATOM     22  H12 UNL     1     -14.229  25.538  35.622  1.00  0.00     0.170 HD
ATOM     23  H11 UNL     1     -14.066  27.348  35.737  1.00  0.00     0.170 HD
ENDBRANCH  18  21
ENDBRANCH  13  18
ENDBRANCH  11  12
ENDBRANCH   9  11
ENDBRANCH   1   9
BRANCH   3  24
HETATM   24  N5  UNL     1      -6.334  22.670  33.651  1.00  0.00    -0.361 N 
HETATM   25  C8  UNL     1      -5.011  22.797  34.192  1.00  0.00     0.159 C 
HETATM   26  C9  UNL     1      -4.801  21.474  34.870  1.00  0.00     0.174 C 
HETATM   27  C10 UNL     1      -5.546  20.513  33.982  1.00  0.00     0.122 C 
HETATM   28  C12 UNL     1      -6.510  21.335  33.150  1.00  0.00     0.167 C 
BRANCH  26  29
HETATM   29  O3  UNL     1      -3.442  21.108  34.913  1.00  0.00    -0.391 OA
ATOM     30  H3  UNL     1      -3.317  20.233  35.261  1.00  0.00     0.210 HD
ENDBRANCH  26  29
BRANCH  27  31
HETATM   31  O4  UNL     1      -4.625  19.859  33.175  1.00  0.00    -0.383 OA
ATOM     32  H4  UNL     1      -4.533  18.966  33.487  1.00  0.00     0.210 HD
ENDBRANCH  27  31
BRANCH  27  33
HETATM   33  C11 UNL     1      -6.334  19.548  34.839  1.00  0.00     0.206 C 
BRANCH  33  34
HETATM   34  O5  UNL     1      -6.050  19.695  36.178  1.00  0.00    -0.398 OA
ATOM     35  H5  UNL     1      -5.336  19.132  36.455  1.00  0.00     0.209 HD
ENDBRANCH  33  34
ENDBRANCH  27  33
ENDBRANCH   3  24
BRANCH   6  36
HETATM   36  N7  UNL     1     -10.180  24.569  31.610  1.00  0.00    -0.176 N 
HETATM   37  C14 UNL     1     -11.331  24.051  31.859  1.00  0.00     0.123 A 
HETATM   38  C15 UNL     1     -12.243  24.014  30.804  1.00  0.00     0.076 A 
HETATM   39  N9  UNL     1     -11.680  23.558  33.062  1.00  0.00    -0.338 N 
HETATM   40  C16 UNL     1     -13.496  23.481  30.970  1.00  0.00     0.037 A 
HETATM   41  N8  UNL     1     -13.802  22.999  32.190  1.00  0.00    -0.354 N 
HETATM   42  C18 UNL     1     -12.907  23.040  33.210  1.00  0.00     0.182 A 
ATOM     43  H8  UNL     1     -14.725  22.596  32.352  1.00  0.00     0.166 HD
ATOM     44  H9  UNL     1     -11.025  23.578  33.844  1.00  0.00     0.168 HD
ATOM     45  H7  UNL     1      -9.975  24.927  30.677  1.00  0.00     0.186 HD
BRANCH  40  46
HETATM   46  C17 UNL     1     -14.501  23.421  29.875  1.00  0.00     0.221 C 
BRANCH  46  47
HETATM   47  O6  UNL     1     -13.829  23.370  28.646  1.00  0.00    -0.395 OA
ATOM     48  H6  UNL     1     -14.104  22.591  28.178  1.00  0.00     0.209 HD
ENDBRANCH  46  47
ENDBRANCH  40  46
ENDBRANCH   6  36
TORSDOF 13
ENDMDL
MODEL 5
REMARK VINA RESULT: -7.770821878      2.175      2.673
REMARK  13 active torsions:
REMARK  status: ('A' for Active; 'I' for Inactive)
REMARK    1  A    between atoms: N1_1  and  S1_4 
REMARK    2  A    between atoms: S1_4  and  N2_7 
REMARK    3  A    between atoms: C3_12  and  C4_13 
REMARK    4  A    between atoms: C4_13  and  N4_14 
REMARK    5  A    between atoms: N4_14  and  C5_16 
REMARK    6  A    between atoms: C7_18  and  N5_19 
REMARK    7  A    between atoms: C9_21  and  O3_22 
REMARK    8  A    between atoms: C10_24  and  O4_25 
REMARK    9  A    between atoms: C10_24  and  C11_27 
REMARK   10  A    between atoms: C11_27  and  O5_28 
REMARK   11  A    between atoms: C13_33  and  N7_34 
REMARK   12  A    between atoms: C16_38  and  C17_39 
REMARK   13  A    between atoms: C17_39  and  O6_40 
ROOT
HETATM    1  C5  UNL     1      -8.113  23.535  32.402  1.00  0.00     0.120 A 
HETATM    2  C6  UNL     1      -8.270  24.211  33.592  1.00  0.00     0.097 A 
HETATM    3  C7  UNL     1      -9.472  24.847  33.913  1.00  0.00     0.122 A 
HETATM    4  N6  UNL     1     -10.485  24.790  33.033  1.00  0.00    -0.176 N 
ATOM      5  H6  UNL     1     -11.371  25.248  33.247  1.00  0.00     0.186 HD
HETATM    6  C13 UNL     1     -10.331  24.127  31.861  1.00  0.00     0.686 A 
HETATM    7  N10 UNL     1      -9.169  23.521  31.570  1.00  0.00    -0.177 N 
ATOM      8  H10 UNL     1      -9.083  23.029  30.681  1.00  0.00     0.186 HD
ENDROOT
BRANCH   1   9
HETATM    9  N4  UNL     1      -7.026  22.937  32.072  1.00  0.00    -0.370 N 
ATOM     10  H4  UNL     1      -6.526  23.291  31.255  1.00  0.00     0.161 HD
BRANCH   9  11
HETATM   11  C4  UNL     1      -6.451  21.805  32.761  1.00  0.00     0.181 C 
BRANCH  11  12
HETATM   12  C3  UNL     1      -5.165  22.176  33.398  1.00  0.00     0.063 A 
HETATM   13  N2  UNL     1      -4.381  21.401  34.157  1.00  0.00    -0.220 N 
HETATM   14  C1  UNL     1      -3.314  22.126  34.530  1.00  0.00     0.201 A 
HETATM   15  N3  UNL     1      -3.424  23.360  34.006  1.00  0.00    -0.359 N 
HETATM   16  C2  UNL     1      -4.570  23.402  33.302  1.00  0.00     0.117 A 
ATOM     17  H3  UNL     1      -2.759  24.125  34.121  1.00  0.00     0.166 HD
BRANCH  13  18
HETATM   18  S1  UNL     1      -4.737  19.767  34.551  1.00  0.00     0.324 S 
HETATM   19  O1  UNL     1      -3.790  19.332  35.634  1.00  0.00    -0.182 OA
HETATM   20  O2  UNL     1      -6.147  19.615  35.044  1.00  0.00    -0.182 OA
BRANCH  18  21
HETATM   21  N1  UNL     1      -4.553  18.716  33.192  1.00  0.00    -0.311 N 
ATOM     22  H12 UNL     1      -4.876  18.925  32.247  1.00  0.00     0.170 HD
ATOM     23  H11 UNL     1      -4.075  17.867  33.494  1.00  0.00     0.170 HD
ENDBRANCH  18  21
ENDBRANCH  13  18
ENDBRANCH  11  12
ENDBRANCH   9  11
ENDBRANCH   1   9
BRANCH   3  24
HETATM   24  N5  UNL     1      -9.645  25.541  35.130  1.00  0.00    -0.361 N 
HETATM   25  C8  UNL     1      -8.613  26.231  35.850  1.00  0.00     0.159 C 
HETATM   26  C9  UNL     1      -9.318  27.459  36.347  1.00  0.00     0.174 C 
HETATM   27  C10 UNL     1     -10.716  26.965  36.617  1.00  0.00     0.122 C 
HETATM   28  C12 UNL     1     -10.884  25.671  35.846  1.00  0.00     0.167 C 
BRANCH  26  29
HETATM   29  O3  UNL     1      -8.759  27.946  37.544  1.00  0.00    -0.391 OA
ATOM     30  H3  UNL     1      -8.690  28.894  37.549  1.00  0.00     0.210 HD
ENDBRANCH  26  29
BRANCH  27  31
HETATM   31  O4  UNL     1     -10.848  26.752  37.983  1.00  0.00    -0.383 OA
ATOM     32  H4  UNL     1     -11.201  27.542  38.376  1.00  0.00     0.210 HD
ENDBRANCH  27  31
BRANCH  27  33
HETATM   33  C11 UNL     1     -11.712  27.979  36.102  1.00  0.00     0.206 C 
BRANCH  33  34
HETATM   34  O5  UNL     1     -11.212  29.261  36.138  1.00  0.00    -0.398 OA
ATOM     35  H5  UNL     1     -11.559  29.759  36.869  1.00  0.00     0.209 HD
ENDBRANCH  33  34
ENDBRANCH  27  33
ENDBRANCH   3  24
BRANCH   6  36
HETATM   36  N7  UNL     1     -11.430  24.100  30.970  1.00  0.00    -0.176 N 
HETATM   37  C14 UNL     1     -12.470  23.396  31.250  1.00  0.00     0.123 A 
HETATM   38  C15 UNL     1     -13.511  23.420  30.320  1.00  0.00     0.076 A 
HETATM   39  N9  UNL     1     -12.591  22.658  32.369  1.00  0.00    -0.338 N 
HETATM   40  C16 UNL     1     -14.662  22.703  30.527  1.00  0.00     0.037 A 
HETATM   41  N8  UNL     1     -14.739  21.978  31.661  1.00  0.00    -0.354 N 
HETATM   42  C18 UNL     1     -13.720  21.961  32.558  1.00  0.00     0.182 A 
ATOM     43  H8  UNL     1     -15.580  21.433  31.849  1.00  0.00     0.166 HD
ATOM     44  H9  UNL     1     -11.840  22.629  33.059  1.00  0.00     0.168 HD
ATOM     45  H7  UNL     1     -11.399  24.639  30.105  1.00  0.00     0.186 HD
BRANCH  40  46
HETATM   46  C17 UNL     1     -15.797  22.699  29.566  1.00  0.00     0.221 C 
BRANCH  46  47
HETATM   47  O6  UNL     1     -15.285  22.670  28.262  1.00  0.00    -0.395 OA
ATOM     48  H6  UNL     1     -15.485  21.826  27.872  1.00  0.00     0.209 HD
ENDBRANCH  46  47
ENDBRANCH  40  46
ENDBRANCH   6  36
TORSDOF 13
ENDMDL
