MODEL 1
REMARK VINA RESULT: -7.825270526      0.000      0.000
REMARK  14 active torsions:
REMARK  status: ('A' for Active; 'I' for Inactive)
REMARK    1  A    between atoms: C2_2  and  C5_5 
REMARK    2  A    between atoms: C5_5  and  C6_7 
REMARK       I    between atoms: C6_7  and  N1_9 
REMARK    3  A    between atoms: N1_9  and  C7_11 
REMARK    4  A    between atoms: C7_11  and  C8_12 
REMARK       I    between atoms: C8_12  and  N2_14 
REMARK    5  A    between atoms: N2_14  and  C9_16 
REMARK    6  A    between atoms: C9_16  and  C10_17 
REMARK    7  A    between atoms: C12_20  and  C13_21 
REMARK    8  A    between atoms: C13_21  and  N3_22 
REMARK    9  A    between atoms: N3_22  and  C14_25 
REMARK   10  A    between atoms: C14_25  and  C15_26 
REMARK   11  A    between atoms: C15_26  and  N4_27 
REMARK   12  A    between atoms: N4_27  and  C16_29 
REMARK   13  A    between atoms: C16_29  and  C17_33 
REMARK   14  A    between atoms: C17_33  and  N6_34 
ROOT
HETATM    1  C10 UNL     1      18.517  -0.221  21.563  1.00  0.00     0.166 C 
HETATM    2  C11 UNL     1      17.624  -0.611  20.385  1.00  0.00     0.204 C 
HETATM    3  O4  UNL     1      18.310   0.057  19.363  1.00  0.00    -0.357 OA
HETATM    4  C12 UNL     1      19.650  -0.089  19.681  1.00  0.00     0.285 C 
HETATM    5  O5  UNL     1      19.785  -0.339  21.019  1.00  0.00    -0.351 OA
ENDROOT
BRANCH   4   6
HETATM    6  C13 UNL     1      20.381   1.178  19.313  1.00  0.00     0.292 C 
BRANCH   6   7
HETATM    7  N3  UNL     1      20.950   1.185  18.004  1.00  0.00    -0.069 N 
ATOM      8  H32 UNL     1      21.155   0.244  17.667  1.00  0.00     0.277 HD
ATOM      9  H31 UNL     1      20.273   1.451  17.290  1.00  0.00     0.277 HD
BRANCH   7  10
HETATM   10  C14 UNL     1      22.121   2.037  17.991  1.00  0.00     0.252 C 
BRANCH  10  11
HETATM   11  C15 UNL     1      23.190   1.623  18.962  1.00  0.00     0.148 C 
BRANCH  11  12
HETATM   12  N4  UNL     1      23.511   2.671  19.902  1.00  0.00    -0.377 N 
ATOM     13  H4  UNL     1      23.788   3.579  19.530  1.00  0.00     0.160 HD
BRANCH  12  14
HETATM   14  C16 UNL     1      23.465   2.514  21.303  1.00  0.00     0.096 C 
HETATM   15  N5  UNL     1      23.717   3.564  22.002  1.00  0.00    -0.388 N 
ATOM     16  H52 UNL     1      23.934   4.436  21.519  1.00  0.00     0.157 HD
ATOM     17  H51 UNL     1      23.684   3.451  23.016  1.00  0.00     0.157 HD
BRANCH  14  18
HETATM   18  C17 UNL     1      23.154   1.263  21.997  1.00  0.00     0.304 C 
BRANCH  18  19
HETATM   19  N6  UNL     1      21.925   1.324  22.760  1.00  0.00    -0.073 N 
ATOM     20  H63 UNL     1      22.118   1.495  23.747  1.00  0.00     0.274 HD
ATOM     21  H62 UNL     1      21.403   2.173  22.542  1.00  0.00     0.274 HD
ATOM     22  H61 UNL     1      21.337   0.498  22.642  1.00  0.00     0.274 HD
ENDBRANCH  18  19
ENDBRANCH  14  18
ENDBRANCH  12  14
ENDBRANCH  11  12
ENDBRANCH  10  11
ENDBRANCH   7  10
ENDBRANCH   6   7
ENDBRANCH   4   6
BRANCH   1  23
HETATM   23  C9  UNL     1      18.308  -1.115  22.735  1.00  0.00     0.156 C 
BRANCH  23  24
HETATM   24  N2  UNL     1      19.153  -0.776  23.839  1.00  0.00    -0.357 N 
HETATM   25  C8  UNL     1      20.376  -1.397  24.119  1.00  0.00     0.235 C 
HETATM   26  O3  UNL     1      20.763  -2.337  23.357  1.00  0.00    -0.272 OA
ATOM     27  H2  UNL     1      18.843  -0.031  24.464  1.00  0.00     0.162 HD
BRANCH  25  28
HETATM   28  C7  UNL     1      21.244  -1.041  25.243  1.00  0.00     0.225 C 
BRANCH  28  29
HETATM   29  N1  UNL     1      20.531  -0.536  26.363  1.00  0.00    -0.346 N 
HETATM   30  C6  UNL     1      20.088   0.794  26.555  1.00  0.00     0.288 C 
HETATM   31  O2  UNL     1      20.340   1.650  25.677  1.00  0.00    -0.264 OA
ATOM     32  H1  UNL     1      20.317  -1.202  27.106  1.00  0.00     0.163 HD
BRANCH  30  33
HETATM   33  C5  UNL     1      19.354   1.162  27.747  1.00  0.00     0.224 C 
HETATM   34  O1  UNL     1      19.921   1.878  28.611  1.00  0.00    -0.286 OA
BRANCH  33  35
HETATM   35  C2  UNL     1      17.953   0.692  27.936  1.00  0.00     0.019 C 
HETATM   36  C1  UNL     1      17.208   0.592  26.630  1.00  0.00     0.023 C 
HETATM   37  C3  UNL     1      17.220   1.760  28.760  1.00  0.00     0.023 C 
HETATM   38  C4  UNL     1      17.893  -0.595  28.701  1.00  0.00     0.023 C 
ENDBRANCH  33  35
ENDBRANCH  30  33
ENDBRANCH  28  29
ENDBRANCH  25  28
ENDBRANCH  23  24
ENDBRANCH   1  23
TORSDOF 14
ENDMDL
MODEL 2
REMARK VINA RESULT: -7.796786537      1.917      3.466
REMARK  14 active torsions:
REMARK  status: ('A' for Active; 'I' for Inactive)
REMARK    1  A    between atoms: C2_2  and  C5_5 
REMARK    2  A    between atoms: C5_5  and  C6_7 
REMARK       I    between atoms: C6_7  and  N1_9 
REMARK    3  A    between atoms: N1_9  and  C7_11 
REMARK    4  A    between atoms: C7_11  and  C8_12 
REMARK       I    between atoms: C8_12  and  N2_14 
REMARK    5  A    between atoms: N2_14  and  C9_16 
REMARK    6  A    between atoms: C9_16  and  C10_17 
REMARK    7  A    between atoms: C12_20  and  C13_21 
REMARK    8  A    between atoms: C13_21  and  N3_22 
REMARK    9  A    between atoms: N3_22  and  C14_25 
REMARK   10  A    between atoms: C14_25  and  C15_26 
REMARK   11  A    between atoms: C15_26  and  N4_27 
REMARK   12  A    between atoms: N4_27  and  C16_29 
REMARK   13  A    between atoms: C16_29  and  C17_33 
REMARK   14  A    between atoms: C17_33  and  N6_34 
ROOT
HETATM    1  C10 UNL     1      19.554  -0.894  22.874  1.00  0.00     0.166 C 
HETATM    2  C11 UNL     1      20.126  -0.861  24.291  1.00  0.00     0.204 C 
HETATM    3  O4  UNL     1      21.489  -0.806  23.973  1.00  0.00    -0.357 OA
HETATM    4  C12 UNL     1      21.560   0.011  22.858  1.00  0.00     0.285 C 
HETATM    5  O5  UNL     1      20.352   0.028  22.216  1.00  0.00    -0.351 OA
ENDROOT
BRANCH   4   6
HETATM    6  C13 UNL     1      22.631  -0.514  21.934  1.00  0.00     0.292 C 
BRANCH   6   7
HETATM    7  N3  UNL     1      23.699   0.397  21.673  1.00  0.00    -0.069 N 
ATOM      8  H32 UNL     1      24.495   0.246  22.294  1.00  0.00     0.277 HD
ATOM      9  H31 UNL     1      24.165   0.201  20.788  1.00  0.00     0.277 HD
BRANCH   7  10
HETATM   10  C14 UNL     1      23.203   1.755  21.741  1.00  0.00     0.252 C 
BRANCH  10  11
HETATM   11  C15 UNL     1      23.507   2.580  20.524  1.00  0.00     0.148 C 
BRANCH  11  12
HETATM   12  N4  UNL     1      23.286   1.850  19.298  1.00  0.00    -0.377 N 
ATOM     13  H4  UNL     1      24.006   1.193  18.996  1.00  0.00     0.160 HD
BRANCH  12  14
HETATM   14  C16 UNL     1      22.135   1.989  18.493  1.00  0.00     0.096 C 
HETATM   15  N5  UNL     1      22.266   2.703  17.431  1.00  0.00    -0.388 N 
ATOM     16  H52 UNL     1      23.174   3.122  17.230  1.00  0.00     0.157 HD
ATOM     17  H51 UNL     1      21.435   2.803  16.849  1.00  0.00     0.157 HD
BRANCH  14  18
HETATM   18  C17 UNL     1      20.833   1.386  18.782  1.00  0.00     0.304 C 
BRANCH  18  19
HETATM   19  N6  UNL     1      20.909  -0.033  19.058  1.00  0.00    -0.073 N 
ATOM     20  H63 UNL     1      20.050  -0.504  18.776  1.00  0.00     0.274 HD
ATOM     21  H62 UNL     1      21.567  -0.491  18.426  1.00  0.00     0.274 HD
ATOM     22  H61 UNL     1      21.136  -0.241  20.031  1.00  0.00     0.274 HD
ENDBRANCH  18  19
ENDBRANCH  14  18
ENDBRANCH  12  14
ENDBRANCH  11  12
ENDBRANCH  10  11
ENDBRANCH   7  10
ENDBRANCH   6   7
ENDBRANCH   4   6
BRANCH   1  23
HETATM   23  C9  UNL     1      18.112  -0.527  22.851  1.00  0.00     0.156 C 
BRANCH  23  24
HETATM   24  N2  UNL     1      17.786   0.469  23.826  1.00  0.00    -0.357 N 
HETATM   25  C8  UNL     1      16.737   0.360  24.747  1.00  0.00     0.235 C 
HETATM   26  O3  UNL     1      16.011  -0.682  24.713  1.00  0.00    -0.272 OA
ATOM     27  H2  UNL     1      18.356   1.315  23.851  1.00  0.00     0.162 HD
BRANCH  25  28
HETATM   28  C7  UNL     1      16.412   1.375  25.751  1.00  0.00     0.225 C 
BRANCH  28  29
HETATM   29  N1  UNL     1      17.116   1.200  26.973  1.00  0.00    -0.346 N 
HETATM   30  C6  UNL     1      18.487   1.464  27.205  1.00  0.00     0.288 C 
HETATM   31  O2  UNL     1      19.192   1.884  26.260  1.00  0.00    -0.264 OA
ATOM     32  H1  UNL     1      16.578   0.848  27.764  1.00  0.00     0.163 HD
BRANCH  30  33
HETATM   33  C5  UNL     1      19.067   1.252  28.514  1.00  0.00     0.224 C 
HETATM   34  O1  UNL     1      18.824   2.083  29.425  1.00  0.00    -0.286 OA
BRANCH  33  35
HETATM   35  C2  UNL     1      19.937   0.069  28.763  1.00  0.00     0.019 C 
HETATM   36  C1  UNL     1      19.406  -1.174  28.096  1.00  0.00     0.023 C 
HETATM   37  C3  UNL     1      19.902  -0.214  30.271  1.00  0.00     0.023 C 
HETATM   38  C4  UNL     1      21.361   0.331  28.381  1.00  0.00     0.023 C 
ENDBRANCH  33  35
ENDBRANCH  30  33
ENDBRANCH  28  29
ENDBRANCH  25  28
ENDBRANCH  23  24
ENDBRANCH   1  23
TORSDOF 14
ENDMDL
MODEL 3
REMARK VINA RESULT: -7.737462820      0.926      1.143
REMARK  14 active torsions:
REMARK  status: ('A' for Active; 'I' for Inactive)
REMARK    1  A    between atoms: C2_2  and  C5_5 
REMARK    2  A    between atoms: C5_5  and  C6_7 
REMARK       I    between atoms: C6_7  and  N1_9 
REMARK    3  A    between atoms: N1_9  and  C7_11 
REMARK    4  A    between atoms: C7_11  and  C8_12 
REMARK       I    between atoms: C8_12  and  N2_14 
REMARK    5  A    between atoms: N2_14  and  C9_16 
REMARK    6  A    between atoms: C9_16  and  C10_17 
REMARK    7  A    between atoms: C12_20  and  C13_21 
REMARK    8  A    between atoms: C13_21  and  N3_22 
REMARK    9  A    between atoms: N3_22  and  C14_25 
REMARK   10  A    between atoms: C14_25  and  C15_26 
REMARK   11  A    between atoms: C15_26  and  N4_27 
REMARK   12  A    between atoms: N4_27  and  C16_29 
REMARK   13  A    between atoms: C16_29  and  C17_33 
REMARK   14  A    between atoms: C17_33  and  N6_34 
ROOT
HETATM    1  C10 UNL     1      18.433  -0.121  21.493  1.00  0.00     0.166 C 
HETATM    2  C11 UNL     1      17.533  -0.531  20.327  1.00  0.00     0.204 C 
HETATM    3  O4  UNL     1      18.241   0.076  19.283  1.00  0.00    -0.357 OA
HETATM    4  C12 UNL     1      19.575  -0.096  19.612  1.00  0.00     0.285 C 
HETATM    5  O5  UNL     1      19.699  -0.298  20.960  1.00  0.00    -0.351 OA
ENDROOT
BRANCH   4   6
HETATM    6  C13 UNL     1      20.344   1.134  19.198  1.00  0.00     0.292 C 
BRANCH   6   7
HETATM    7  N3  UNL     1      21.616   0.876  18.603  1.00  0.00    -0.069 N 
ATOM      8  H32 UNL     1      22.061   0.043  18.991  1.00  0.00     0.277 HD
ATOM      9  H31 UNL     1      21.533   0.560  17.637  1.00  0.00     0.277 HD
BRANCH   7  10
HETATM   10  C14 UNL     1      22.453   2.050  18.724  1.00  0.00     0.252 C 
BRANCH  10  11
HETATM   11  C15 UNL     1      23.088   2.214  20.075  1.00  0.00     0.148 C 
BRANCH  11  12
HETATM   12  N4  UNL     1      23.460   0.950  20.663  1.00  0.00    -0.377 N 
ATOM     13  H4  UNL     1      24.033   0.314  20.108  1.00  0.00     0.160 HD
BRANCH  12  14
HETATM   14  C16 UNL     1      23.078   0.539  21.958  1.00  0.00     0.096 C 
HETATM   15  N5  UNL     1      22.067   1.146  22.473  1.00  0.00    -0.388 N 
ATOM     16  H52 UNL     1      21.604   1.876  21.931  1.00  0.00     0.157 HD
ATOM     17  H51 UNL     1      21.790   0.849  23.409  1.00  0.00     0.157 HD
BRANCH  14  18
HETATM   18  C17 UNL     1      23.741  -0.509  22.735  1.00  0.00     0.304 C 
BRANCH  18  19
HETATM   19  N6  UNL     1      23.330  -1.845  22.360  1.00  0.00    -0.073 N 
ATOM     20  H63 UNL     1      22.313  -1.912  22.312  1.00  0.00     0.274 HD
ATOM     21  H62 UNL     1      23.556  -2.033  21.383  1.00  0.00     0.274 HD
ATOM     22  H61 UNL     1      23.714  -2.570  22.967  1.00  0.00     0.274 HD
ENDBRANCH  18  19
ENDBRANCH  14  18
ENDBRANCH  12  14
ENDBRANCH  11  12
ENDBRANCH  10  11
ENDBRANCH   7  10
ENDBRANCH   6   7
ENDBRANCH   4   6
BRANCH   1  23
HETATM   23  C9  UNL     1      18.194  -0.963  22.698  1.00  0.00     0.156 C 
BRANCH  23  24
HETATM   24  N2  UNL     1      19.053  -0.613  23.788  1.00  0.00    -0.357 N 
HETATM   25  C8  UNL     1      20.238  -1.288  24.109  1.00  0.00     0.235 C 
HETATM   26  O3  UNL     1      20.572  -2.288  23.401  1.00  0.00    -0.272 OA
ATOM     27  H2  UNL     1      18.785   0.181  24.370  1.00  0.00     0.162 HD
BRANCH  25  28
HETATM   28  C7  UNL     1      21.121  -0.921  25.218  1.00  0.00     0.225 C 
BRANCH  28  29
HETATM   29  N1  UNL     1      20.420  -0.444  26.358  1.00  0.00    -0.346 N 
HETATM   30  C6  UNL     1      19.995   0.884  26.596  1.00  0.00     0.288 C 
HETATM   31  O2  UNL     1      20.253   1.765  25.744  1.00  0.00    -0.264 OA
ATOM     32  H1  UNL     1      20.202  -1.131  27.081  1.00  0.00     0.163 HD
BRANCH  30  33
HETATM   33  C5  UNL     1      19.272   1.222  27.803  1.00  0.00     0.224 C 
HETATM   34  O1  UNL     1      19.858   1.888  28.693  1.00  0.00    -0.286 OA
BRANCH  33  35
HETATM   35  C2  UNL     1      17.860   0.780  27.976  1.00  0.00     0.019 C 
HETATM   36  C1  UNL     1      17.130   0.687  26.661  1.00  0.00     0.023 C 
HETATM   37  C3  UNL     1      17.137   1.867  28.784  1.00  0.00     0.023 C 
HETATM   38  C4  UNL     1      17.765  -0.501  28.748  1.00  0.00     0.023 C 
ENDBRANCH  33  35
ENDBRANCH  30  33
ENDBRANCH  28  29
ENDBRANCH  25  28
ENDBRANCH  23  24
ENDBRANCH   1  23
TORSDOF 14
ENDMDL
MODEL 4
REMARK VINA RESULT: -7.624159343      1.587      2.380
REMARK  14 active torsions:
REMARK  status: ('A' for Active; 'I' for Inactive)
REMARK    1  A    between atoms: C2_2  and  C5_5 
REMARK    2  A    between atoms: C5_5  and  C6_7 
REMARK       I    between atoms: C6_7  and  N1_9 
REMARK    3  A    between atoms: N1_9  and  C7_11 
REMARK    4  A    between atoms: C7_11  and  C8_12 
REMARK       I    between atoms: C8_12  and  N2_14 
REMARK    5  A    between atoms: N2_14  and  C9_16 
REMARK    6  A    between atoms: C9_16  and  C10_17 
REMARK    7  A    between atoms: C12_20  and  C13_21 
REMARK    8  A    between atoms: C13_21  and  N3_22 
REMARK    9  A    between atoms: N3_22  and  C14_25 
REMARK   10  A    between atoms: C14_25  and  C15_26 
REMARK   11  A    between atoms: C15_26  and  N4_27 
REMARK   12  A    between atoms: N4_27  and  C16_29 
REMARK   13  A    between atoms: C16_29  and  C17_33 
REMARK   14  A    between atoms: C17_33  and  N6_34 
ROOT
HETATM    1  C10 UNL     1      18.115  -0.024  21.418  1.00  0.00     0.166 C 
HETATM    2  C11 UNL     1      17.501  -0.554  20.123  1.00  0.00     0.204 C 
HETATM    3  O4  UNL     1      18.412  -0.006  19.211  1.00  0.00    -0.357 OA
HETATM    4  C12 UNL     1      19.643  -0.107  19.836  1.00  0.00     0.285 C 
HETATM    5  O5  UNL     1      19.471  -0.198  21.190  1.00  0.00    -0.351 OA
ENDROOT
BRANCH   4   6
HETATM    6  C13 UNL     1      20.465   1.112  19.499  1.00  0.00     0.292 C 
BRANCH   6   7
HETATM    7  N3  UNL     1      20.885   1.196  18.137  1.00  0.00    -0.069 N 
ATOM      8  H32 UNL     1      20.993   0.276  17.709  1.00  0.00     0.277 HD
ATOM      9  H31 UNL     1      20.150   1.555  17.528  1.00  0.00     0.277 HD
BRANCH   7  10
HETATM   10  C14 UNL     1      22.096   1.984  18.053  1.00  0.00     0.252 C 
BRANCH  10  11
HETATM   11  C15 UNL     1      23.189   1.529  18.978  1.00  0.00     0.148 C 
BRANCH  11  12
HETATM   12  N4  UNL     1      23.565   2.550  19.925  1.00  0.00    -0.377 N 
ATOM     13  H4  UNL     1      23.920   3.434  19.560  1.00  0.00     0.160 HD
BRANCH  12  14
HETATM   14  C16 UNL     1      23.472   2.400  21.326  1.00  0.00     0.096 C 
HETATM   15  N5  UNL     1      23.640   3.467  22.025  1.00  0.00    -0.388 N 
ATOM     16  H52 UNL     1      23.828   4.347  21.542  1.00  0.00     0.157 HD
ATOM     17  H51 UNL     1      23.573   3.359  23.037  1.00  0.00     0.157 HD
BRANCH  14  18
HETATM   18  C17 UNL     1      23.203   1.139  22.018  1.00  0.00     0.304 C 
BRANCH  18  19
HETATM   19  N6  UNL     1      21.953   1.145  22.749  1.00  0.00    -0.073 N 
ATOM     20  H63 UNL     1      21.406   1.976  22.526  1.00  0.00     0.274 HD
ATOM     21  H62 UNL     1      21.320   0.428  22.392  1.00  0.00     0.274 HD
ATOM     22  H61 UNL     1      22.077   1.051  23.757  1.00  0.00     0.274 HD
ENDBRANCH  18  19
ENDBRANCH  14  18
ENDBRANCH  12  14
ENDBRANCH  11  12
ENDBRANCH  10  11
ENDBRANCH   7  10
ENDBRANCH   6   7
ENDBRANCH   4   6
BRANCH   1  23
HETATM   23  C9  UNL     1      17.631  -0.776  22.608  1.00  0.00     0.156 C 
BRANCH  23  24
HETATM   24  N2  UNL     1      17.509   0.054  23.768  1.00  0.00    -0.357 N 
HETATM   25  C8  UNL     1      16.518  -0.093  24.746  1.00  0.00     0.235 C 
HETATM   26  O3  UNL     1      15.655  -1.013  24.595  1.00  0.00    -0.272 OA
ATOM     27  H2  UNL     1      18.190   0.805  23.890  1.00  0.00     0.162 HD
BRANCH  25  28
HETATM   28  C7  UNL     1      16.403   0.750  25.937  1.00  0.00     0.225 C 
BRANCH  28  29
HETATM   29  N1  UNL     1      17.504   0.620  26.825  1.00  0.00    -0.346 N 
HETATM   30  C6  UNL     1      18.741   1.304  26.746  1.00  0.00     0.288 C 
HETATM   31  O2  UNL     1      18.931   2.106  25.804  1.00  0.00    -0.264 OA
ATOM     32  H1  UNL     1      17.392  -0.034  27.600  1.00  0.00     0.163 HD
BRANCH  30  33
HETATM   33  C5  UNL     1      19.771   1.081  27.738  1.00  0.00     0.224 C 
HETATM   34  O1  UNL     1      19.871   1.884  28.699  1.00  0.00    -0.286 OA
BRANCH  33  35
HETATM   35  C2  UNL     1      20.693  -0.083  27.608  1.00  0.00     0.019 C 
HETATM   36  C1  UNL     1      20.235  -1.261  28.427  1.00  0.00     0.023 C 
HETATM   37  C3  UNL     1      22.047   0.340  28.195  1.00  0.00     0.023 C 
HETATM   38  C4  UNL     1      20.915  -0.463  26.176  1.00  0.00     0.023 C 
ENDBRANCH  33  35
ENDBRANCH  30  33
ENDBRANCH  28  29
ENDBRANCH  25  28
ENDBRANCH  23  24
ENDBRANCH   1  23
TORSDOF 14
ENDMDL
MODEL 5
REMARK VINA RESULT: -7.619036493      2.357      7.454
REMARK  14 active torsions:
REMARK  status: ('A' for Active; 'I' for Inactive)
REMARK    1  A    between atoms: C2_2  and  C5_5 
REMARK    2  A    between atoms: C5_5  and  C6_7 
REMARK       I    between atoms: C6_7  and  N1_9 
REMARK    3  A    between atoms: N1_9  and  C7_11 
REMARK    4  A    between atoms: C7_11  and  C8_12 
REMARK       I    between atoms: C8_12  and  N2_14 
REMARK    5  A    between atoms: N2_14  and  C9_16 
REMARK    6  A    between atoms: C9_16  and  C10_17 
REMARK    7  A    between atoms: C12_20  and  C13_21 
REMARK    8  A    between atoms: C13_21  and  N3_22 
REMARK    9  A    between atoms: N3_22  and  C14_25 
REMARK   10  A    between atoms: C14_25  and  C15_26 
REMARK   11  A    between atoms: C15_26  and  N4_27 
REMARK   12  A    between atoms: N4_27  and  C16_29 
REMARK   13  A    between atoms: C16_29  and  C17_33 
REMARK   14  A    between atoms: C17_33  and  N6_34 
ROOT
HETATM    1  C10 UNL     1      20.426   0.265  26.941  1.00  0.00     0.166 C 
HETATM    2  C11 UNL     1      20.916   1.265  27.989  1.00  0.00     0.204 C 
HETATM    3  O4  UNL     1      19.675   1.750  28.420  1.00  0.00    -0.357 OA
HETATM    4  C12 UNL     1      18.842   0.644  28.420  1.00  0.00     0.285 C 
HETATM    5  O5  UNL     1      19.335  -0.310  27.573  1.00  0.00    -0.351 OA
ENDROOT
BRANCH   4   6
HETATM    6  C13 UNL     1      17.464   1.070  27.977  1.00  0.00     0.292 C 
BRANCH   6   7
HETATM    7  N3  UNL     1      17.360   2.432  27.563  1.00  0.00    -0.069 N 
ATOM      8  H32 UNL     1      16.610   2.926  28.048  1.00  0.00     0.277 HD
ATOM      9  H31 UNL     1      18.143   2.996  27.891  1.00  0.00     0.277 HD
BRANCH   7  10
HETATM   10  C14 UNL     1      17.210   2.490  26.124  1.00  0.00     0.252 C 
BRANCH  10  11
HETATM   11  C15 UNL     1      16.662   1.232  25.514  1.00  0.00     0.148 C 
BRANCH  11  12
HETATM   12  N4  UNL     1      17.429   0.798  24.371  1.00  0.00    -0.377 N 
ATOM     13  H4  UNL     1      17.876   1.511  23.795  1.00  0.00     0.160 HD
BRANCH  12  14
HETATM   14  C16 UNL     1      17.598  -0.554  24.002  1.00  0.00     0.096 C 
HETATM   15  N5  UNL     1      17.908  -1.368  24.948  1.00  0.00    -0.388 N 
ATOM     16  H52 UNL     1      18.014  -1.004  25.895  1.00  0.00     0.157 HD
ATOM     17  H51 UNL     1      18.030  -2.345  24.681  1.00  0.00     0.157 HD
BRANCH  14  18
HETATM   18  C17 UNL     1      17.446  -1.077  22.643  1.00  0.00     0.304 C 
BRANCH  18  19
HETATM   19  N6  UNL     1      16.101  -1.529  22.353  1.00  0.00    -0.073 N 
ATOM     20  H63 UNL     1      15.715  -2.048  23.141  1.00  0.00     0.274 HD
ATOM     21  H62 UNL     1      15.450  -0.743  22.335  1.00  0.00     0.274 HD
ATOM     22  H61 UNL     1      16.037  -2.074  21.492  1.00  0.00     0.274 HD
ENDBRANCH  18  19
ENDBRANCH  14  18
ENDBRANCH  12  14
ENDBRANCH  11  12
ENDBRANCH  10  11
ENDBRANCH   7  10
ENDBRANCH   6   7
ENDBRANCH   4   6
BRANCH   1  23
HETATM   23  C9  UNL     1      21.478  -0.730  26.592  1.00  0.00     0.156 C 
BRANCH  23  24
HETATM   24  N2  UNL     1      21.267  -1.319  25.305  1.00  0.00    -0.357 N 
HETATM   25  C8  UNL     1      22.258  -1.451  24.323  1.00  0.00     0.235 C 
HETATM   26  O3  UNL     1      23.421  -1.006  24.577  1.00  0.00    -0.272 OA
ATOM     27  H2  UNL     1      20.333  -1.667  25.087  1.00  0.00     0.162 HD
BRANCH  25  28
HETATM   28  C7  UNL     1      22.043  -2.064  23.012  1.00  0.00     0.225 C 
BRANCH  28  29
HETATM   29  N1  UNL     1      22.210  -1.154  21.933  1.00  0.00    -0.346 N 
HETATM   30  C6  UNL     1      21.615   0.123  21.803  1.00  0.00     0.288 C 
HETATM   31  O2  UNL     1      20.843   0.526  22.702  1.00  0.00    -0.264 OA
ATOM     32  H1  UNL     1      22.824  -1.453  21.175  1.00  0.00     0.163 HD
BRANCH  30  33
HETATM   33  C5  UNL     1      21.892   0.951  20.649  1.00  0.00     0.224 C 
HETATM   34  O1  UNL     1      22.746   1.867  20.753  1.00  0.00    -0.286 OA
BRANCH  33  35
HETATM   35  C2  UNL     1      21.169   0.714  19.368  1.00  0.00     0.019 C 
HETATM   36  C1  UNL     1      21.703  -0.485  18.630  1.00  0.00     0.023 C 
HETATM   37  C3  UNL     1      21.437   1.923  18.462  1.00  0.00     0.023 C 
HETATM   38  C4  UNL     1      19.687   0.617  19.573  1.00  0.00     0.023 C 
ENDBRANCH  33  35
ENDBRANCH  30  33
ENDBRANCH  28  29
ENDBRANCH  25  28
ENDBRANCH  23  24
ENDBRANCH   1  23
TORSDOF 14
ENDMDL
