MODEL 1
REMARK VINA RESULT: -6.949534514      0.000      0.000
REMARK  15 active torsions:
REMARK  status: ('A' for Active; 'I' for Inactive)
REMARK    1  A    between atoms: C2_2  and  O1_3 
REMARK    2  A    between atoms: C2_2  and  C3_5 
REMARK    3  A    between atoms: C3_5  and  N1_6 
REMARK    4  A    between atoms: C3_5  and  C15_35 
REMARK       I    between atoms: N1_6  and  C4_8 
REMARK    5  A    between atoms: C4_8  and  C5_10 
REMARK    6  A    between atoms: C5_10  and  N2_11 
REMARK    7  A    between atoms: C5_10  and  C11_31 
REMARK       I    between atoms: N2_11  and  C6_13 
REMARK    8  A    between atoms: C6_13  and  C7_15 
REMARK    9  A    between atoms: C7_15  and  N3_16 
REMARK   10  A    between atoms: C7_15  and  C8_20 
REMARK   11  A    between atoms: C8_20  and  N4_21 
REMARK   12  A    between atoms: C8_20  and  C9_25 
REMARK   13  A    between atoms: C9_25  and  C10_26 
REMARK   14  A    between atoms: C10_26  and  N5_27 
REMARK       I    between atoms: C15_35  and  N6_37 
REMARK   15  A    between atoms: N6_37  and  C16_39 
ROOT
HETATM    1  C5  UNL     1      18.439  -0.268  24.748  1.00  0.00     0.184 C 
ENDROOT
BRANCH   1   2
HETATM    2  C4  UNL     1      19.045  -0.745  23.498  1.00  0.00     0.242 C 
HETATM    3  N1  UNL     1      19.250   0.002  22.325  1.00  0.00    -0.344 N 
ATOM      4  H1  UNL     1      18.962   0.981  22.310  1.00  0.00     0.163 HD
HETATM    5  O2  UNL     1      19.432  -1.973  23.476  1.00  0.00    -0.271 OA
BRANCH   3   6
HETATM    6  C3  UNL     1      19.857  -0.570  21.130  1.00  0.00     0.205 C 
BRANCH   6   7
HETATM    7  C2  UNL     1      19.061  -0.234  19.887  1.00  0.00     0.146 C 
HETATM    8  C1  UNL     1      17.612   0.052  20.225  1.00  0.00     0.042 C 
BRANCH   7   9
HETATM    9  O1  UNL     1      19.556   0.893  19.262  1.00  0.00    -0.393 OA
ATOM     10  H1  UNL     1      20.143   0.593  18.578  1.00  0.00     0.210 HD
ENDBRANCH   7   9
ENDBRANCH   6   7
BRANCH   6  11
HETATM   11  C15 UNL     1      21.228  -0.004  20.943  1.00  0.00     0.243 C 
HETATM   12  O4  UNL     1      21.917  -0.387  19.965  1.00  0.00    -0.271 OA
HETATM   13  N6  UNL     1      21.778   0.949  21.829  1.00  0.00    -0.355 N 
ATOM     14  H6  UNL     1      21.230   1.269  22.629  1.00  0.00     0.162 HD
BRANCH  13  15
HETATM   15  C16 UNL     1      23.102   1.474  21.618  1.00  0.00     0.084 A 
HETATM   16  C17 UNL     1      23.371   2.951  21.939  1.00  0.00     0.027 A 
HETATM   17  C18 UNL     1      23.324   2.493  20.528  1.00  0.00     0.027 A 
ENDBRANCH  13  15
ENDBRANCH   6  11
ENDBRANCH   3   6
ENDBRANCH   1   2
BRANCH   1  18
HETATM   18  N2  UNL     1      19.227  -0.732  25.908  1.00  0.00    -0.345 N 
HETATM   19  C6  UNL     1      20.343   0.009  26.380  1.00  0.00     0.251 C 
HETATM   20  O3  UNL     1      20.639   1.069  25.780  1.00  0.00    -0.271 OA
ATOM     21  H2  UNL     1      18.965  -1.599  26.377  1.00  0.00     0.163 HD
BRANCH  19  22
HETATM   22  C7  UNL     1      21.177  -0.392  27.532  1.00  0.00     0.304 C 
BRANCH  22  23
HETATM   23  N3  UNL     1      21.194  -1.840  27.704  1.00  0.00    -0.064 N 
ATOM     24  H33 UNL     1      20.695  -2.121  28.548  1.00  0.00     0.275 HD
ATOM     25  H32 UNL     1      20.608  -2.305  27.011  1.00  0.00     0.275 HD
ATOM     26  H31 UNL     1      22.146  -2.208  27.694  1.00  0.00     0.275 HD
ENDBRANCH  22  23
BRANCH  22  27
HETATM   27  C8  UNL     1      20.817   0.318  28.802  1.00  0.00     0.224 C 
BRANCH  27  28
HETATM   28  N4  UNL     1      20.077   1.517  28.483  1.00  0.00    -0.072 N 
ATOM     29  H43 UNL     1      20.446   2.339  28.963  1.00  0.00     0.274 HD
ATOM     30  H42 UNL     1      20.236   1.826  27.524  1.00  0.00     0.274 HD
ATOM     31  H41 UNL     1      19.088   1.365  28.683  1.00  0.00     0.274 HD
ENDBRANCH  27  28
BRANCH  27  32
HETATM   32  C9  UNL     1      20.119  -0.554  29.794  1.00  0.00     0.062 C 
BRANCH  32  33
HETATM   33  C10 UNL     1      18.621  -0.301  29.824  1.00  0.00     0.231 C 
BRANCH  33  34
HETATM   34  N5  UNL     1      17.892  -1.501  29.413  1.00  0.00    -0.079 N 
ATOM     35  H53 UNL     1      17.791  -1.555  28.400  1.00  0.00     0.274 HD
ATOM     36  H52 UNL     1      18.442  -2.348  29.556  1.00  0.00     0.274 HD
ATOM     37  H51 UNL     1      16.990  -1.550  29.889  1.00  0.00     0.274 HD
ENDBRANCH  33  34
ENDBRANCH  32  33
ENDBRANCH  27  32
ENDBRANCH  22  27
ENDBRANCH  19  22
ENDBRANCH   1  18
BRANCH   1  38
HETATM   38  C11 UNL     1      16.994  -0.646  24.943  1.00  0.00    -0.022 C 
HETATM   39  C12 UNL     1      16.315  -1.114  23.691  1.00  0.00     0.017 C 
HETATM   40  C13 UNL     1      16.194   0.540  25.475  1.00  0.00     0.017 C 
HETATM   41  C14 UNL     1      16.840  -1.768  25.959  1.00  0.00     0.017 C 
ENDBRANCH   1  38
TORSDOF 15
ENDMDL
MODEL 2
REMARK VINA RESULT: -6.865516032      1.621      2.191
REMARK  15 active torsions:
REMARK  status: ('A' for Active; 'I' for Inactive)
REMARK    1  A    between atoms: C2_2  and  O1_3 
REMARK    2  A    between atoms: C2_2  and  C3_5 
REMARK    3  A    between atoms: C3_5  and  N1_6 
REMARK    4  A    between atoms: C3_5  and  C15_35 
REMARK       I    between atoms: N1_6  and  C4_8 
REMARK    5  A    between atoms: C4_8  and  C5_10 
REMARK    6  A    between atoms: C5_10  and  N2_11 
REMARK    7  A    between atoms: C5_10  and  C11_31 
REMARK       I    between atoms: N2_11  and  C6_13 
REMARK    8  A    between atoms: C6_13  and  C7_15 
REMARK    9  A    between atoms: C7_15  and  N3_16 
REMARK   10  A    between atoms: C7_15  and  C8_20 
REMARK   11  A    between atoms: C8_20  and  N4_21 
REMARK   12  A    between atoms: C8_20  and  C9_25 
REMARK   13  A    between atoms: C9_25  and  C10_26 
REMARK   14  A    between atoms: C10_26  and  N5_27 
REMARK       I    between atoms: C15_35  and  N6_37 
REMARK   15  A    between atoms: N6_37  and  C16_39 
ROOT
HETATM    1  C5  UNL     1      18.396   0.396  25.061  1.00  0.00     0.184 C 
ENDROOT
BRANCH   1   2
HETATM    2  C4  UNL     1      18.325  -0.399  23.828  1.00  0.00     0.242 C 
HETATM    3  N1  UNL     1      17.884   0.043  22.569  1.00  0.00    -0.344 N 
ATOM      4  H1  UNL     1      17.578   1.011  22.467  1.00  0.00     0.163 HD
HETATM    5  O2  UNL     1      18.711  -1.624  23.909  1.00  0.00    -0.271 OA
BRANCH   3   6
HETATM    6  C3  UNL     1      17.846  -0.832  21.403  1.00  0.00     0.205 C 
BRANCH   6   7
HETATM    7  C2  UNL     1      16.425  -1.129  20.976  1.00  0.00     0.146 C 
HETATM    8  C1  UNL     1      15.651  -1.812  22.086  1.00  0.00     0.042 C 
BRANCH   7   9
HETATM    9  O1  UNL     1      15.741   0.029  20.666  1.00  0.00    -0.393 OA
ATOM     10  H1  UNL     1      16.145   0.387  19.884  1.00  0.00     0.210 HD
ENDBRANCH   7   9
ENDBRANCH   6   7
BRANCH   6  11
HETATM   11  C15 UNL     1      18.523  -0.161  20.251  1.00  0.00     0.243 C 
HETATM   12  O4  UNL     1      17.904  -0.049  19.163  1.00  0.00    -0.271 OA
HETATM   13  N6  UNL     1      19.836   0.351  20.341  1.00  0.00    -0.355 N 
ATOM     14  H6  UNL     1      20.351   0.267  21.218  1.00  0.00     0.162 HD
BRANCH  13  15
HETATM   15  C16 UNL     1      20.456   0.992  19.210  1.00  0.00     0.084 A 
HETATM   16  C17 UNL     1      21.672   0.321  18.556  1.00  0.00     0.027 A 
HETATM   17  C18 UNL     1      21.846   1.559  19.356  1.00  0.00     0.027 A 
ENDBRANCH  13  15
ENDBRANCH   6  11
ENDBRANCH   3   6
ENDBRANCH   1   2
BRANCH   1  18
HETATM   18  N2  UNL     1      19.253  -0.278  26.056  1.00  0.00    -0.345 N 
HETATM   19  C6  UNL     1      20.515   0.260  26.422  1.00  0.00     0.251 C 
HETATM   20  O3  UNL     1      20.879   1.327  25.872  1.00  0.00    -0.271 OA
ATOM     21  H2  UNL     1      18.934  -1.145  26.488  1.00  0.00     0.163 HD
BRANCH  19  22
HETATM   22  C7  UNL     1      21.427  -0.358  27.408  1.00  0.00     0.304 C 
BRANCH  22  23
HETATM   23  N3  UNL     1      21.284  -1.808  27.435  1.00  0.00    -0.064 N 
ATOM     24  H33 UNL     1      20.420  -2.089  27.900  1.00  0.00     0.275 HD
ATOM     25  H32 UNL     1      21.092  -2.182  26.506  1.00  0.00     0.275 HD
ATOM     26  H31 UNL     1      22.097  -2.258  27.856  1.00  0.00     0.275 HD
ENDBRANCH  22  23
BRANCH  22  27
HETATM   27  C8  UNL     1      21.316   0.242  28.777  1.00  0.00     0.224 C 
BRANCH  27  28
HETATM   28  N4  UNL     1      20.766   1.574  28.670  1.00  0.00    -0.072 N 
ATOM     29  H43 UNL     1      21.158   2.211  29.363  1.00  0.00     0.274 HD
ATOM     30  H42 UNL     1      21.086   2.058  27.831  1.00  0.00     0.274 HD
ATOM     31  H41 UNL     1      19.749   1.523  28.723  1.00  0.00     0.274 HD
ENDBRANCH  27  28
BRANCH  27  32
HETATM   32  C9  UNL     1      20.574  -0.621  29.745  1.00  0.00     0.062 C 
BRANCH  32  33
HETATM   33  C10 UNL     1      19.219  -0.039  30.109  1.00  0.00     0.231 C 
BRANCH  33  34
HETATM   34  N5  UNL     1      18.208  -1.096  30.164  1.00  0.00    -0.079 N 
ATOM     35  H53 UNL     1      17.939  -1.413  29.233  1.00  0.00     0.274 HD
ATOM     36  H52 UNL     1      18.593  -1.973  30.517  1.00  0.00     0.274 HD
ATOM     37  H51 UNL     1      17.402  -0.790  30.709  1.00  0.00     0.274 HD
ENDBRANCH  33  34
ENDBRANCH  32  33
ENDBRANCH  27  32
ENDBRANCH  22  27
ENDBRANCH  19  22
ENDBRANCH   1  18
BRANCH   1  38
HETATM   38  C11 UNL     1      17.065   0.723  25.688  1.00  0.00    -0.022 C 
HETATM   39  C12 UNL     1      15.970  -0.232  25.319  1.00  0.00     0.017 C 
HETATM   40  C13 UNL     1      16.605   2.120  25.281  1.00  0.00     0.017 C 
HETATM   41  C14 UNL     1      17.145   0.716  27.208  1.00  0.00     0.017 C 
ENDBRANCH   1  38
TORSDOF 15
ENDMDL
MODEL 3
REMARK VINA RESULT: -6.612135954      2.700      7.739
REMARK  15 active torsions:
REMARK  status: ('A' for Active; 'I' for Inactive)
REMARK    1  A    between atoms: C2_2  and  O1_3 
REMARK    2  A    between atoms: C2_2  and  C3_5 
REMARK    3  A    between atoms: C3_5  and  N1_6 
REMARK    4  A    between atoms: C3_5  and  C15_35 
REMARK       I    between atoms: N1_6  and  C4_8 
REMARK    5  A    between atoms: C4_8  and  C5_10 
REMARK    6  A    between atoms: C5_10  and  N2_11 
REMARK    7  A    between atoms: C5_10  and  C11_31 
REMARK       I    between atoms: N2_11  and  C6_13 
REMARK    8  A    between atoms: C6_13  and  C7_15 
REMARK    9  A    between atoms: C7_15  and  N3_16 
REMARK   10  A    between atoms: C7_15  and  C8_20 
REMARK   11  A    between atoms: C8_20  and  N4_21 
REMARK   12  A    between atoms: C8_20  and  C9_25 
REMARK   13  A    between atoms: C9_25  and  C10_26 
REMARK   14  A    between atoms: C10_26  and  N5_27 
REMARK       I    between atoms: C15_35  and  N6_37 
REMARK   15  A    between atoms: N6_37  and  C16_39 
ROOT
HETATM    1  C5  UNL     1      21.361  -0.302  23.118  1.00  0.00     0.184 C 
ENDROOT
BRANCH   1   2
HETATM    2  C4  UNL     1      19.903  -0.280  23.300  1.00  0.00     0.242 C 
HETATM    3  N1  UNL     1      19.211  -0.044  24.500  1.00  0.00    -0.344 N 
ATOM      4  H1  UNL     1      19.747   0.137  25.349  1.00  0.00     0.163 HD
HETATM    5  O2  UNL     1      19.188  -0.495  22.251  1.00  0.00    -0.271 OA
BRANCH   3   6
HETATM    6  C3  UNL     1      17.755  -0.050  24.576  1.00  0.00     0.205 C 
BRANCH   6   7
HETATM    7  C2  UNL     1      17.221  -1.429  24.899  1.00  0.00     0.146 C 
HETATM    8  C1  UNL     1      15.776  -1.574  24.463  1.00  0.00     0.042 C 
BRANCH   7   9
HETATM    9  O1  UNL     1      17.936  -2.412  24.246  1.00  0.00    -0.393 OA
ATOM     10  H1  UNL     1      18.604  -2.715  24.850  1.00  0.00     0.210 HD
ENDBRANCH   7   9
ENDBRANCH   6   7
BRANCH   6  11
HETATM   11  C15 UNL     1      17.306   0.865  25.670  1.00  0.00     0.243 C 
HETATM   12  O4  UNL     1      16.610   1.869  25.376  1.00  0.00    -0.271 OA
HETATM   13  N6  UNL     1      17.637   0.641  27.024  1.00  0.00    -0.355 N 
ATOM     14  H6  UNL     1      18.203  -0.170  27.278  1.00  0.00     0.162 HD
BRANCH  13  15
HETATM   15  C16 UNL     1      17.186   1.544  28.052  1.00  0.00     0.084 A 
HETATM   16  C17 UNL     1      18.142   1.889  29.203  1.00  0.00     0.027 A 
HETATM   17  C18 UNL     1      16.967   1.018  29.448  1.00  0.00     0.027 A 
ENDBRANCH  13  15
ENDBRANCH   6  11
ENDBRANCH   3   6
ENDBRANCH   1   2
BRANCH   1  18
HETATM   18  N2  UNL     1      21.696  -0.407  21.684  1.00  0.00    -0.345 N 
HETATM   19  C6  UNL     1      22.198   0.709  20.964  1.00  0.00     0.251 C 
HETATM   20  O3  UNL     1      22.348   1.788  21.585  1.00  0.00    -0.271 OA
ATOM     21  H2  UNL     1      21.564  -1.296  21.202  1.00  0.00     0.163 HD
BRANCH  19  22
HETATM   22  C7  UNL     1      22.554   0.680  19.530  1.00  0.00     0.304 C 
BRANCH  22  23
HETATM   23  N3  UNL     1      23.691   1.545  19.241  1.00  0.00    -0.064 N 
ATOM     24  H33 UNL     1      23.805   1.688  18.237  1.00  0.00     0.275 HD
ATOM     25  H32 UNL     1      23.506   2.509  19.518  1.00  0.00     0.275 HD
ATOM     26  H31 UNL     1      24.548   1.192  19.667  1.00  0.00     0.275 HD
ENDBRANCH  22  23
BRANCH  22  27
HETATM   27  C8  UNL     1      21.393   0.960  18.624  1.00  0.00     0.224 C 
BRANCH  27  28
HETATM   28  N4  UNL     1      20.174   0.520  19.263  1.00  0.00    -0.072 N 
ATOM     29  H43 UNL     1      19.387   0.486  18.614  1.00  0.00     0.274 HD
ATOM     30  H42 UNL     1      20.201  -0.470  19.508  1.00  0.00     0.274 HD
ATOM     31  H41 UNL     1      19.983   1.114  20.070  1.00  0.00     0.274 HD
ENDBRANCH  27  28
BRANCH  27  32
HETATM   32  C9  UNL     1      21.330   2.379  18.161  1.00  0.00     0.062 C 
BRANCH  32  33
HETATM   33  C10 UNL     1      21.622   2.510  16.675  1.00  0.00     0.231 C 
BRANCH  33  34
HETATM   34  N5  UNL     1      22.316   3.769  16.401  1.00  0.00    -0.079 N 
ATOM     35  H53 UNL     1      21.696   4.459  15.977  1.00  0.00     0.274 HD
ATOM     36  H52 UNL     1      22.541   4.274  17.258  1.00  0.00     0.274 HD
ATOM     37  H51 UNL     1      23.145   3.602  15.831  1.00  0.00     0.274 HD
ENDBRANCH  33  34
ENDBRANCH  32  33
ENDBRANCH  27  32
ENDBRANCH  22  27
ENDBRANCH  19  22
ENDBRANCH   1  18
BRANCH   1  38
HETATM   38  C11 UNL     1      22.084  -1.382  23.880  1.00  0.00    -0.022 C 
HETATM   39  C12 UNL     1      21.624  -2.770  23.549  1.00  0.00     0.017 C 
HETATM   40  C13 UNL     1      21.906  -1.193  25.384  1.00  0.00     0.017 C 
HETATM   41  C14 UNL     1      23.581  -1.352  23.611  1.00  0.00     0.017 C 
ENDBRANCH   1  38
TORSDOF 15
ENDMDL
MODEL 4
REMARK VINA RESULT: -6.591341835      2.234      5.947
REMARK  15 active torsions:
REMARK  status: ('A' for Active; 'I' for Inactive)
REMARK    1  A    between atoms: C2_2  and  O1_3 
REMARK    2  A    between atoms: C2_2  and  C3_5 
REMARK    3  A    between atoms: C3_5  and  N1_6 
REMARK    4  A    between atoms: C3_5  and  C15_35 
REMARK       I    between atoms: N1_6  and  C4_8 
REMARK    5  A    between atoms: C4_8  and  C5_10 
REMARK    6  A    between atoms: C5_10  and  N2_11 
REMARK    7  A    between atoms: C5_10  and  C11_31 
REMARK       I    between atoms: N2_11  and  C6_13 
REMARK    8  A    between atoms: C6_13  and  C7_15 
REMARK    9  A    between atoms: C7_15  and  N3_16 
REMARK   10  A    between atoms: C7_15  and  C8_20 
REMARK   11  A    between atoms: C8_20  and  N4_21 
REMARK   12  A    between atoms: C8_20  and  C9_25 
REMARK   13  A    between atoms: C9_25  and  C10_26 
REMARK   14  A    between atoms: C10_26  and  N5_27 
REMARK       I    between atoms: C15_35  and  N6_37 
REMARK   15  A    between atoms: N6_37  and  C16_39 
ROOT
HETATM    1  C5  UNL     1      20.766  -0.119  26.667  1.00  0.00     0.184 C 
ENDROOT
BRANCH   1   2
HETATM    2  C4  UNL     1      19.319  -0.205  26.430  1.00  0.00     0.242 C 
HETATM    3  N1  UNL     1      18.549   0.649  25.622  1.00  0.00    -0.344 N 
ATOM      4  H1  UNL     1      19.013   1.415  25.133  1.00  0.00     0.163 HD
HETATM    5  O2  UNL     1      18.694  -1.163  27.020  1.00  0.00    -0.271 OA
BRANCH   3   6
HETATM    6  C3  UNL     1      17.110   0.481  25.457  1.00  0.00     0.205 C 
BRANCH   6   7
HETATM    7  C2  UNL     1      16.395   1.815  25.419  1.00  0.00     0.146 C 
HETATM    8  C1  UNL     1      16.650   2.608  26.686  1.00  0.00     0.042 C 
BRANCH   7   9
HETATM    9  O1  UNL     1      16.833   2.591  24.366  1.00  0.00    -0.393 OA
ATOM     10  H1  UNL     1      17.345   2.025  23.801  1.00  0.00     0.210 HD
ENDBRANCH   7   9
ENDBRANCH   6   7
BRANCH   6  11
HETATM   11  C15 UNL     1      16.831  -0.206  24.158  1.00  0.00     0.243 C 
HETATM   12  O4  UNL     1      15.827  -0.958  24.071  1.00  0.00    -0.271 OA
HETATM   13  N6  UNL     1      17.656  -0.041  23.025  1.00  0.00    -0.355 N 
ATOM     14  H6  UNL     1      18.474   0.566  23.081  1.00  0.00     0.162 HD
BRANCH  13  15
HETATM   15  C16 UNL     1      17.355  -0.718  21.789  1.00  0.00     0.084 A 
HETATM   16  C17 UNL     1      18.199  -0.397  20.547  1.00  0.00     0.027 A 
HETATM   17  C18 UNL     1      16.794   0.072  20.634  1.00  0.00     0.027 A 
ENDBRANCH  13  15
ENDBRANCH   6  11
ENDBRANCH   3   6
ENDBRANCH   1   2
BRANCH   1  18
HETATM   18  N2  UNL     1      21.493  -0.977  25.710  1.00  0.00    -0.345 N 
HETATM   19  C6  UNL     1      21.423  -0.740  24.312  1.00  0.00     0.251 C 
HETATM   20  O3  UNL     1      20.724   0.221  23.915  1.00  0.00    -0.271 OA
ATOM     21  H2  UNL     1      22.055  -1.754  26.060  1.00  0.00     0.163 HD
BRANCH  19  22
HETATM   22  C7  UNL     1      22.122  -1.557  23.297  1.00  0.00     0.304 C 
BRANCH  22  23
HETATM   23  N3  UNL     1      22.417  -2.895  23.794  1.00  0.00    -0.064 N 
ATOM     24  H33 UNL     1      22.787  -3.494  23.055  1.00  0.00     0.275 HD
ATOM     25  H32 UNL     1      23.225  -2.892  24.415  1.00  0.00     0.275 HD
ATOM     26  H31 UNL     1      21.603  -3.316  24.243  1.00  0.00     0.275 HD
ENDBRANCH  22  23
BRANCH  22  27
HETATM   27  C8  UNL     1      23.338  -0.888  22.732  1.00  0.00     0.224 C 
BRANCH  27  28
HETATM   28  N4  UNL     1      24.375  -1.874  22.535  1.00  0.00    -0.072 N 
ATOM     29  H43 UNL     1      24.417  -2.551  23.297  1.00  0.00     0.274 HD
ATOM     30  H42 UNL     1      24.155  -2.522  21.778  1.00  0.00     0.274 HD
ATOM     31  H41 UNL     1      25.267  -1.400  22.391  1.00  0.00     0.274 HD
ENDBRANCH  27  28
BRANCH  27  32
HETATM   32  C9  UNL     1      23.059  -0.081  21.506  1.00  0.00     0.062 C 
BRANCH  32  33
HETATM   33  C10 UNL     1      23.441   1.379  21.681  1.00  0.00     0.231 C 
BRANCH  33  34
HETATM   34  N5  UNL     1      22.538   2.032  22.630  1.00  0.00    -0.079 N 
ATOM     35  H53 UNL     1      21.658   2.302  22.192  1.00  0.00     0.274 HD
ATOM     36  H52 UNL     1      22.170   1.376  23.318  1.00  0.00     0.274 HD
ATOM     37  H51 UNL     1      23.001   2.826  23.073  1.00  0.00     0.274 HD
ENDBRANCH  33  34
ENDBRANCH  32  33
ENDBRANCH  27  32
ENDBRANCH  22  27
ENDBRANCH  19  22
ENDBRANCH   1  18
BRANCH   1  38
HETATM   38  C11 UNL     1      21.205  -0.451  28.069  1.00  0.00    -0.022 C 
HETATM   39  C12 UNL     1      20.242  -0.005  29.128  1.00  0.00     0.017 C 
HETATM   40  C13 UNL     1      22.551   0.198  28.380  1.00  0.00     0.017 C 
HETATM   41  C14 UNL     1      21.388  -1.949  28.259  1.00  0.00     0.017 C 
ENDBRANCH   1  38
TORSDOF 15
ENDMDL
MODEL 5
REMARK VINA RESULT: -6.549882750      1.615      1.961
REMARK  15 active torsions:
REMARK  status: ('A' for Active; 'I' for Inactive)
REMARK    1  A    between atoms: C2_2  and  O1_3 
REMARK    2  A    between atoms: C2_2  and  C3_5 
REMARK    3  A    between atoms: C3_5  and  N1_6 
REMARK    4  A    between atoms: C3_5  and  C15_35 
REMARK       I    between atoms: N1_6  and  C4_8 
REMARK    5  A    between atoms: C4_8  and  C5_10 
REMARK    6  A    between atoms: C5_10  and  N2_11 
REMARK    7  A    between atoms: C5_10  and  C11_31 
REMARK       I    between atoms: N2_11  and  C6_13 
REMARK    8  A    between atoms: C6_13  and  C7_15 
REMARK    9  A    between atoms: C7_15  and  N3_16 
REMARK   10  A    between atoms: C7_15  and  C8_20 
REMARK   11  A    between atoms: C8_20  and  N4_21 
REMARK   12  A    between atoms: C8_20  and  C9_25 
REMARK   13  A    between atoms: C9_25  and  C10_26 
REMARK   14  A    between atoms: C10_26  and  N5_27 
REMARK       I    between atoms: C15_35  and  N6_37 
REMARK   15  A    between atoms: N6_37  and  C16_39 
ROOT
HETATM    1  C5  UNL     1      17.820  -0.483  24.640  1.00  0.00     0.184 C 
ENDROOT
BRANCH   1   2
HETATM    2  C4  UNL     1      18.752  -0.764  23.540  1.00  0.00     0.242 C 
HETATM    3  N1  UNL     1      18.951   0.016  22.388  1.00  0.00    -0.344 N 
ATOM      4  H1  UNL     1      18.410   0.875  22.277  1.00  0.00     0.163 HD
HETATM    5  O2  UNL     1      19.461  -1.834  23.644  1.00  0.00    -0.271 OA
BRANCH   3   6
HETATM    6  C3  UNL     1      19.900  -0.356  21.346  1.00  0.00     0.205 C 
BRANCH   6   7
HETATM    7  C2  UNL     1      19.672   0.438  20.077  1.00  0.00     0.146 C 
HETATM    8  C1  UNL     1      20.829   0.273  19.112  1.00  0.00     0.042 C 
BRANCH   7   9
HETATM    9  O1  UNL     1      18.537   0.015  19.416  1.00  0.00    -0.393 OA
ATOM     10  H1  UNL     1      18.606   0.329  18.522  1.00  0.00     0.210 HD
ENDBRANCH   7   9
ENDBRANCH   6   7
BRANCH   6  11
HETATM   11  C15 UNL     1      21.292  -0.063  21.807  1.00  0.00     0.243 C 
HETATM   12  O4  UNL     1      21.606   1.123  22.077  1.00  0.00    -0.271 OA
HETATM   13  N6  UNL     1      22.267  -1.073  21.950  1.00  0.00    -0.355 N 
ATOM     14  H6  UNL     1      22.027  -2.041  21.733  1.00  0.00     0.162 HD
BRANCH  13  15
HETATM   15  C16 UNL     1      23.599  -0.754  22.397  1.00  0.00     0.084 A 
HETATM   16  C17 UNL     1      24.576  -1.902  22.687  1.00  0.00     0.027 A 
HETATM   17  C18 UNL     1      24.007  -1.110  23.805  1.00  0.00     0.027 A 
ENDBRANCH  13  15
ENDBRANCH   6  11
ENDBRANCH   3   6
ENDBRANCH   1   2
BRANCH   1  18
HETATM   18  N2  UNL     1      18.446  -0.811  25.937  1.00  0.00    -0.345 N 
HETATM   19  C6  UNL     1      19.162   0.169  26.675  1.00  0.00     0.251 C 
HETATM   20  O3  UNL     1      19.246   1.322  26.190  1.00  0.00    -0.271 OA
ATOM     21  H2  UNL     1      18.364  -1.757  26.308  1.00  0.00     0.163 HD
BRANCH  19  22
HETATM   22  C7  UNL     1      19.814  -0.086  27.977  1.00  0.00     0.304 C 
BRANCH  22  23
HETATM   23  N3  UNL     1      20.055  -1.508  28.187  1.00  0.00    -0.064 N 
ATOM     24  H33 UNL     1      19.568  -1.850  29.016  1.00  0.00     0.275 HD
ATOM     25  H32 UNL     1      19.584  -2.074  27.482  1.00  0.00     0.275 HD
ATOM     26  H31 UNL     1      21.052  -1.717  28.228  1.00  0.00     0.275 HD
ENDBRANCH  22  23
BRANCH  22  27
HETATM   27  C8  UNL     1      19.094   0.538  29.134  1.00  0.00     0.224 C 
BRANCH  27  28
HETATM   28  N4  UNL     1      17.913   1.216  28.651  1.00  0.00    -0.072 N 
ATOM     29  H43 UNL     1      17.478   0.725  27.869  1.00  0.00     0.274 HD
ATOM     30  H42 UNL     1      17.137   1.157  29.309  1.00  0.00     0.274 HD
ATOM     31  H41 UNL     1      18.151   2.180  28.417  1.00  0.00     0.274 HD
ENDBRANCH  27  28
BRANCH  27  32
HETATM   32  C9  UNL     1      18.805  -0.422  30.241  1.00  0.00     0.062 C 
BRANCH  32  33
HETATM   33  C10 UNL     1      17.321  -0.728  30.362  1.00  0.00     0.231 C 
BRANCH  33  34
HETATM   34  N5  UNL     1      17.027  -2.051  29.811  1.00  0.00    -0.079 N 
ATOM     35  H53 UNL     1      17.653  -2.291  29.043  1.00  0.00     0.274 HD
ATOM     36  H52 UNL     1      17.286  -2.798  30.456  1.00  0.00     0.274 HD
ATOM     37  H51 UNL     1      16.046  -2.112  29.535  1.00  0.00     0.274 HD
ENDBRANCH  33  34
ENDBRANCH  32  33
ENDBRANCH  27  32
ENDBRANCH  22  27
ENDBRANCH  19  22
ENDBRANCH   1  18
BRANCH   1  38
HETATM   38  C11 UNL     1      16.486  -1.175  24.541  1.00  0.00    -0.022 C 
HETATM   39  C12 UNL     1      16.131  -1.613  23.152  1.00  0.00     0.017 C 
HETATM   40  C13 UNL     1      15.366  -0.257  25.025  1.00  0.00     0.017 C 
HETATM   41  C14 UNL     1      16.435  -2.422  25.411  1.00  0.00     0.017 C 
ENDBRANCH   1  38
TORSDOF 15
ENDMDL
