MODEL 1
REMARK VINA RESULT: -8.262786122      0.000      0.000
REMARK  13 active torsions:
REMARK  status: ('A' for Active; 'I' for Inactive)
REMARK    1  A    between atoms: C2_2  and  C3_4 
REMARK    2  A    between atoms: C3_4  and  C6_12 
REMARK    3  A    between atoms: N1_5  and  O2_7 
REMARK    4  A    between atoms: O2_7  and  C4_8 
REMARK    5  A    between atoms: C4_8  and  C5_9 
REMARK    6  A    between atoms: C6_12  and  N3_13 
REMARK    7  A    between atoms: C6_12  and  N4_17 
REMARK    8  A    between atoms: N4_17  and  C7_19 
REMARK    9  A    between atoms: C9_24  and  C10_25 
REMARK       I    between atoms: C10_25  and  N6_27 
REMARK   10  A    between atoms: N6_27  and  C11_29 
REMARK   11  A    between atoms: C11_29  and  C12_30 
REMARK   12  A    between atoms: C11_29  and  C13_36 
REMARK   13  A    between atoms: C12_30  and  O5_34 
ROOT
HETATM    1  C7  UNL     1      17.276   0.027  21.777  1.00  0.00     0.107 C 
HETATM    2  C8  UNL     1      16.709  -0.324  20.462  1.00  0.00     0.257 C 
HETATM    3  N5  UNL     1      17.730   0.224  19.503  1.00  0.00    -0.060 N 
ATOM      4  H51 UNL     1      17.773   1.240  19.432  1.00  0.00     0.278 HD
ATOM      5  H52 UNL     1      17.531   0.082  18.512  1.00  0.00     0.278 HD
HETATM    6  C9  UNL     1      18.892  -0.410  19.995  1.00  0.00     0.279 C 
HETATM    7  C16 UNL     1      18.771  -0.332  21.527  1.00  0.00     0.069 C 
ENDROOT
BRANCH   1   8
HETATM    8  N4  UNL     1      16.927  -0.692  22.940  1.00  0.00    -0.385 N 
ATOM      9  H4  UNL     1      15.977  -1.039  23.070  1.00  0.00     0.156 HD
BRANCH   8  10
HETATM   10  C6  UNL     1      17.906  -0.921  23.914  1.00  0.00     0.334 C 
BRANCH  10  11
HETATM   11  C3  UNL     1      18.142   0.281  24.824  1.00  0.00     0.126 C 
HETATM   12  N1  UNL     1      19.287   0.524  25.133  1.00  0.00    -0.263 N 
ATOM     13  H1  UNL     1      19.777  -0.151  24.547  1.00  0.00     0.194 HD
BRANCH  11  14
HETATM   14  C2  UNL     1      16.934   0.930  25.316  1.00  0.00     0.173 C 
HETATM   15  C1  UNL     1      16.955   2.344  25.759  1.00  0.00     0.098 C 
HETATM   16  O1  UNL     1      15.839   0.316  25.334  1.00  0.00    -0.291 OA
ENDBRANCH  11  14
BRANCH  12  17
HETATM   17  O2  UNL     1      20.273   1.072  25.712  1.00  0.00    -0.271 OA
BRANCH  17  18
HETATM   18  C4  UNL     1      20.884   0.757  26.966  1.00  0.00     0.300 C 
BRANCH  18  19
HETATM   19  C5  UNL     1      21.515  -0.603  26.787  1.00  0.00     0.257 C 
HETATM   20  N2  UNL     1      21.576  -1.541  27.808  1.00  0.00    -0.060 NA
HETATM   21  O3  UNL     1      22.030  -0.936  25.668  1.00  0.00    -0.274 OA
ENDBRANCH  18  19
ENDBRANCH  17  18
ENDBRANCH  12  17
ENDBRANCH  10  11
BRANCH  10  22
HETATM   22  N3  UNL     1      17.718  -2.069  24.699  1.00  0.00    -0.053 N 
ATOM     23  H33 UNL     1      18.597  -2.544  24.906  1.00  0.00     0.277 HD
ATOM     24  H32 UNL     1      17.448  -1.841  25.657  1.00  0.00     0.277 HD
ATOM     25  H31 UNL     1      17.044  -2.684  24.244  1.00  0.00     0.277 HD
ENDBRANCH  10  22
ENDBRANCH   8  10
ENDBRANCH   1   8
BRANCH   6  26
HETATM   26  C10 UNL     1      20.170   0.358  19.711  1.00  0.00     0.249 C 
HETATM   27  O4  UNL     1      20.107   1.167  18.757  1.00  0.00    -0.271 OA
HETATM   28  N6  UNL     1      21.184   0.044  20.561  1.00  0.00    -0.347 N 
ATOM     29  H6  UNL     1      20.855  -0.722  21.148  1.00  0.00     0.163 HD
BRANCH  28  30
HETATM   30  C11 UNL     1      22.470   0.331  20.957  1.00  0.00     0.162 C 
BRANCH  30  31
HETATM   31  C12 UNL     1      22.606   0.201  22.473  1.00  0.00     0.132 C 
HETATM   32  N7  UNL     1      23.519  -0.357  23.074  1.00  0.00    -0.382 N 
ATOM     33  H72 UNL     1      24.297  -0.778  22.566  1.00  0.00     0.158 HD
ATOM     34  H71 UNL     1      23.610  -0.444  24.086  1.00  0.00     0.158 HD
BRANCH  31  35
HETATM   35  O5  UNL     1      21.541   0.777  23.167  1.00  0.00    -0.348 OA
ATOM     36  H5  UNL     1      21.525   1.725  23.103  1.00  0.00     0.219 HD
ENDBRANCH  31  35
ENDBRANCH  30  31
BRANCH  30  37
HETATM   37  C13 UNL     1      22.864   1.731  20.562  1.00  0.00     0.008 C 
HETATM   38  C14 UNL     1      23.484   2.580  21.608  1.00  0.00     0.012 C 
HETATM   39  C15 UNL     1      23.271   1.861  19.146  1.00  0.00     0.012 C 
ENDBRANCH  30  37
ENDBRANCH  28  30
ENDBRANCH   6  26
TORSDOF 13
ENDMDL
MODEL 2
REMARK VINA RESULT: -8.182834350      2.333      4.860
REMARK  13 active torsions:
REMARK  status: ('A' for Active; 'I' for Inactive)
REMARK    1  A    between atoms: C2_2  and  C3_4 
REMARK    2  A    between atoms: C3_4  and  C6_12 
REMARK    3  A    between atoms: N1_5  and  O2_7 
REMARK    4  A    between atoms: O2_7  and  C4_8 
REMARK    5  A    between atoms: C4_8  and  C5_9 
REMARK    6  A    between atoms: C6_12  and  N3_13 
REMARK    7  A    between atoms: C6_12  and  N4_17 
REMARK    8  A    between atoms: N4_17  and  C7_19 
REMARK    9  A    between atoms: C9_24  and  C10_25 
REMARK       I    between atoms: C10_25  and  N6_27 
REMARK   10  A    between atoms: N6_27  and  C11_29 
REMARK   11  A    between atoms: C11_29  and  C12_30 
REMARK   12  A    between atoms: C11_29  and  C13_36 
REMARK   13  A    between atoms: C12_30  and  O5_34 
ROOT
HETATM    1  C7  UNL     1      20.695  -1.211  24.308  1.00  0.00     0.107 C 
HETATM    2  C8  UNL     1      21.050  -2.641  24.246  1.00  0.00     0.257 C 
HETATM    3  N5  UNL     1      22.061  -2.684  23.133  1.00  0.00    -0.060 N 
ATOM      4  H51 UNL     1      21.694  -2.532  22.194  1.00  0.00     0.278 HD
ATOM      5  H52 UNL     1      22.450  -3.603  22.921  1.00  0.00     0.278 HD
HETATM    6  C9  UNL     1      22.980  -1.718  23.601  1.00  0.00     0.279 C 
HETATM    7  C16 UNL     1      22.111  -0.578  24.160  1.00  0.00     0.069 C 
ENDROOT
BRANCH   1   8
HETATM    8  N4  UNL     1      20.171  -0.638  25.487  1.00  0.00    -0.385 N 
ATOM      9  H4  UNL     1      20.552  -0.889  26.399  1.00  0.00     0.156 HD
BRANCH   8  10
HETATM   10  C6  UNL     1      19.120   0.281  25.384  1.00  0.00     0.334 C 
BRANCH  10  11
HETATM   11  C3  UNL     1      17.881  -0.297  24.706  1.00  0.00     0.126 C 
HETATM   12  N1  UNL     1      17.684   0.017  23.554  1.00  0.00    -0.263 N 
ATOM     13  H1  UNL     1      18.545   0.528  23.359  1.00  0.00     0.194 HD
BRANCH  11  14
HETATM   14  C2  UNL     1      17.006  -1.072  25.576  1.00  0.00     0.173 C 
HETATM   15  C1  UNL     1      15.604  -1.358  25.187  1.00  0.00     0.098 C 
HETATM   16  O1  UNL     1      17.436  -1.553  26.654  1.00  0.00    -0.291 OA
ENDBRANCH  11  14
BRANCH  12  17
HETATM   17  O2  UNL     1      17.104   0.124  22.431  1.00  0.00    -0.271 OA
BRANCH  17  18
HETATM   18  C4  UNL     1      17.093  -0.778  21.321  1.00  0.00     0.300 C 
BRANCH  18  19
HETATM   19  C5  UNL     1      16.739   0.058  20.115  1.00  0.00     0.257 C 
HETATM   20  N2  UNL     1      17.554   0.141  18.995  1.00  0.00    -0.060 NA
HETATM   21  O3  UNL     1      15.657   0.736  20.091  1.00  0.00    -0.274 OA
ENDBRANCH  18  19
ENDBRANCH  17  18
ENDBRANCH  12  17
ENDBRANCH  10  11
BRANCH  10  22
HETATM   22  N3  UNL     1      18.745   0.905  26.583  1.00  0.00    -0.053 N 
ATOM     23  H33 UNL     1      18.437   1.867  26.439  1.00  0.00     0.277 HD
ATOM     24  H32 UNL     1      17.874   0.529  26.959  1.00  0.00     0.277 HD
ATOM     25  H31 UNL     1      19.513   0.842  27.252  1.00  0.00     0.277 HD
ENDBRANCH  10  22
ENDBRANCH   8  10
ENDBRANCH   1   8
BRANCH   6  26
HETATM   26  C10 UNL     1      23.765  -1.041  22.493  1.00  0.00     0.249 C 
HETATM   27  O4  UNL     1      24.918  -1.492  22.302  1.00  0.00    -0.271 OA
HETATM   28  N6  UNL     1      23.072  -0.048  21.875  1.00  0.00    -0.347 N 
ATOM     29  H6  UNL     1      22.193   0.062  22.381  1.00  0.00     0.163 HD
BRANCH  28  30
HETATM   30  C11 UNL     1      23.064   0.869  20.849  1.00  0.00     0.162 C 
BRANCH  30  31
HETATM   31  C12 UNL     1      23.440   2.256  21.368  1.00  0.00     0.132 C 
HETATM   32  N7  UNL     1      23.121   2.735  22.453  1.00  0.00    -0.382 N 
ATOM     33  H72 UNL     1      22.567   2.197  23.118  1.00  0.00     0.158 HD
ATOM     34  H71 UNL     1      23.372   3.661  22.799  1.00  0.00     0.158 HD
BRANCH  31  35
HETATM   35  O5  UNL     1      24.198   2.993  20.458  1.00  0.00    -0.348 OA
ATOM     36  H5  UNL     1      25.098   3.117  20.737  1.00  0.00     0.219 HD
ENDBRANCH  31  35
ENDBRANCH  30  31
BRANCH  30  37
HETATM   37  C13 UNL     1      21.706   0.955  20.203  1.00  0.00     0.008 C 
HETATM   38  C14 UNL     1      21.665   1.235  18.748  1.00  0.00     0.012 C 
HETATM   39  C15 UNL     1      20.688   0.085  20.833  1.00  0.00     0.012 C 
ENDBRANCH  30  37
ENDBRANCH  28  30
ENDBRANCH   6  26
TORSDOF 13
ENDMDL
MODEL 3
REMARK VINA RESULT: -8.180036837      2.453      4.199
REMARK  13 active torsions:
REMARK  status: ('A' for Active; 'I' for Inactive)
REMARK    1  A    between atoms: C2_2  and  C3_4 
REMARK    2  A    between atoms: C3_4  and  C6_12 
REMARK    3  A    between atoms: N1_5  and  O2_7 
REMARK    4  A    between atoms: O2_7  and  C4_8 
REMARK    5  A    between atoms: C4_8  and  C5_9 
REMARK    6  A    between atoms: C6_12  and  N3_13 
REMARK    7  A    between atoms: C6_12  and  N4_17 
REMARK    8  A    between atoms: N4_17  and  C7_19 
REMARK    9  A    between atoms: C9_24  and  C10_25 
REMARK       I    between atoms: C10_25  and  N6_27 
REMARK   10  A    between atoms: N6_27  and  C11_29 
REMARK   11  A    between atoms: C11_29  and  C12_30 
REMARK   12  A    between atoms: C11_29  and  C13_36 
REMARK   13  A    between atoms: C12_30  and  O5_34 
ROOT
HETATM    1  C7  UNL     1      19.519  -0.427  25.002  1.00  0.00     0.107 C 
HETATM    2  C8  UNL     1      18.814  -0.829  23.771  1.00  0.00     0.257 C 
HETATM    3  N5  UNL     1      19.775  -0.418  22.689  1.00  0.00    -0.060 N 
ATOM      4  H51 UNL     1      19.873   0.586  22.539  1.00  0.00     0.278 HD
ATOM      5  H52 UNL     1      19.479  -0.614  21.733  1.00  0.00     0.278 HD
HETATM    6  C9  UNL     1      20.937  -1.093  23.125  1.00  0.00     0.279 C 
HETATM    7  C16 UNL     1      20.960  -0.902  24.652  1.00  0.00     0.069 C 
ENDROOT
BRANCH   1   8
HETATM    8  N4  UNL     1      19.234  -1.039  26.242  1.00  0.00    -0.385 N 
ATOM      9  H4  UNL     1      18.551  -1.794  26.302  1.00  0.00     0.156 HD
BRANCH   8  10
HETATM   10  C6  UNL     1      19.903  -0.593  27.387  1.00  0.00     0.334 C 
BRANCH  10  11
HETATM   11  C3  UNL     1      19.066   0.354  28.242  1.00  0.00     0.126 C 
HETATM   12  N1  UNL     1      18.623   1.342  27.700  1.00  0.00    -0.263 N 
ATOM     13  H1  UNL     1      18.888   1.150  26.734  1.00  0.00     0.194 HD
BRANCH  11  14
HETATM   14  C2  UNL     1      19.000   0.014  29.657  1.00  0.00     0.173 C 
HETATM   15  C1  UNL     1      17.760  -0.541  30.250  1.00  0.00     0.098 C 
HETATM   16  O1  UNL     1      20.008   0.143  30.395  1.00  0.00    -0.291 OA
ENDBRANCH  11  14
BRANCH  12  17
HETATM   17  O2  UNL     1      18.044   2.460  27.552  1.00  0.00    -0.271 OA
BRANCH  17  18
HETATM   18  C4  UNL     1      16.771   2.757  26.969  1.00  0.00     0.300 C 
BRANCH  18  19
HETATM   19  C5  UNL     1      16.708   1.958  25.690  1.00  0.00     0.257 C 
HETATM   20  N2  UNL     1      16.302   0.632  25.654  1.00  0.00    -0.060 NA
HETATM   21  O3  UNL     1      17.043   2.488  24.578  1.00  0.00    -0.274 OA
ENDBRANCH  18  19
ENDBRANCH  17  18
ENDBRANCH  12  17
ENDBRANCH  10  11
BRANCH  10  22
HETATM   22  N3  UNL     1      20.441  -1.601  28.202  1.00  0.00    -0.053 N 
ATOM     23  H33 UNL     1      21.461  -1.608  28.185  1.00  0.00     0.277 HD
ATOM     24  H32 UNL     1      20.313  -1.404  29.195  1.00  0.00     0.277 HD
ATOM     25  H31 UNL     1      20.045  -2.501  27.933  1.00  0.00     0.277 HD
ENDBRANCH  10  22
ENDBRANCH   8  10
ENDBRANCH   1   8
BRANCH   6  26
HETATM   26  C10 UNL     1      22.228  -0.434  22.676  1.00  0.00     0.249 C 
HETATM   27  O4  UNL     1      23.224  -0.660  23.400  1.00  0.00    -0.271 OA
HETATM   28  N6  UNL     1      22.088   0.294  21.536  1.00  0.00    -0.347 N 
ATOM     29  H6  UNL     1      21.096   0.292  21.300  1.00  0.00     0.163 HD
BRANCH  28  30
HETATM   30  C11 UNL     1      22.731   1.033  20.570  1.00  0.00     0.162 C 
BRANCH  30  31
HETATM   31  C12 UNL     1      23.385   2.268  21.187  1.00  0.00     0.132 C 
HETATM   32  N7  UNL     1      23.108   2.770  22.272  1.00  0.00    -0.382 N 
ATOM     33  H72 UNL     1      22.392   2.357  22.869  1.00  0.00     0.158 HD
ATOM     34  H71 UNL     1      23.544   3.595  22.684  1.00  0.00     0.158 HD
BRANCH  31  35
HETATM   35  O5  UNL     1      24.365   2.833  20.369  1.00  0.00    -0.348 OA
ATOM     36  H5  UNL     1      24.367   3.783  20.392  1.00  0.00     0.219 HD
ENDBRANCH  31  35
ENDBRANCH  30  31
BRANCH  30  37
HETATM   37  C13 UNL     1      21.772   1.487  19.500  1.00  0.00     0.008 C 
HETATM   38  C14 UNL     1      22.356   1.955  18.221  1.00  0.00     0.012 C 
HETATM   39  C15 UNL     1      20.473   0.778  19.522  1.00  0.00     0.012 C 
ENDBRANCH  30  37
ENDBRANCH  28  30
ENDBRANCH   6  26
TORSDOF 13
ENDMDL
MODEL 4
REMARK VINA RESULT: -8.164706937      2.272      3.447
REMARK  13 active torsions:
REMARK  status: ('A' for Active; 'I' for Inactive)
REMARK    1  A    between atoms: C2_2  and  C3_4 
REMARK    2  A    between atoms: C3_4  and  C6_12 
REMARK    3  A    between atoms: N1_5  and  O2_7 
REMARK    4  A    between atoms: O2_7  and  C4_8 
REMARK    5  A    between atoms: C4_8  and  C5_9 
REMARK    6  A    between atoms: C6_12  and  N3_13 
REMARK    7  A    between atoms: C6_12  and  N4_17 
REMARK    8  A    between atoms: N4_17  and  C7_19 
REMARK    9  A    between atoms: C9_24  and  C10_25 
REMARK       I    between atoms: C10_25  and  N6_27 
REMARK   10  A    between atoms: N6_27  and  C11_29 
REMARK   11  A    between atoms: C11_29  and  C12_30 
REMARK   12  A    between atoms: C11_29  and  C13_36 
REMARK   13  A    between atoms: C12_30  and  O5_34 
ROOT
HETATM    1  C7  UNL     1      20.571  -1.502  23.922  1.00  0.00     0.107 C 
HETATM    2  C8  UNL     1      21.114  -2.872  23.975  1.00  0.00     0.257 C 
HETATM    3  N5  UNL     1      22.232  -2.825  22.970  1.00  0.00    -0.060 N 
ATOM      4  H51 UNL     1      21.949  -2.765  21.992  1.00  0.00     0.278 HD
ATOM      5  H52 UNL     1      22.758  -3.691  22.849  1.00  0.00     0.278 HD
HETATM    6  C9  UNL     1      22.964  -1.725  23.470  1.00  0.00     0.279 C 
HETATM    7  C16 UNL     1      21.900  -0.690  23.877  1.00  0.00     0.069 C 
ENDROOT
BRANCH   1   8
HETATM    8  N4  UNL     1      19.857  -0.955  25.010  1.00  0.00    -0.385 N 
ATOM      9  H4  UNL     1      20.297  -0.862  25.925  1.00  0.00     0.156 HD
BRANCH   8  10
HETATM   10  C6  UNL     1      18.534  -0.541  24.813  1.00  0.00     0.334 C 
BRANCH  10  11
HETATM   11  C3  UNL     1      18.014   0.360  25.928  1.00  0.00     0.126 C 
HETATM   12  N1  UNL     1      18.566   0.285  27.003  1.00  0.00    -0.263 N 
ATOM     13  H1  UNL     1      19.338  -0.337  26.764  1.00  0.00     0.194 HD
BRANCH  11  14
HETATM   14  C2  UNL     1      16.821   1.128  25.597  1.00  0.00     0.173 C 
HETATM   15  C1  UNL     1      16.821   2.608  25.674  1.00  0.00     0.098 C 
HETATM   16  O1  UNL     1      15.779   0.552  25.195  1.00  0.00    -0.291 OA
ENDBRANCH  11  14
BRANCH  12  17
HETATM   17  O2  UNL     1      18.808   0.475  28.233  1.00  0.00    -0.271 OA
BRANCH  17  18
HETATM   18  C4  UNL     1      20.058   0.454  28.930  1.00  0.00     0.300 C 
BRANCH  18  19
HETATM   19  C5  UNL     1      21.115   0.730  27.887  1.00  0.00     0.257 C 
HETATM   20  N2  UNL     1      21.948  -0.259  27.386  1.00  0.00    -0.060 NA
HETATM   21  O3  UNL     1      21.283   1.910  27.432  1.00  0.00    -0.274 OA
ENDBRANCH  18  19
ENDBRANCH  17  18
ENDBRANCH  12  17
ENDBRANCH  10  11
BRANCH  10  22
HETATM   22  N3  UNL     1      18.268   0.055  23.571  1.00  0.00    -0.053 N 
ATOM     23  H33 UNL     1      17.625  -0.500  23.006  1.00  0.00     0.277 HD
ATOM     24  H32 UNL     1      17.695   0.894  23.661  1.00  0.00     0.277 HD
ATOM     25  H31 UNL     1      19.147   0.237  23.088  1.00  0.00     0.277 HD
ENDBRANCH  10  22
ENDBRANCH   8  10
ENDBRANCH   1   8
BRANCH   6  26
HETATM   26  C10 UNL     1      23.765  -0.995  22.408  1.00  0.00     0.249 C 
HETATM   27  O4  UNL     1      24.933  -1.413  22.238  1.00  0.00    -0.271 OA
HETATM   28  N6  UNL     1      23.066  -0.000  21.799  1.00  0.00    -0.347 N 
ATOM     29  H6  UNL     1      22.171   0.074  22.281  1.00  0.00     0.163 HD
BRANCH  28  30
HETATM   30  C11 UNL     1      23.066   0.948  20.802  1.00  0.00     0.162 C 
BRANCH  30  31
HETATM   31  C12 UNL     1      23.378   2.329  21.376  1.00  0.00     0.132 C 
HETATM   32  N7  UNL     1      23.065   2.739  22.490  1.00  0.00    -0.382 N 
ATOM     33  H72 UNL     1      22.562   2.139  23.144  1.00  0.00     0.158 HD
ATOM     34  H71 UNL     1      23.273   3.661  22.873  1.00  0.00     0.158 HD
BRANCH  31  35
HETATM   35  O5  UNL     1      24.067   3.149  20.481  1.00  0.00    -0.348 OA
ATOM     36  H5  UNL     1      24.959   3.332  20.755  1.00  0.00     0.219 HD
ENDBRANCH  31  35
ENDBRANCH  30  31
BRANCH  30  37
HETATM   37  C13 UNL     1      21.730   1.012  20.108  1.00  0.00     0.008 C 
HETATM   38  C14 UNL     1      21.735   1.327  18.659  1.00  0.00     0.012 C 
HETATM   39  C15 UNL     1      20.716   0.098  20.678  1.00  0.00     0.012 C 
ENDBRANCH  30  37
ENDBRANCH  28  30
ENDBRANCH   6  26
TORSDOF 13
ENDMDL
MODEL 5
REMARK VINA RESULT: -8.154391861      1.957      4.519
REMARK  13 active torsions:
REMARK  status: ('A' for Active; 'I' for Inactive)
REMARK    1  A    between atoms: C2_2  and  C3_4 
REMARK    2  A    between atoms: C3_4  and  C6_12 
REMARK    3  A    between atoms: N1_5  and  O2_7 
REMARK    4  A    between atoms: O2_7  and  C4_8 
REMARK    5  A    between atoms: C4_8  and  C5_9 
REMARK    6  A    between atoms: C6_12  and  N3_13 
REMARK    7  A    between atoms: C6_12  and  N4_17 
REMARK    8  A    between atoms: N4_17  and  C7_19 
REMARK    9  A    between atoms: C9_24  and  C10_25 
REMARK       I    between atoms: C10_25  and  N6_27 
REMARK   10  A    between atoms: N6_27  and  C11_29 
REMARK   11  A    between atoms: C11_29  and  C12_30 
REMARK   12  A    between atoms: C11_29  and  C13_36 
REMARK   13  A    between atoms: C12_30  and  O5_34 
ROOT
HETATM    1  C7  UNL     1      20.075  -0.822  24.572  1.00  0.00     0.107 C 
HETATM    2  C8  UNL     1      20.216  -2.114  23.875  1.00  0.00     0.257 C 
HETATM    3  N5  UNL     1      21.425  -1.894  23.008  1.00  0.00    -0.060 N 
ATOM      4  H51 UNL     1      21.298  -1.259  22.220  1.00  0.00     0.278 HD
ATOM      5  H52 UNL     1      21.708  -2.686  22.430  1.00  0.00     0.278 HD
HETATM    6  C9  UNL     1      22.356  -1.483  23.989  1.00  0.00     0.279 C 
HETATM    7  C16 UNL     1      21.568  -0.542  24.917  1.00  0.00     0.069 C 
ENDROOT
BRANCH   1   8
HETATM    8  N4  UNL     1      19.401  -0.727  25.808  1.00  0.00    -0.385 N 
ATOM      9  H4  UNL     1      19.922  -0.729  26.685  1.00  0.00     0.156 HD
BRANCH   8  10
HETATM   10  C6  UNL     1      18.004  -0.629  25.812  1.00  0.00     0.334 C 
BRANCH  10  11
HETATM   11  C3  UNL     1      17.476   0.460  24.884  1.00  0.00     0.126 C 
HETATM   12  N1  UNL     1      17.456   0.215  23.698  1.00  0.00    -0.263 N 
ATOM     13  H1  UNL     1      17.724  -0.769  23.715  1.00  0.00     0.194 HD
BRANCH  11  14
HETATM   14  C2  UNL     1      17.166   1.728  25.532  1.00  0.00     0.173 C 
HETATM   15  C1  UNL     1      17.156   1.846  27.010  1.00  0.00     0.098 C 
HETATM   16  O1  UNL     1      16.945   2.759  24.850  1.00  0.00    -0.291 OA
ENDBRANCH  11  14
BRANCH  12  17
HETATM   17  O2  UNL     1      17.319   0.385  22.449  1.00  0.00    -0.271 OA
BRANCH  17  18
HETATM   18  C4  UNL     1      17.765  -0.433  21.364  1.00  0.00     0.300 C 
BRANCH  18  19
HETATM   19  C5  UNL     1      16.909  -0.049  20.180  1.00  0.00     0.257 C 
HETATM   20  N2  UNL     1      15.524   0.017  20.248  1.00  0.00    -0.060 NA
HETATM   21  O3  UNL     1      17.444   0.225  19.055  1.00  0.00    -0.274 OA
ENDBRANCH  18  19
ENDBRANCH  17  18
ENDBRANCH  12  17
ENDBRANCH  10  11
BRANCH  10  22
HETATM   22  N3  UNL     1      17.315  -1.826  25.564  1.00  0.00    -0.053 N 
ATOM     23  H33 UNL     1      17.482  -2.180  24.622  1.00  0.00     0.277 HD
ATOM     24  H32 UNL     1      17.706  -2.612  26.084  1.00  0.00     0.277 HD
ATOM     25  H31 UNL     1      16.323  -1.692  25.755  1.00  0.00     0.277 HD
ENDBRANCH  10  22
ENDBRANCH   8  10
ENDBRANCH   1   8
BRANCH   6  26
HETATM   26  C10 UNL     1      23.456  -0.590  23.446  1.00  0.00     0.249 C 
HETATM   27  O4  UNL     1      24.582  -0.749  23.970  1.00  0.00    -0.271 OA
HETATM   28  N6  UNL     1      23.032   0.240  22.456  1.00  0.00    -0.347 N 
ATOM     29  H6  UNL     1      22.022   0.118  22.376  1.00  0.00     0.163 HD
BRANCH  28  30
HETATM   30  C11 UNL     1      23.400   1.177  21.517  1.00  0.00     0.162 C 
BRANCH  30  31
HETATM   31  C12 UNL     1      23.206   2.589  22.065  1.00  0.00     0.132 C 
HETATM   32  N7  UNL     1      23.805   3.597  21.701  1.00  0.00    -0.382 N 
ATOM     33  H72 UNL     1      24.498   3.551  20.955  1.00  0.00     0.158 HD
ATOM     34  H71 UNL     1      23.675   4.540  22.068  1.00  0.00     0.158 HD
BRANCH  31  35
HETATM   35  O5  UNL     1      22.258   2.653  23.087  1.00  0.00    -0.348 OA
ATOM     36  H5  UNL     1      22.539   3.182  23.824  1.00  0.00     0.219 HD
ENDBRANCH  31  35
ENDBRANCH  30  31
BRANCH  30  37
HETATM   37  C13 UNL     1      22.584   1.039  20.258  1.00  0.00     0.008 C 
HETATM   38  C14 UNL     1      21.160   0.656  20.413  1.00  0.00     0.012 C 
HETATM   39  C15 UNL     1      23.008   1.946  19.169  1.00  0.00     0.012 C 
ENDBRANCH  30  37
ENDBRANCH  28  30
ENDBRANCH   6  26
TORSDOF 13
ENDMDL
