MODEL 1
REMARK VINA RESULT: -6.200472290      0.000      0.000
REMARK  10 active torsions:
REMARK  status: ('A' for Active; 'I' for Inactive)
REMARK    1  A    between atoms: C2_3  and  N2_4 
REMARK    2  A    between atoms: N2_4  and  C3_6 
REMARK    3  A    between atoms: N3_7  and  C4_9 
REMARK    4  A    between atoms: N6_12  and  N7_13 
REMARK    5  A    between atoms: C6_24  and  C7_25 
REMARK    6  A    between atoms: C7_25  and  O3_26 
REMARK    7  A    between atoms: C8_30  and  C9_31 
REMARK    8  A    between atoms: C9_31  and  N11_32 
REMARK    9  A    between atoms: C9_31  and  O4_36 
REMARK   10  A    between atoms: N12_38  and  N13_39 
ROOT
HETATM    1  C3  UNL     1      33.266   8.608  11.042  1.00  0.00     0.179 C 
HETATM    2  N3  UNL     1      34.304   8.454  11.767  1.00  0.00    -0.363 N 
ATOM      3  H3  UNL     1      34.848   7.594  11.692  1.00  0.00     0.162 HD
ENDROOT
BRANCH   1   4
HETATM    4  N2  UNL     1      32.521   9.812  11.161  1.00  0.00    -0.337 N 
ATOM      5  H2  UNL     1      32.521  10.342  12.033  1.00  0.00     0.168 HD
BRANCH   4   6
HETATM    6  C2  UNL     1      31.780  10.260  10.042  1.00  0.00     0.138 A 
HETATM    7  C1  UNL     1      30.899  11.303  10.213  1.00  0.00     0.160 A 
HETATM    8  N1  UNL     1      30.723  11.925  11.470  1.00  0.00    -0.092 NA
HETATM    9  C10 UNL     1      30.188  11.723   9.108  1.00  0.00     0.295 A 
HETATM   10  N12 UNL     1      30.370  11.113   7.903  1.00  0.00    -0.208 N 
HETATM   11  O5  UNL     1      29.369  12.679   9.228  1.00  0.00    -0.264 OA
HETATM   12  C8  UNL     1      31.230  10.097   7.743  1.00  0.00     0.164 A 
HETATM   13  N10 UNL     1      31.929   9.686   8.839  1.00  0.00    -0.325 N 
ATOM     14  H10 UNL     1      32.589   8.914   8.740  1.00  0.00     0.169 HD
BRANCH  10  15
HETATM   15  N13 UNL     1      29.642  11.561   6.819  1.00  0.00    -0.334 N 
ATOM     16 2H13 UNL     1      29.995  11.369   5.882  1.00  0.00     0.177 HD
ATOM     17 1H13 UNL     1      28.772  12.070   6.976  1.00  0.00     0.177 HD
ENDBRANCH  10  15
BRANCH  12  18
HETATM   18  C9  UNL     1      31.438   9.422   6.433  1.00  0.00     0.387 C 
BRANCH  18  19
HETATM   19  N11 UNL     1      32.684   8.679   6.476  1.00  0.00    -0.046 N 
ATOM     20 3H11 UNL     1      33.063   8.610   7.420  1.00  0.00     0.277 HD
ATOM     21 2H11 UNL     1      32.548   7.682   6.303  1.00  0.00     0.277 HD
ATOM     22 1H11 UNL     1      33.345   9.099   5.822  1.00  0.00     0.277 HD
ENDBRANCH  18  19
BRANCH  18  23
HETATM   23  O4  UNL     1      30.355   8.580   6.197  1.00  0.00    -0.364 OA
ATOM     24  H4  UNL     1      30.689   7.717   5.980  1.00  0.00     0.212 HD
ENDBRANCH  18  23
ENDBRANCH  12  18
ENDBRANCH   4   6
ENDBRANCH   1   4
BRANCH   2  25
HETATM   25  C4  UNL     1      34.721   9.484  12.695  1.00  0.00     0.250 C 
HETATM   26  N4  UNL     1      34.921   8.814  13.988  1.00  0.00    -0.094 NA
HETATM   27  N5  UNL     1      36.163   8.175  13.893  1.00  0.00    -0.009 NA
HETATM   28  N6  UNL     1      36.911   9.035  13.156  1.00  0.00    -0.191 N 
HETATM   29  C5  UNL     1      36.142   9.939  12.410  1.00  0.00     0.208 C 
HETATM   30  N8  UNL     1      36.483   9.767  11.004  1.00  0.00    -0.267 N 
HETATM   31  C6  UNL     1      36.366  11.387  12.690  1.00  0.00     0.174 C 
HETATM   32  S1  UNL     1      35.940  11.267  10.289  1.00  0.00     0.317 S 
ATOM     33  H8  UNL     1      36.929   8.970  10.549  1.00  0.00     0.176 HD
HETATM   34  O1  UNL     1      34.777  11.057   9.399  1.00  0.00    -0.183 OA
HETATM   35  O2  UNL     1      37.061  11.944   9.551  1.00  0.00    -0.183 OA
HETATM   36  N9  UNL     1      35.533  12.105  11.745  1.00  0.00    -0.291 N 
ATOM     37  H9  UNL     1      34.890  12.882  11.897  1.00  0.00     0.174 HD
BRANCH  28  38
HETATM   38  N7  UNL     1      38.154   9.358  13.549  1.00  0.00    -0.328 N 
ATOM     39  H72 UNL     1      38.487   9.100  14.478  1.00  0.00     0.178 HD
ATOM     40  H71 UNL     1      38.903   9.448  12.862  1.00  0.00     0.178 HD
ENDBRANCH  28  38
BRANCH  31  41
HETATM   41  C7  UNL     1      36.032  11.786  14.096  1.00  0.00     0.194 C 
BRANCH  41  42
HETATM   42  O3  UNL     1      35.176  12.903  14.014  1.00  0.00    -0.399 OA
ATOM     43  H3  UNL     1      35.434  13.501  14.706  1.00  0.00     0.209 HD
ENDBRANCH  41  42
ENDBRANCH  31  41
ENDBRANCH   2  25
TORSDOF 10
ENDMDL
MODEL 2
REMARK VINA RESULT: -6.009153542      2.864      5.715
REMARK  10 active torsions:
REMARK  status: ('A' for Active; 'I' for Inactive)
REMARK    1  A    between atoms: C2_3  and  N2_4 
REMARK    2  A    between atoms: N2_4  and  C3_6 
REMARK    3  A    between atoms: N3_7  and  C4_9 
REMARK    4  A    between atoms: N6_12  and  N7_13 
REMARK    5  A    between atoms: C6_24  and  C7_25 
REMARK    6  A    between atoms: C7_25  and  O3_26 
REMARK    7  A    between atoms: C8_30  and  C9_31 
REMARK    8  A    between atoms: C9_31  and  N11_32 
REMARK    9  A    between atoms: C9_31  and  O4_36 
REMARK   10  A    between atoms: N12_38  and  N13_39 
ROOT
HETATM    1  C3  UNL     1      32.287   8.565   9.725  1.00  0.00     0.179 C 
HETATM    2  N3  UNL     1      32.011   9.514  10.532  1.00  0.00    -0.363 N 
ATOM      3  H3  UNL     1      31.920   9.316  11.529  1.00  0.00     0.162 HD
ENDROOT
BRANCH   1   4
HETATM    4  N2  UNL     1      32.410   8.860   8.341  1.00  0.00    -0.337 N 
ATOM      5  H2  UNL     1      31.597   9.147   7.794  1.00  0.00     0.168 HD
BRANCH   4   6
HETATM    6  C2  UNL     1      33.684   8.748   7.737  1.00  0.00     0.138 A 
HETATM    7  C1  UNL     1      33.756   8.664   6.366  1.00  0.00     0.160 A 
HETATM    8  N1  UNL     1      32.595   8.687   5.561  1.00  0.00    -0.092 NA
HETATM    9  C10 UNL     1      35.010   8.557   5.800  1.00  0.00     0.295 A 
HETATM   10  N12 UNL     1      36.120   8.537   6.591  1.00  0.00    -0.208 N 
HETATM   11  O5  UNL     1      35.114   8.477   4.543  1.00  0.00    -0.264 OA
HETATM   12  C8  UNL     1      36.042   8.619   7.926  1.00  0.00     0.164 A 
HETATM   13  N10 UNL     1      34.801   8.725   8.480  1.00  0.00    -0.325 N 
ATOM     14  H10 UNL     1      34.719   8.788   9.495  1.00  0.00     0.169 HD
BRANCH  10  15
HETATM   15  N13 UNL     1      37.357   8.429   5.989  1.00  0.00    -0.334 N 
ATOM     16 2H13 UNL     1      38.086   7.895   6.464  1.00  0.00     0.177 HD
ATOM     17 1H13 UNL     1      37.518   8.880   5.089  1.00  0.00     0.177 HD
ENDBRANCH  10  15
BRANCH  12  18
HETATM   18  C9  UNL     1      37.247   8.598   8.802  1.00  0.00     0.387 C 
BRANCH  18  19
HETATM   19  N11 UNL     1      36.856   8.958  10.153  1.00  0.00    -0.046 N 
ATOM     20 3H11 UNL     1      36.313   8.224  10.608  1.00  0.00     0.277 HD
ATOM     21 2H11 UNL     1      37.648   8.969  10.796  1.00  0.00     0.277 HD
ATOM     22 1H11 UNL     1      36.362   9.849  10.130  1.00  0.00     0.277 HD
ENDBRANCH  18  19
BRANCH  18  23
HETATM   23  O4  UNL     1      37.798   7.321   8.758  1.00  0.00    -0.364 OA
ATOM     24  H4  UNL     1      38.647   7.347   9.184  1.00  0.00     0.212 HD
ENDBRANCH  18  23
ENDBRANCH  12  18
ENDBRANCH   4   6
ENDBRANCH   1   4
BRANCH   2  25
HETATM   25  C4  UNL     1      31.825  10.867  10.053  1.00  0.00     0.250 C 
HETATM   26  N4  UNL     1      30.433  10.948   9.587  1.00  0.00    -0.094 NA
HETATM   27  N5  UNL     1      29.656  11.083  10.743  1.00  0.00    -0.009 NA
HETATM   28  N6  UNL     1      30.420  11.856  11.556  1.00  0.00    -0.191 N 
HETATM   29  C5  UNL     1      31.777  11.857  11.204  1.00  0.00     0.208 C 
HETATM   30  N8  UNL     1      32.540  11.377  12.350  1.00  0.00    -0.267 N 
HETATM   31  C6  UNL     1      32.372  13.182  10.868  1.00  0.00     0.174 C 
HETATM   32  S1  UNL     1      34.152  11.963  12.013  1.00  0.00     0.317 S 
ATOM     33  H8  UNL     1      32.214  10.835  13.150  1.00  0.00     0.176 HD
HETATM   34  O1  UNL     1      35.082  10.854  11.706  1.00  0.00    -0.183 OA
HETATM   35  O2  UNL     1      34.669  12.794  13.154  1.00  0.00    -0.183 OA
HETATM   36  N9  UNL     1      33.781  12.934  10.630  1.00  0.00    -0.291 N 
ATOM     37  H9  UNL     1      34.382  13.243   9.866  1.00  0.00     0.174 HD
BRANCH  28  38
HETATM   38  N7  UNL     1      29.880  12.906  12.195  1.00  0.00    -0.328 N 
ATOM     39  H72 UNL     1      30.433  13.744  12.376  1.00  0.00     0.178 HD
ATOM     40  H71 UNL     1      28.879  13.091  12.123  1.00  0.00     0.178 HD
ENDBRANCH  28  38
BRANCH  31  41
HETATM   41  C7  UNL     1      31.745  13.838   9.675  1.00  0.00     0.194 C 
BRANCH  41  42
HETATM   42  O3  UNL     1      30.869  14.829  10.163  1.00  0.00    -0.399 OA
ATOM     43  H3  UNL     1      30.014  14.653   9.788  1.00  0.00     0.209 HD
ENDBRANCH  41  42
ENDBRANCH  31  41
ENDBRANCH   2  25
TORSDOF 10
ENDMDL
MODEL 3
REMARK VINA RESULT: -5.949779795      2.758      5.886
REMARK  10 active torsions:
REMARK  status: ('A' for Active; 'I' for Inactive)
REMARK    1  A    between atoms: C2_3  and  N2_4 
REMARK    2  A    between atoms: N2_4  and  C3_6 
REMARK    3  A    between atoms: N3_7  and  C4_9 
REMARK    4  A    between atoms: N6_12  and  N7_13 
REMARK    5  A    between atoms: C6_24  and  C7_25 
REMARK    6  A    between atoms: C7_25  and  O3_26 
REMARK    7  A    between atoms: C8_30  and  C9_31 
REMARK    8  A    between atoms: C9_31  and  N11_32 
REMARK    9  A    between atoms: C9_31  and  O4_36 
REMARK   10  A    between atoms: N12_38  and  N13_39 
ROOT
HETATM    1  C3  UNL     1      33.995  10.847  11.776  1.00  0.00     0.179 C 
HETATM    2  N3  UNL     1      32.743  10.602  11.747  1.00  0.00    -0.363 N 
ATOM      3  H3  UNL     1      32.285  10.222  12.576  1.00  0.00     0.162 HD
ENDROOT
BRANCH   1   4
HETATM    4  N2  UNL     1      34.613  11.377  10.611  1.00  0.00    -0.337 N 
ATOM      5  H2  UNL     1      34.741  12.383  10.500  1.00  0.00     0.168 HD
BRANCH   4   6
HETATM    6  C2  UNL     1      35.049  10.477   9.610  1.00  0.00     0.138 A 
HETATM    7  C1  UNL     1      36.396  10.220   9.499  1.00  0.00     0.160 A 
HETATM    8  N1  UNL     1      37.339  10.832  10.355  1.00  0.00    -0.092 NA
HETATM    9  C10 UNL     1      36.797   9.338   8.517  1.00  0.00     0.295 A 
HETATM   10  N12 UNL     1      35.874   8.756   7.700  1.00  0.00    -0.208 N 
HETATM   11  O5  UNL     1      38.027   9.078   8.386  1.00  0.00    -0.264 OA
HETATM   12  C8  UNL     1      34.563   9.011   7.814  1.00  0.00     0.164 A 
HETATM   13  N10 UNL     1      34.173   9.883   8.786  1.00  0.00    -0.325 N 
ATOM     14  H10 UNL     1      33.180  10.092   8.890  1.00  0.00     0.169 HD
BRANCH  10  15
HETATM   15  N13 UNL     1      36.311   7.879   6.729  1.00  0.00    -0.334 N 
ATOM     16 2H13 UNL     1      36.926   7.113   7.005  1.00  0.00     0.177 HD
ATOM     17 1H13 UNL     1      36.014   8.011   5.762  1.00  0.00     0.177 HD
ENDBRANCH  10  15
BRANCH  12  18
HETATM   18  C9  UNL     1      33.544   8.383   6.928  1.00  0.00     0.387 C 
BRANCH  18  19
HETATM   19  N11 UNL     1      32.223   8.824   7.338  1.00  0.00    -0.046 N 
ATOM     20 3H11 UNL     1      31.480   8.271   6.910  1.00  0.00     0.277 HD
ATOM     21 2H11 UNL     1      32.025   8.601   8.313  1.00  0.00     0.277 HD
ATOM     22 1H11 UNL     1      32.129   9.820   7.141  1.00  0.00     0.277 HD
ENDBRANCH  18  19
BRANCH  18  23
HETATM   23  O4  UNL     1      33.816   8.754   5.615  1.00  0.00    -0.364 OA
ATOM     24  H4  UNL     1      33.028   8.633   5.099  1.00  0.00     0.212 HD
ENDBRANCH  18  23
ENDBRANCH  12  18
ENDBRANCH   4   6
ENDBRANCH   1   4
BRANCH   2  25
HETATM   25  C4  UNL     1      31.963  10.856  10.555  1.00  0.00     0.250 C 
HETATM   26  N4  UNL     1      31.280   9.593  10.235  1.00  0.00    -0.094 NA
HETATM   27  N5  UNL     1      30.198   9.516  11.118  1.00  0.00    -0.009 NA
HETATM   28  N6  UNL     1      29.784  10.804  11.233  1.00  0.00    -0.191 N 
HETATM   29  C5  UNL     1      30.762  11.736  10.860  1.00  0.00     0.208 C 
HETATM   30  N8  UNL     1      31.016  12.604  12.002  1.00  0.00    -0.267 N 
HETATM   31  C6  UNL     1      30.406  12.657   9.742  1.00  0.00     0.174 C 
HETATM   32  S1  UNL     1      31.759  14.004  11.265  1.00  0.00     0.317 S 
ATOM     33  H8  UNL     1      30.811  12.437  12.987  1.00  0.00     0.176 HD
HETATM   34  O1  UNL     1      33.186  14.123  11.637  1.00  0.00    -0.183 OA
HETATM   35  O2  UNL     1      31.009  15.257  11.620  1.00  0.00    -0.183 OA
HETATM   36  N9  UNL     1      31.528  13.566   9.608  1.00  0.00    -0.291 N 
ATOM     37  H9  UNL     1      32.035  13.863   8.775  1.00  0.00     0.174 HD
BRANCH  28  38
HETATM   38  N7  UNL     1      28.479  11.106  11.132  1.00  0.00    -0.328 N 
ATOM     39  H72 UNL     1      27.778  10.544  11.614  1.00  0.00     0.178 HD
ATOM     40  H71 UNL     1      28.186  12.071  10.977  1.00  0.00     0.178 HD
ENDBRANCH  28  38
BRANCH  31  41
HETATM   41  C7  UNL     1      30.140  11.954   8.445  1.00  0.00     0.194 C 
BRANCH  41  42
HETATM   42  O3  UNL     1      28.771  12.128   8.156  1.00  0.00    -0.399 OA
ATOM     43  H3  UNL     1      28.481  12.893   8.641  1.00  0.00     0.209 HD
ENDBRANCH  41  42
ENDBRANCH  31  41
ENDBRANCH   2  25
TORSDOF 10
ENDMDL
MODEL 4
REMARK VINA RESULT: -5.779727641      2.230      3.745
REMARK  10 active torsions:
REMARK  status: ('A' for Active; 'I' for Inactive)
REMARK    1  A    between atoms: C2_3  and  N2_4 
REMARK    2  A    between atoms: N2_4  and  C3_6 
REMARK    3  A    between atoms: N3_7  and  C4_9 
REMARK    4  A    between atoms: N6_12  and  N7_13 
REMARK    5  A    between atoms: C6_24  and  C7_25 
REMARK    6  A    between atoms: C7_25  and  O3_26 
REMARK    7  A    between atoms: C8_30  and  C9_31 
REMARK    8  A    between atoms: C9_31  and  N11_32 
REMARK    9  A    between atoms: C9_31  and  O4_36 
REMARK   10  A    between atoms: N12_38  and  N13_39 
ROOT
HETATM    1  C3  UNL     1      33.829   9.042  11.950  1.00  0.00     0.179 C 
HETATM    2  N3  UNL     1      34.543   9.783  12.705  1.00  0.00    -0.363 N 
ATOM      3  H3  UNL     1      34.549   9.619  13.711  1.00  0.00     0.162 HD
ENDROOT
BRANCH   1   4
HETATM    4  N2  UNL     1      33.835   9.286  10.550  1.00  0.00    -0.337 N 
ATOM      5  H2  UNL     1      34.616   8.977   9.970  1.00  0.00     0.168 HD
BRANCH   4   6
HETATM    6  C2  UNL     1      32.734   9.966   9.979  1.00  0.00     0.138 A 
HETATM    7  C1  UNL     1      32.310   9.592   8.725  1.00  0.00     0.160 A 
HETATM    8  N1  UNL     1      32.948   8.556   8.006  1.00  0.00    -0.092 NA
HETATM    9  C10 UNL     1      31.233  10.268   8.189  1.00  0.00     0.295 A 
HETATM   10  N12 UNL     1      30.629  11.265   8.896  1.00  0.00    -0.208 N 
HETATM   11  O5  UNL     1      30.817   9.952   7.038  1.00  0.00    -0.264 OA
HETATM   12  C8  UNL     1      31.047  11.624  10.118  1.00  0.00     0.164 A 
HETATM   13  N10 UNL     1      32.111  10.952  10.642  1.00  0.00    -0.325 N 
ATOM     14  H10 UNL     1      32.446  11.210  11.570  1.00  0.00     0.169 HD
BRANCH  10  15
HETATM   15  N13 UNL     1      29.555  11.919   8.328  1.00  0.00    -0.334 N 
ATOM     16 2H13 UNL     1      28.896  12.399   8.941  1.00  0.00     0.177 HD
ATOM     17 1H13 UNL     1      29.442  11.911   7.314  1.00  0.00     0.177 HD
ENDBRANCH  10  15
BRANCH  12  18
HETATM   18  C9  UNL     1      30.397  12.711  10.900  1.00  0.00     0.387 C 
BRANCH  18  19
HETATM   19  N11 UNL     1      31.113  12.888  12.150  1.00  0.00    -0.046 N 
ATOM     20 3H11 UNL     1      31.067  12.061  12.744  1.00  0.00     0.277 HD
ATOM     21 2H11 UNL     1      32.124  12.914  12.018  1.00  0.00     0.277 HD
ATOM     22 1H11 UNL     1      30.761  13.723  12.619  1.00  0.00     0.277 HD
ENDBRANCH  18  19
BRANCH  18  23
HETATM   23  O4  UNL     1      30.418  13.874  10.136  1.00  0.00    -0.364 OA
ATOM     24  H4  UNL     1      29.933  14.546  10.600  1.00  0.00     0.212 HD
ENDBRANCH  18  23
ENDBRANCH  12  18
ENDBRANCH   4   6
ENDBRANCH   1   4
BRANCH   2  25
HETATM   25  C4  UNL     1      35.346  10.852  12.151  1.00  0.00     0.250 C 
HETATM   26  N4  UNL     1      34.447  12.007  12.006  1.00  0.00    -0.094 NA
HETATM   27  N5  UNL     1      34.323  12.551  13.289  1.00  0.00    -0.009 NA
HETATM   28  N6  UNL     1      35.557  12.385  13.830  1.00  0.00    -0.191 N 
HETATM   29  C5  UNL     1      36.318  11.401  13.182  1.00  0.00     0.208 C 
HETATM   30  N8  UNL     1      36.677  10.389  14.165  1.00  0.00    -0.267 N 
HETATM   31  C6  UNL     1      37.613  11.849  12.592  1.00  0.00     0.174 C 
HETATM   32  S1  UNL     1      38.040   9.591  13.417  1.00  0.00     0.317 S 
ATOM     33  H8  UNL     1      36.242  10.194  15.067  1.00  0.00     0.176 HD
HETATM   34  O1  UNL     1      37.709   8.206  13.017  1.00  0.00    -0.183 OA
HETATM   35  O2  UNL     1      39.238   9.611  14.326  1.00  0.00    -0.183 OA
HETATM   36  N9  UNL     1      38.241  10.652  12.067  1.00  0.00    -0.291 N 
ATOM     37  H9  UNL     1      38.678  10.485  11.161  1.00  0.00     0.174 HD
BRANCH  28  38
HETATM   38  N7  UNL     1      36.158  13.401  14.469  1.00  0.00    -0.328 N 
ATOM     39  H72 UNL     1      36.193  13.424  15.488  1.00  0.00     0.178 HD
ATOM     40  H71 UNL     1      36.929  13.902  14.027  1.00  0.00     0.178 HD
ENDBRANCH  28  38
BRANCH  31  41
HETATM   41  C7  UNL     1      37.459  12.880  11.514  1.00  0.00     0.194 C 
BRANCH  41  42
HETATM   42  O3  UNL     1      37.875  14.111  12.061  1.00  0.00    -0.399 OA
ATOM     43  H3  UNL     1      37.342  14.265  12.833  1.00  0.00     0.209 HD
ENDBRANCH  41  42
ENDBRANCH  31  41
ENDBRANCH   2  25
TORSDOF 10
ENDMDL
MODEL 5
REMARK VINA RESULT: -5.755680134      2.979      6.728
REMARK  10 active torsions:
REMARK  status: ('A' for Active; 'I' for Inactive)
REMARK    1  A    between atoms: C2_3  and  N2_4 
REMARK    2  A    between atoms: N2_4  and  C3_6 
REMARK    3  A    between atoms: N3_7  and  C4_9 
REMARK    4  A    between atoms: N6_12  and  N7_13 
REMARK    5  A    between atoms: C6_24  and  C7_25 
REMARK    6  A    between atoms: C7_25  and  O3_26 
REMARK    7  A    between atoms: C8_30  and  C9_31 
REMARK    8  A    between atoms: C9_31  and  N11_32 
REMARK    9  A    between atoms: C9_31  and  O4_36 
REMARK   10  A    between atoms: N12_38  and  N13_39 
ROOT
HETATM    1  C3  UNL     1      34.027  10.284  11.568  1.00  0.00     0.179 C 
HETATM    2  N3  UNL     1      32.798  10.607  11.677  1.00  0.00    -0.363 N 
ATOM      3  H3  UNL     1      32.379  10.689  12.604  1.00  0.00     0.162 HD
ENDROOT
BRANCH   1   4
HETATM    4  N2  UNL     1      34.592  10.175  10.269  1.00  0.00    -0.337 N 
ATOM      5  H2  UNL     1      34.296   9.436   9.631  1.00  0.00     0.168 HD
BRANCH   4   6
HETATM    6  C2  UNL     1      35.575  11.114   9.880  1.00  0.00     0.138 A 
HETATM    7  C1  UNL     1      36.670  10.667   9.176  1.00  0.00     0.160 A 
HETATM    8  N1  UNL     1      36.827   9.303   8.842  1.00  0.00    -0.092 NA
HETATM    9  C10 UNL     1      37.615  11.602   8.807  1.00  0.00     0.295 A 
HETATM   10  N12 UNL     1      37.448  12.914   9.137  1.00  0.00    -0.208 N 
HETATM   11  O5  UNL     1      38.634  11.226   8.160  1.00  0.00    -0.264 OA
HETATM   12  C8  UNL     1      36.378  13.343   9.822  1.00  0.00     0.164 A 
HETATM   13  N10 UNL     1      35.449  12.415  10.185  1.00  0.00    -0.325 N 
ATOM     14  H10 UNL     1      34.628  12.720  10.708  1.00  0.00     0.169 HD
BRANCH  10  15
HETATM   15  N13 UNL     1      38.413  13.820   8.750  1.00  0.00    -0.334 N 
ATOM     16 2H13 UNL     1      39.332  13.469   8.480  1.00  0.00     0.177 HD
ATOM     17 1H13 UNL     1      38.190  14.816   8.739  1.00  0.00     0.177 HD
ENDBRANCH  10  15
BRANCH  12  18
HETATM   18  C9  UNL     1      36.184  14.773  10.190  1.00  0.00     0.387 C 
BRANCH  18  19
HETATM   19  N11 UNL     1      35.046  15.299   9.458  1.00  0.00    -0.046 N 
ATOM     20 3H11 UNL     1      34.951  16.309   9.563  1.00  0.00     0.277 HD
ATOM     21 2H11 UNL     1      35.189  15.272   8.448  1.00  0.00     0.277 HD
ATOM     22 1H11 UNL     1      34.206  14.798   9.744  1.00  0.00     0.277 HD
ENDBRANCH  18  19
BRANCH  18  23
HETATM   23  O4  UNL     1      35.979  14.848  11.564  1.00  0.00    -0.364 OA
ATOM     24  H4  UNL     1      35.166  14.401  11.771  1.00  0.00     0.212 HD
ENDBRANCH  18  23
ENDBRANCH  12  18
ENDBRANCH   4   6
ENDBRANCH   1   4
BRANCH   2  25
HETATM   25  C4  UNL     1      31.989  10.860  10.504  1.00  0.00     0.250 C 
HETATM   26  N4  UNL     1      31.317   9.591  10.189  1.00  0.00    -0.094 NA
HETATM   27  N5  UNL     1      30.254   9.494  11.094  1.00  0.00    -0.009 NA
HETATM   28  N6  UNL     1      29.826  10.775  11.228  1.00  0.00    -0.191 N 
HETATM   29  C5  UNL     1      30.785  11.722  10.841  1.00  0.00     0.208 C 
HETATM   30  N8  UNL     1      31.052  12.585  11.984  1.00  0.00    -0.267 N 
HETATM   31  C6  UNL     1      30.393  12.647   9.739  1.00  0.00     0.174 C 
HETATM   32  S1  UNL     1      31.760  14.000  11.243  1.00  0.00     0.317 S 
ATOM     33  H8  UNL     1      30.869  12.407  12.972  1.00  0.00     0.176 HD
HETATM   34  O1  UNL     1      33.193  14.134  11.585  1.00  0.00    -0.183 OA
HETATM   35  O2  UNL     1      31.002  15.240  11.624  1.00  0.00    -0.183 OA
HETATM   36  N9  UNL     1      31.499  13.571   9.588  1.00  0.00    -0.291 N 
ATOM     37  H9  UNL     1      31.986  13.881   8.746  1.00  0.00     0.174 HD
BRANCH  28  38
HETATM   38  N7  UNL     1      28.516  11.061  11.157  1.00  0.00    -0.328 N 
ATOM     39  H72 UNL     1      28.036  11.074  10.256  1.00  0.00     0.178 HD
ATOM     40  H71 UNL     1      27.899  10.842  11.939  1.00  0.00     0.178 HD
ENDBRANCH  28  38
BRANCH  31  41
HETATM   41  C7  UNL     1      30.108  11.950   8.442  1.00  0.00     0.194 C 
BRANCH  41  42
HETATM   42  O3  UNL     1      28.733  12.116   8.180  1.00  0.00    -0.399 OA
ATOM     43  H3  UNL     1      28.659  12.733   7.461  1.00  0.00     0.209 HD
ENDBRANCH  41  42
ENDBRANCH  31  41
ENDBRANCH   2  25
TORSDOF 10
ENDMDL
