MODEL 1
REMARK VINA RESULT: -5.972365548      0.000      0.000
REMARK  14 active torsions:
REMARK  status: ('A' for Active; 'I' for Inactive)
REMARK    1  A    between atoms: N1_1  and  C1_4 
REMARK    2  A    between atoms: C2_7  and  N3_8 
REMARK    3  A    between atoms: N5_15  and  C5_16 
REMARK    4  A    between atoms: C5_16  and  C6_17 
REMARK    5  A    between atoms: C7_27  and  C8_28 
REMARK    6  A    between atoms: C8_28  and  O2_29 
REMARK    7  A    between atoms: C8_28  and  C9_31 
REMARK    8  A    between atoms: C9_31  and  O3_32 
REMARK    9  A    between atoms: C9_31  and  C10_34 
REMARK   10  A    between atoms: C10_34  and  O4_35 
REMARK   11  A    between atoms: C10_34  and  N10_37 
REMARK   12  A    between atoms: N10_37  and  N11_38 
REMARK   13  A    between atoms: C11_41  and  O5_42 
REMARK   14  A    between atoms: C12_44  and  O6_45 
ROOT
HETATM    1  C5  UNL     1      32.714  10.135   9.514  1.00  0.00     0.234 C 
HETATM    2  O1  UNL     1      34.040  10.376   9.743  1.00  0.00    -0.340 OA
HETATM    3  C7  UNL     1      34.581   9.321  10.513  1.00  0.00     0.188 C 
HETATM    4  C11 UNL     1      33.464   9.010  11.452  1.00  0.00     0.183 C 
HETATM    5  C12 UNL     1      32.272   9.077  10.505  1.00  0.00     0.214 C 
ENDROOT
BRANCH   1   6
HETATM    6  N5  UNL     1      31.954  11.329   9.765  1.00  0.00    -0.285 N 
HETATM    7  C4  UNL     1      30.598  11.368   9.605  1.00  0.00     0.189 A 
HETATM    8  N4  UNL     1      30.159  12.597   9.908  1.00  0.00    -0.346 N 
HETATM    9  C3  UNL     1      31.191  13.372  10.264  1.00  0.00     0.123 A 
ATOM     10  H4  UNL     1      29.185  12.897   9.872  1.00  0.00     0.167 HD
HETATM   11  C2  UNL     1      31.354  14.675  10.668  1.00  0.00     0.145 A 
HETATM   12  C13 UNL     1      32.332  12.567  10.174  1.00  0.00     0.158 A 
HETATM   13  N2  UNL     1      32.579  15.170  10.971  1.00  0.00    -0.175 N 
HETATM   14  C1  UNL     1      33.646  14.359  10.870  1.00  0.00     0.679 A 
ATOM     15  H2  UNL     1      32.688  16.139  11.270  1.00  0.00     0.186 HD
HETATM   16  N12 UNL     1      33.537  13.071  10.477  1.00  0.00    -0.174 N 
ATOM     17  H12 UNL     1      34.368  12.484  10.412  1.00  0.00     0.186 HD
BRANCH  11  18
HETATM   18  N3  UNL     1      30.326  15.433  10.758  1.00  0.00    -0.383 N 
ATOM     19  H32 UNL     1      29.936  15.632  11.678  1.00  0.00     0.157 HD
ATOM     20  H31 UNL     1      29.915  15.826   9.911  1.00  0.00     0.157 HD
ENDBRANCH  11  18
BRANCH  14  21
HETATM   21  N1  UNL     1      34.823  14.795  11.150  1.00  0.00    -0.234 N 
ATOM     22  H12 UNL     1      34.888  15.629  11.733  1.00  0.00     0.174 HD
ATOM     23  H11 UNL     1      35.649  14.314  10.796  1.00  0.00     0.174 HD
ENDBRANCH  14  21
ENDBRANCH   1   6
BRANCH   1  24
HETATM   24  C6  UNL     1      32.513   9.521   8.181  1.00  0.00     0.173 A 
HETATM   25  N6  UNL     1      31.377   9.341   7.532  1.00  0.00    -0.268 N 
HETATM   26  N7  UNL     1      31.649   8.741   6.400  1.00  0.00    -0.227 N 
ATOM     27  H6  UNL     1      30.451   9.620   7.855  1.00  0.00     0.190 HD
HETATM   28  N8  UNL     1      32.946   8.538   6.323  1.00  0.00    -0.227 N 
ATOM     29  H7  UNL     1      30.964   8.474   5.692  1.00  0.00     0.210 HD
HETATM   30  N9  UNL     1      33.493   9.014   7.415  1.00  0.00    -0.268 N 
ATOM     31  H8  UNL     1      33.438   8.090   5.550  1.00  0.00     0.210 HD
ATOM     32  H9  UNL     1      34.487   9.001   7.643  1.00  0.00     0.190 HD
ENDBRANCH   1  24
BRANCH   5  33
HETATM   33  O6  UNL     1      32.229   7.799   9.908  1.00  0.00    -0.387 OA
ATOM     34  H6  UNL     1      31.395   7.372  10.064  1.00  0.00     0.210 HD
ENDBRANCH   5  33
BRANCH   3  35
HETATM   35  C8  UNL     1      35.799   9.914  11.221  1.00  0.00     0.182 C 
BRANCH  35  36
HETATM   36  O2  UNL     1      36.563   8.815  11.699  1.00  0.00    -0.390 OA
ATOM     37  H2  UNL     1      37.190   8.604  11.017  1.00  0.00     0.210 HD
ENDBRANCH  35  36
BRANCH  35  38
HETATM   38  C9  UNL     1      35.478  10.738  12.417  1.00  0.00     0.195 C 
BRANCH  38  39
HETATM   39  O3  UNL     1      35.768  12.073  12.344  1.00  0.00    -0.389 OA
ATOM     40  H3  UNL     1      35.225  12.660  12.856  1.00  0.00     0.210 HD
ENDBRANCH  38  39
BRANCH  38  41
HETATM   41  C10 UNL     1      36.138  10.137  13.663  1.00  0.00     0.261 C 
BRANCH  41  42
HETATM   42  O4  UNL     1      36.500  11.147  14.561  1.00  0.00    -0.375 OA
ATOM     43  H4  UNL     1      36.704  11.949  14.095  1.00  0.00     0.211 HD
ENDBRANCH  41  42
BRANCH  41  44
HETATM   44  N10 UNL     1      35.208   9.278  14.364  1.00  0.00    -0.113 NA
BRANCH  44  45
HETATM   45  N11 UNL     1      35.689   7.974  14.285  1.00  0.00    -0.346 N 
ATOM     46 2H11 UNL     1      35.111   7.137  14.211  1.00  0.00     0.172 HD
ATOM     47 1H11 UNL     1      36.707   8.013  14.314  1.00  0.00     0.172 HD
ENDBRANCH  44  45
ENDBRANCH  41  44
ENDBRANCH  38  41
ENDBRANCH  35  38
ENDBRANCH   3  35
BRANCH   4  48
HETATM   48  O5  UNL     1      33.514   7.721  11.999  1.00  0.00    -0.390 OA
ATOM     49  H5  UNL     1      33.695   7.035  11.368  1.00  0.00     0.210 HD
ENDBRANCH   4  48
TORSDOF 14
ENDMDL
MODEL 2
REMARK VINA RESULT: -5.866869895      1.209      1.469
REMARK  14 active torsions:
REMARK  status: ('A' for Active; 'I' for Inactive)
REMARK    1  A    between atoms: N1_1  and  C1_4 
REMARK    2  A    between atoms: C2_7  and  N3_8 
REMARK    3  A    between atoms: N5_15  and  C5_16 
REMARK    4  A    between atoms: C5_16  and  C6_17 
REMARK    5  A    between atoms: C7_27  and  C8_28 
REMARK    6  A    between atoms: C8_28  and  O2_29 
REMARK    7  A    between atoms: C8_28  and  C9_31 
REMARK    8  A    between atoms: C9_31  and  O3_32 
REMARK    9  A    between atoms: C9_31  and  C10_34 
REMARK   10  A    between atoms: C10_34  and  O4_35 
REMARK   11  A    between atoms: C10_34  and  N10_37 
REMARK   12  A    between atoms: N10_37  and  N11_38 
REMARK   13  A    between atoms: C11_41  and  O5_42 
REMARK   14  A    between atoms: C12_44  and  O6_45 
ROOT
HETATM    1  C5  UNL     1      32.731  10.051   9.454  1.00  0.00     0.234 C 
HETATM    2  O1  UNL     1      34.060  10.279   9.684  1.00  0.00    -0.340 OA
HETATM    3  C7  UNL     1      34.592   9.214  10.445  1.00  0.00     0.188 C 
HETATM    4  C11 UNL     1      33.473   8.904  11.382  1.00  0.00     0.183 C 
HETATM    5  C12 UNL     1      32.282   8.989  10.437  1.00  0.00     0.214 C 
ENDROOT
BRANCH   1   6
HETATM    6  N5  UNL     1      31.982  11.249   9.713  1.00  0.00    -0.285 N 
HETATM    7  C4  UNL     1      30.630  11.308   9.531  1.00  0.00     0.189 A 
HETATM    8  N4  UNL     1      30.201  12.537   9.849  1.00  0.00    -0.346 N 
HETATM    9  C3  UNL     1      31.235  13.292  10.239  1.00  0.00     0.123 A 
ATOM     10  H4  UNL     1      29.231  12.850   9.802  1.00  0.00     0.167 HD
HETATM   11  C2  UNL     1      31.407  14.585  10.671  1.00  0.00     0.145 A 
HETATM   12  C13 UNL     1      32.368  12.475  10.153  1.00  0.00     0.158 A 
HETATM   13  N2  UNL     1      32.631  15.058  11.006  1.00  0.00    -0.175 N 
HETATM   14  C1  UNL     1      33.690  14.236  10.908  1.00  0.00     0.679 A 
ATOM     15  H2  UNL     1      32.747  16.020  11.326  1.00  0.00     0.186 HD
HETATM   16  N12 UNL     1      33.573  12.958  10.488  1.00  0.00    -0.174 N 
ATOM     17  H12 UNL     1      34.398  12.361  10.427  1.00  0.00     0.186 HD
BRANCH  11  18
HETATM   18  N3  UNL     1      30.387  15.354  10.758  1.00  0.00    -0.383 N 
ATOM     19  H32 UNL     1      29.612  15.224  10.108  1.00  0.00     0.157 HD
ATOM     20  H31 UNL     1      30.365  16.083  11.471  1.00  0.00     0.157 HD
ENDBRANCH  11  18
BRANCH  14  21
HETATM   21  N1  UNL     1      34.867  14.652  11.218  1.00  0.00    -0.234 N 
ATOM     22  H12 UNL     1      35.169  14.529  12.184  1.00  0.00     0.174 HD
ATOM     23  H11 UNL     1      35.464  15.084  10.512  1.00  0.00     0.174 HD
ENDBRANCH  14  21
ENDBRANCH   1   6
BRANCH   1  24
HETATM   24  C6  UNL     1      32.525   9.449   8.116  1.00  0.00     0.173 A 
HETATM   25  N6  UNL     1      33.438   8.964   7.294  1.00  0.00    -0.268 N 
HETATM   26  N7  UNL     1      32.828   8.553   6.210  1.00  0.00    -0.227 N 
ATOM     27  H6  UNL     1      34.441   8.918   7.471  1.00  0.00     0.190 HD
HETATM   28  N8  UNL     1      31.537   8.771   6.335  1.00  0.00    -0.227 N 
ATOM     29  H7  UNL     1      33.281   8.131   5.399  1.00  0.00     0.210 HD
HETATM   30  N9  UNL     1      31.335   9.324   7.507  1.00  0.00    -0.268 N 
ATOM     31  H8  UNL     1      30.821   8.548   5.644  1.00  0.00     0.210 HD
ATOM     32  H9  UNL     1      30.433   9.609   7.888  1.00  0.00     0.190 HD
ENDBRANCH   1  24
BRANCH   5  33
HETATM   33  O6  UNL     1      32.228   7.716   9.830  1.00  0.00    -0.387 OA
ATOM     34  H6  UNL     1      33.070   7.278   9.869  1.00  0.00     0.210 HD
ENDBRANCH   5  33
BRANCH   3  35
HETATM   35  C8  UNL     1      35.816   9.791  11.157  1.00  0.00     0.182 C 
BRANCH  35  36
HETATM   36  O2  UNL     1      35.763   9.320  12.497  1.00  0.00    -0.390 OA
ATOM     37  H2  UNL     1      36.641   9.030  12.716  1.00  0.00     0.210 HD
ENDBRANCH  35  36
BRANCH  35  38
HETATM   38  C9  UNL     1      35.836  11.275  11.246  1.00  0.00     0.195 C 
BRANCH  38  39
HETATM   39  O3  UNL     1      36.557  11.942  10.293  1.00  0.00    -0.389 OA
ATOM     40  H3  UNL     1      37.412  12.267  10.551  1.00  0.00     0.210 HD
ENDBRANCH  38  39
BRANCH  38  41
HETATM   41  C10 UNL     1      36.299  11.712  12.640  1.00  0.00     0.261 C 
BRANCH  41  42
HETATM   42  O4  UNL     1      37.211  12.770  12.544  1.00  0.00    -0.375 OA
ATOM     43  H4  UNL     1      38.072  12.446  12.308  1.00  0.00     0.211 HD
ENDBRANCH  41  42
BRANCH  41  44
HETATM   44  N10 UNL     1      35.181  12.204  13.415  1.00  0.00    -0.113 NA
BRANCH  44  45
HETATM   45  N11 UNL     1      35.685  13.021  14.423  1.00  0.00    -0.346 N 
ATOM     46 2H11 UNL     1      36.672  13.126  14.657  1.00  0.00     0.172 HD
ATOM     47 1H11 UNL     1      34.897  13.485  14.874  1.00  0.00     0.172 HD
ENDBRANCH  44  45
ENDBRANCH  41  44
ENDBRANCH  38  41
ENDBRANCH  35  38
ENDBRANCH   3  35
BRANCH   4  48
HETATM   48  O5  UNL     1      33.513   7.611  11.919  1.00  0.00    -0.390 OA
ATOM     49  H5  UNL     1      32.757   7.384  12.448  1.00  0.00     0.210 HD
ENDBRANCH   4  48
TORSDOF 14
ENDMDL
MODEL 3
REMARK VINA RESULT: -5.843861776      1.913      5.503
REMARK  14 active torsions:
REMARK  status: ('A' for Active; 'I' for Inactive)
REMARK    1  A    between atoms: N1_1  and  C1_4 
REMARK    2  A    between atoms: C2_7  and  N3_8 
REMARK    3  A    between atoms: N5_15  and  C5_16 
REMARK    4  A    between atoms: C5_16  and  C6_17 
REMARK    5  A    between atoms: C7_27  and  C8_28 
REMARK    6  A    between atoms: C8_28  and  O2_29 
REMARK    7  A    between atoms: C8_28  and  C9_31 
REMARK    8  A    between atoms: C9_31  and  O3_32 
REMARK    9  A    between atoms: C9_31  and  C10_34 
REMARK   10  A    between atoms: C10_34  and  O4_35 
REMARK   11  A    between atoms: C10_34  and  N10_37 
REMARK   12  A    between atoms: N10_37  and  N11_38 
REMARK   13  A    between atoms: C11_41  and  O5_42 
REMARK   14  A    between atoms: C12_44  and  O6_45 
ROOT
HETATM    1  C5  UNL     1      34.203  10.095  11.061  1.00  0.00     0.234 C 
HETATM    2  O1  UNL     1      33.484   9.333  10.183  1.00  0.00    -0.340 OA
HETATM    3  C7  UNL     1      34.359   8.766   9.229  1.00  0.00     0.188 C 
HETATM    4  C11 UNL     1      35.335   9.871   9.000  1.00  0.00     0.183 C 
HETATM    5  C12 UNL     1      35.554  10.356  10.427  1.00  0.00     0.214 C 
ENDROOT
BRANCH   1   6
HETATM    6  N5  UNL     1      33.546  11.358  11.257  1.00  0.00    -0.285 N 
HETATM    7  C4  UNL     1      34.248  12.523  11.381  1.00  0.00     0.189 A 
HETATM    8  N4  UNL     1      33.385  13.534  11.551  1.00  0.00    -0.346 N 
HETATM    9  C3  UNL     1      32.131  13.067  11.541  1.00  0.00     0.123 A 
ATOM     10  H4  UNL     1      33.646  14.513  11.670  1.00  0.00     0.167 HD
HETATM   11  C2  UNL     1      30.874  13.609  11.662  1.00  0.00     0.145 A 
HETATM   12  C13 UNL     1      32.232  11.684  11.355  1.00  0.00     0.158 A 
HETATM   13  N2  UNL     1      29.765  12.834  11.601  1.00  0.00    -0.175 N 
HETATM   14  C1  UNL     1      29.911  11.510  11.420  1.00  0.00     0.679 A 
ATOM     15  H2  UNL     1      28.837  13.247  11.691  1.00  0.00     0.186 HD
HETATM   16  N12 UNL     1      31.125  10.930  11.296  1.00  0.00    -0.174 N 
ATOM     17  H12 UNL     1      31.199   9.922  11.159  1.00  0.00     0.186 HD
BRANCH  11  18
HETATM   18  N3  UNL     1      30.754  14.872  11.835  1.00  0.00    -0.383 N 
ATOM     19  H32 UNL     1      29.921  15.232  12.300  1.00  0.00     0.157 HD
ATOM     20  H31 UNL     1      31.489  15.497  11.506  1.00  0.00     0.157 HD
ENDBRANCH  11  18
BRANCH  14  21
HETATM   21  N1  UNL     1      28.880  10.744  11.357  1.00  0.00    -0.234 N 
ATOM     22  H12 UNL     1      28.016  11.149  10.999  1.00  0.00     0.174 HD
ATOM     23  H11 UNL     1      28.941   9.771  11.657  1.00  0.00     0.174 HD
ENDBRANCH  14  21
ENDBRANCH   1   6
BRANCH   1  24
HETATM   24  C6  UNL     1      34.499   9.333  12.297  1.00  0.00     0.173 A 
HETATM   25  N6  UNL     1      34.164   8.088  12.584  1.00  0.00    -0.268 N 
HETATM   26  N7  UNL     1      34.603   7.819  13.789  1.00  0.00    -0.227 N 
ATOM     27  H6  UNL     1      33.654   7.449  11.975  1.00  0.00     0.190 HD
HETATM   28  N8  UNL     1      35.214   8.880  14.270  1.00  0.00    -0.227 N 
ATOM     29  H7  UNL     1      34.489   6.929  14.275  1.00  0.00     0.210 HD
HETATM   30  N9  UNL     1      35.157   9.823  13.360  1.00  0.00    -0.268 N 
ATOM     31  H8  UNL     1      35.653   8.955  15.187  1.00  0.00     0.210 HD
ATOM     32  H9  UNL     1      35.545  10.762  13.446  1.00  0.00     0.190 HD
ENDBRANCH   1  24
BRANCH   5  33
HETATM   33  O6  UNL     1      36.541   9.488  10.942  1.00  0.00    -0.387 OA
ATOM     34  H6  UNL     1      37.212   9.968  11.412  1.00  0.00     0.210 HD
ENDBRANCH   5  33
BRANCH   3  35
HETATM   35  C8  UNL     1      33.496   8.476   8.001  1.00  0.00     0.182 C 
BRANCH  35  36
HETATM   36  O2  UNL     1      34.260   8.868   6.869  1.00  0.00    -0.390 OA
ATOM     37  H2  UNL     1      34.033   8.267   6.168  1.00  0.00     0.210 HD
ENDBRANCH  35  36
BRANCH  35  38
HETATM   38  C9  UNL     1      32.235   9.261   7.934  1.00  0.00     0.195 C 
BRANCH  38  39
HETATM   39  O3  UNL     1      31.235   8.898   8.795  1.00  0.00    -0.389 OA
ATOM     40  H3  UNL     1      31.024   9.509   9.491  1.00  0.00     0.210 HD
ENDBRANCH  38  39
BRANCH  38  41
HETATM   41  C10 UNL     1      31.697   9.271   6.499  1.00  0.00     0.261 C 
BRANCH  41  42
HETATM   42  O4  UNL     1      30.525   8.513   6.409  1.00  0.00    -0.375 OA
ATOM     43  H4  UNL     1      30.723   7.586   6.468  1.00  0.00     0.211 HD
ENDBRANCH  41  42
BRANCH  41  44
HETATM   44  N10 UNL     1      31.347  10.617   6.099  1.00  0.00    -0.113 NA
BRANCH  44  45
HETATM   45  N11 UNL     1      30.032  10.851   6.492  1.00  0.00    -0.346 N 
ATOM     46 2H11 UNL     1      29.612  10.529   7.364  1.00  0.00     0.172 HD
ATOM     47 1H11 UNL     1      29.577  11.394   5.759  1.00  0.00     0.172 HD
ENDBRANCH  44  45
ENDBRANCH  41  44
ENDBRANCH  38  41
ENDBRANCH  35  38
ENDBRANCH   3  35
BRANCH   4  48
HETATM   48  O5  UNL     1      36.570   9.452   8.487  1.00  0.00    -0.390 OA
ATOM     49  H5  UNL     1      37.218  10.143   8.416  1.00  0.00     0.210 HD
ENDBRANCH   4  48
TORSDOF 14
ENDMDL
MODEL 4
REMARK VINA RESULT: -5.673779659      2.823      7.020
REMARK  14 active torsions:
REMARK  status: ('A' for Active; 'I' for Inactive)
REMARK    1  A    between atoms: N1_1  and  C1_4 
REMARK    2  A    between atoms: C2_7  and  N3_8 
REMARK    3  A    between atoms: N5_15  and  C5_16 
REMARK    4  A    between atoms: C5_16  and  C6_17 
REMARK    5  A    between atoms: C7_27  and  C8_28 
REMARK    6  A    between atoms: C8_28  and  O2_29 
REMARK    7  A    between atoms: C8_28  and  C9_31 
REMARK    8  A    between atoms: C9_31  and  O3_32 
REMARK    9  A    between atoms: C9_31  and  C10_34 
REMARK   10  A    between atoms: C10_34  and  O4_35 
REMARK   11  A    between atoms: C10_34  and  N10_37 
REMARK   12  A    between atoms: N10_37  and  N11_38 
REMARK   13  A    between atoms: C11_41  and  O5_42 
REMARK   14  A    between atoms: C12_44  and  O6_45 
ROOT
HETATM    1  C5  UNL     1      33.112  12.073  10.925  1.00  0.00     0.234 C 
HETATM    2  O1  UNL     1      32.421  11.808   9.775  1.00  0.00    -0.340 OA
HETATM    3  C7  UNL     1      31.055  12.114   9.969  1.00  0.00     0.188 C 
HETATM    4  C11 UNL     1      30.827  11.670  11.375  1.00  0.00     0.183 C 
HETATM    5  C12 UNL     1      32.095  12.187  12.043  1.00  0.00     0.214 C 
ENDROOT
BRANCH   1   6
HETATM    6  N5  UNL     1      33.990  10.976  11.226  1.00  0.00    -0.285 N 
HETATM    7  C4  UNL     1      34.393  10.705  12.503  1.00  0.00     0.189 A 
HETATM    8  N4  UNL     1      35.200   9.635  12.487  1.00  0.00    -0.346 N 
HETATM    9  C3  UNL     1      35.340   9.191  11.231  1.00  0.00     0.123 A 
ATOM     10  H4  UNL     1      35.640   9.221  13.308  1.00  0.00     0.167 HD
HETATM   11  C2  UNL     1      36.015   8.166  10.616  1.00  0.00     0.145 A 
HETATM   12  C13 UNL     1      34.571  10.043  10.429  1.00  0.00     0.158 A 
HETATM   13  N2  UNL     1      35.942   7.979   9.276  1.00  0.00    -0.175 N 
HETATM   14  C1  UNL     1      35.191   8.822   8.547  1.00  0.00     0.679 A 
ATOM     15  H2  UNL     1      36.448   7.214   8.830  1.00  0.00     0.186 HD
HETATM   16  N12 UNL     1      34.509   9.845   9.105  1.00  0.00    -0.174 N 
ATOM     17  H12 UNL     1      33.948  10.466   8.521  1.00  0.00     0.186 HD
BRANCH  11  18
HETATM   18  N3  UNL     1      36.726   7.373  11.326  1.00  0.00    -0.383 N 
ATOM     19  H32 UNL     1      37.112   6.533  10.897  1.00  0.00     0.157 HD
ATOM     20  H31 UNL     1      36.896   7.592  12.308  1.00  0.00     0.157 HD
ENDBRANCH  11  18
BRANCH  14  21
HETATM   21  N1  UNL     1      35.099   8.675   7.273  1.00  0.00    -0.234 N 
ATOM     22  H12 UNL     1      34.194   8.862   6.843  1.00  0.00     0.174 HD
ATOM     23  H11 UNL     1      35.910   8.383   6.727  1.00  0.00     0.174 HD
ENDBRANCH  14  21
ENDBRANCH   1   6
BRANCH   1  24
HETATM   24  C6  UNL     1      33.757  13.405  10.855  1.00  0.00     0.173 A 
HETATM   25  N6  UNL     1      34.618  13.935  11.704  1.00  0.00    -0.268 N 
HETATM   26  N7  UNL     1      34.918  15.137  11.278  1.00  0.00    -0.227 N 
ATOM     27  H6  UNL     1      34.985  13.489  12.544  1.00  0.00     0.190 HD
HETATM   28  N8  UNL     1      34.257  15.375  10.167  1.00  0.00    -0.227 N 
ATOM     29  H7  UNL     1      35.560  15.785  11.735  1.00  0.00     0.210 HD
HETATM   30  N9  UNL     1      33.536  14.315   9.893  1.00  0.00    -0.268 N 
ATOM     31  H8  UNL     1      34.298  16.232   9.615  1.00  0.00     0.210 HD
ATOM     32  H9  UNL     1      32.916  14.201   9.091  1.00  0.00     0.190 HD
ENDBRANCH   1  24
BRANCH   5  33
HETATM   33  O6  UNL     1      31.807  13.535  12.341  1.00  0.00    -0.387 OA
ATOM     34  H6  UNL     1      31.185  13.607  13.055  1.00  0.00     0.210 HD
ENDBRANCH   5  33
BRANCH   3  35
HETATM   35  C8  UNL     1      30.295  11.263   8.951  1.00  0.00     0.182 C 
BRANCH  35  36
HETATM   36  O2  UNL     1      31.247  10.382   8.370  1.00  0.00    -0.390 OA
ATOM     37  H2  UNL     1      31.552  10.801   7.574  1.00  0.00     0.210 HD
ENDBRANCH  35  36
BRANCH  35  38
HETATM   38  C9  UNL     1      29.707  12.031   7.821  1.00  0.00     0.195 C 
BRANCH  38  39
HETATM   39  O3  UNL     1      28.349  12.199   7.829  1.00  0.00    -0.389 OA
ATOM     40  H3  UNL     1      27.847  11.613   8.382  1.00  0.00     0.210 HD
ENDBRANCH  38  39
BRANCH  38  41
HETATM   41  C10 UNL     1      30.141  11.417   6.486  1.00  0.00     0.261 C 
BRANCH  41  42
HETATM   42  O4  UNL     1      29.112  10.637   5.948  1.00  0.00    -0.375 OA
ATOM     43  H4  UNL     1      28.939   9.886   6.503  1.00  0.00     0.211 HD
ENDBRANCH  41  42
BRANCH  41  44
HETATM   44  N10 UNL     1      30.418  12.456   5.517  1.00  0.00    -0.113 NA
BRANCH  44  45
HETATM   45  N11 UNL     1      29.202  12.878   4.984  1.00  0.00    -0.346 N 
ATOM     46 2H11 UNL     1      28.283  12.651   5.363  1.00  0.00     0.172 HD
ATOM     47 1H11 UNL     1      29.401  13.447   4.162  1.00  0.00     0.172 HD
ENDBRANCH  44  45
ENDBRANCH  41  44
ENDBRANCH  38  41
ENDBRANCH  35  38
ENDBRANCH   3  35
BRANCH   4  48
HETATM   48  O5  UNL     1      29.728  12.275  11.999  1.00  0.00    -0.390 OA
ATOM     49  H5  UNL     1      29.071  11.664  12.311  1.00  0.00     0.210 HD
ENDBRANCH   4  48
TORSDOF 14
ENDMDL
MODEL 5
REMARK VINA RESULT: -5.656788768      1.883      5.394
REMARK  14 active torsions:
REMARK  status: ('A' for Active; 'I' for Inactive)
REMARK    1  A    between atoms: N1_1  and  C1_4 
REMARK    2  A    between atoms: C2_7  and  N3_8 
REMARK    3  A    between atoms: N5_15  and  C5_16 
REMARK    4  A    between atoms: C5_16  and  C6_17 
REMARK    5  A    between atoms: C7_27  and  C8_28 
REMARK    6  A    between atoms: C8_28  and  O2_29 
REMARK    7  A    between atoms: C8_28  and  C9_31 
REMARK    8  A    between atoms: C9_31  and  O3_32 
REMARK    9  A    between atoms: C9_31  and  C10_34 
REMARK   10  A    between atoms: C10_34  and  O4_35 
REMARK   11  A    between atoms: C10_34  and  N10_37 
REMARK   12  A    between atoms: N10_37  and  N11_38 
REMARK   13  A    between atoms: C11_41  and  O5_42 
REMARK   14  A    between atoms: C12_44  and  O6_45 
ROOT
HETATM    1  C5  UNL     1      35.266  12.237  12.141  1.00  0.00     0.234 C 
HETATM    2  O1  UNL     1      34.445  11.210  12.516  1.00  0.00    -0.340 OA
HETATM    3  C7  UNL     1      35.030   9.981  12.138  1.00  0.00     0.188 C 
HETATM    4  C11 UNL     1      35.643  10.315  10.819  1.00  0.00     0.183 C 
HETATM    5  C12 UNL     1      36.244  11.681  11.125  1.00  0.00     0.214 C 
ENDROOT
BRANCH   1   6
HETATM    6  N5  UNL     1      34.494  13.267  11.503  1.00  0.00    -0.285 N 
HETATM    7  C4  UNL     1      35.084  14.299  10.831  1.00  0.00     0.189 A 
HETATM    8  N4  UNL     1      34.129  15.101  10.341  1.00  0.00    -0.346 N 
HETATM    9  C3  UNL     1      32.922  14.626  10.672  1.00  0.00     0.123 A 
ATOM     10  H4  UNL     1      34.297  15.948   9.797  1.00  0.00     0.167 HD
HETATM   11  C2  UNL     1      31.619  15.003  10.457  1.00  0.00     0.145 A 
HETATM   12  C13 UNL     1      33.153  13.460  11.411  1.00  0.00     0.158 A 
HETATM   13  N2  UNL     1      30.586  14.273  10.942  1.00  0.00    -0.175 N 
HETATM   14  C1  UNL     1      30.856  13.160  11.645  1.00  0.00     0.679 A 
ATOM     15  H2  UNL     1      29.622  14.562  10.776  1.00  0.00     0.186 HD
HETATM   16  N12 UNL     1      32.120  12.748  11.884  1.00  0.00    -0.174 N 
ATOM     17  H12 UNL     1      32.288  11.897  12.422  1.00  0.00     0.186 HD
BRANCH  11  18
HETATM   18  N3  UNL     1      31.380  16.066   9.785  1.00  0.00    -0.383 N 
ATOM     19  H32 UNL     1      30.482  16.534   9.900  1.00  0.00     0.157 HD
ATOM     20  H31 UNL     1      32.089  16.428   9.147  1.00  0.00     0.157 HD
ENDBRANCH  11  18
BRANCH  14  21
HETATM   21  N1  UNL     1      29.900  12.442  12.121  1.00  0.00    -0.234 N 
ATOM     22  H12 UNL     1      30.098  11.459  12.305  1.00  0.00     0.174 HD
ATOM     23  H11 UNL     1      28.985  12.856  12.303  1.00  0.00     0.174 HD
ENDBRANCH  14  21
ENDBRANCH   1   6
BRANCH   1  24
HETATM   24  C6  UNL     1      36.105  12.682  13.278  1.00  0.00     0.173 A 
HETATM   25  N6  UNL     1      36.354  12.039  14.404  1.00  0.00    -0.268 N 
HETATM   26  N7  UNL     1      37.122  12.801  15.143  1.00  0.00    -0.227 N 
ATOM     27  H6  UNL     1      36.010  11.113  14.655  1.00  0.00     0.190 HD
HETATM   28  N8  UNL     1      37.363  13.921  14.498  1.00  0.00    -0.227 N 
ATOM     29  H7  UNL     1      37.475  12.563  16.071  1.00  0.00     0.210 HD
HETATM   30  N9  UNL     1      36.742  13.862  13.345  1.00  0.00    -0.268 N 
ATOM     31  H8  UNL     1      37.933  14.697  14.835  1.00  0.00     0.210 HD
ATOM     32  H9  UNL     1      36.742  14.586  12.626  1.00  0.00     0.190 HD
ENDBRANCH   1  24
BRANCH   5  33
HETATM   33  O6  UNL     1      37.491  11.388  11.718  1.00  0.00    -0.387 OA
ATOM     34  H6  UNL     1      37.503  11.631  12.636  1.00  0.00     0.210 HD
ENDBRANCH   5  33
BRANCH   3  35
HETATM   35  C8  UNL     1      33.868   8.994  12.016  1.00  0.00     0.182 C 
BRANCH  35  36
HETATM   36  O2  UNL     1      34.445   7.720  11.764  1.00  0.00    -0.390 OA
ATOM     37  H2  UNL     1      35.285   7.881  11.351  1.00  0.00     0.210 HD
ENDBRANCH  35  36
BRANCH  35  38
HETATM   38  C9  UNL     1      32.951   9.259  10.875  1.00  0.00     0.195 C 
BRANCH  38  39
HETATM   39  O3  UNL     1      31.719   9.772  11.179  1.00  0.00    -0.389 OA
ATOM     40  H3  UNL     1      31.564  10.007  12.086  1.00  0.00     0.210 HD
ENDBRANCH  38  39
BRANCH  38  41
HETATM   41  C10 UNL     1      32.785   7.992  10.029  1.00  0.00     0.261 C 
BRANCH  41  42
HETATM   42  O4  UNL     1      31.429   7.698   9.850  1.00  0.00    -0.375 OA
ATOM     43  H4  UNL     1      31.006   8.376   9.337  1.00  0.00     0.211 HD
ENDBRANCH  41  42
BRANCH  41  44
HETATM   44  N10 UNL     1      33.340   8.190   8.707  1.00  0.00    -0.113 NA
BRANCH  44  45
HETATM   45  N11 UNL     1      32.400   8.880   7.947  1.00  0.00    -0.346 N 
ATOM     46 2H11 UNL     1      31.519   9.256   8.299  1.00  0.00     0.172 HD
ATOM     47 1H11 UNL     1      32.751   8.939   6.992  1.00  0.00     0.172 HD
ENDBRANCH  44  45
ENDBRANCH  41  44
ENDBRANCH  38  41
ENDBRANCH  35  38
ENDBRANCH   3  35
BRANCH   4  48
HETATM   48  O5  UNL     1      36.683   9.458  10.434  1.00  0.00    -0.390 OA
ATOM     49  H5  UNL     1      36.519   8.984   9.627  1.00  0.00     0.210 HD
ENDBRANCH   4  48
TORSDOF 14
ENDMDL
