MODEL 1
REMARK VINA RESULT: -6.240656639      0.000      0.000
REMARK  13 active torsions:
REMARK  status: ('A' for Active; 'I' for Inactive)
REMARK    1  A    between atoms: N1_1  and  C1_4 
REMARK    2  A    between atoms: N3_8  and  C3_9 
REMARK    3  A    between atoms: C4_11  and  C5_12 
REMARK    4  A    between atoms: N4_13  and  N5_15 
REMARK    5  A    between atoms: N5_15  and  C6_16 
REMARK    6  A    between atoms: N5_15  and  N10_33 
REMARK    7  A    between atoms: C6_16  and  C7_17 
REMARK    8  A    between atoms: C8_18  and  O2_19 
REMARK    9  A    between atoms: C9_23  and  N7_24 
REMARK   10  A    between atoms: N10_33  and  N11_34 
REMARK   11  A    between atoms: N11_34  and  N12_35 
REMARK   12  A    between atoms: C11_38  and  O3_39 
REMARK   13  A    between atoms: C12_41  and  O4_42 
ROOT
HETATM    1  C5  UNL     1      32.238  16.361   8.817  1.00  0.00     0.116 C 
HETATM    2  N4  UNL     1      33.435  16.624   8.410  1.00  0.00    -0.294 N 
ATOM      3  H4  UNL     1      34.237  16.052   8.672  1.00  0.00     0.187 HD
ENDROOT
BRANCH   2   4
HETATM    4  N5  UNL     1      33.563  17.800   7.547  1.00  0.00    -0.193 N 
BRANCH   4   5
HETATM    5  C6  UNL     1      32.709  17.813   6.464  1.00  0.00     0.153 C 
BRANCH   5   6
HETATM    6  C7  UNL     1      32.915  17.340   5.133  1.00  0.00     0.078 A 
HETATM    7  C8  UNL     1      33.546  18.246   4.222  1.00  0.00     0.170 A 
HETATM    8  N6  UNL     1      33.772  17.921   2.958  1.00  0.00    -0.170 N 
HETATM    9  C9  UNL     1      33.421  16.728   2.471  1.00  0.00     0.679 A 
ATOM     10  H6  UNL     1      34.225  18.596   2.343  1.00  0.00     0.186 HD
HETATM   11  N8  UNL     1      32.833  15.857   3.276  1.00  0.00    -0.176 N 
HETATM   12  C10 UNL     1      32.582  16.153   4.588  1.00  0.00     0.130 A 
ATOM     13  H8  UNL     1      32.561  14.945   2.910  1.00  0.00     0.186 HD
HETATM   14  N9  UNL     1      32.003  15.227   5.235  1.00  0.00    -0.384 N 
ATOM     15  H92 UNL     1      31.816  15.447   6.213  1.00  0.00     0.157 HD
ATOM     16  H91 UNL     1      31.751  14.330   4.823  1.00  0.00     0.157 HD
BRANCH   7  17
HETATM   17  O2  UNL     1      33.900  19.481   4.765  1.00  0.00    -0.345 OA
ATOM     18  H2  UNL     1      34.807  19.731   4.638  1.00  0.00     0.219 HD
ENDBRANCH   7  17
BRANCH   9  19
HETATM   19  N7  UNL     1      33.665  16.454   1.215  1.00  0.00    -0.234 N 
ATOM     20  H72 UNL     1      34.170  17.101   0.610  1.00  0.00     0.174 HD
ATOM     21  H71 UNL     1      33.342  15.567   0.827  1.00  0.00     0.174 HD
ENDBRANCH   9  19
ENDBRANCH   5   6
ENDBRANCH   4   5
BRANCH   4  22
HETATM   22  N10 UNL     1      34.494  18.666   8.010  1.00  0.00     0.013 NA
BRANCH  22  23
HETATM   23  N11 UNL     1      34.296  19.993   7.581  1.00  0.00    -0.014 NA
BRANCH  23  24
HETATM   24  N12 UNL     1      35.534  20.423   7.047  1.00  0.00    -0.330 N 
ATOM     25 2H12 UNL     1      36.120  19.905   6.393  1.00  0.00     0.173 HD
ATOM     26 1H12 UNL     1      35.711  21.344   7.447  1.00  0.00     0.173 HD
ENDBRANCH  23  24
ENDBRANCH  22  23
ENDBRANCH   4  22
ENDBRANCH   2   4
BRANCH   1  27
HETATM   27  C4  UNL     1      31.929  15.209   9.696  1.00  0.00     0.195 C 
HETATM   28  O1  UNL     1      32.345  14.031   9.092  1.00  0.00    -0.350 OA
HETATM   29  C3  UNL     1      32.763  13.183  10.122  1.00  0.00     0.265 C 
HETATM   30  C12 UNL     1      33.464  14.095  11.077  1.00  0.00     0.199 C 
HETATM   31  C11 UNL     1      32.521  15.295  11.062  1.00  0.00     0.185 C 
BRANCH  29  32
HETATM   32  N3  UNL     1      31.572  12.559  10.630  1.00  0.00    -0.265 N 
HETATM   33  C2  UNL     1      30.974  12.925  11.762  1.00  0.00     0.208 A 
HETATM   34  N2  UNL     1      29.865  12.273  12.143  1.00  0.00    -0.188 N 
HETATM   35  C1  UNL     1      29.362  11.270  11.406  1.00  0.00     0.680 A 
ATOM     36  H2  UNL     1      29.396  12.544  13.007  1.00  0.00     0.185 HD
HETATM   37  N13 UNL     1      29.961  10.895  10.264  1.00  0.00    -0.141 N 
HETATM   38  C13 UNL     1      31.068  11.542   9.875  1.00  0.00     0.343 A 
ATOM     39  H13 UNL     1      29.580  10.133   9.703  1.00  0.00     0.189 HD
HETATM   40  O5  UNL     1      31.621  11.183   8.804  1.00  0.00    -0.246 OA
BRANCH  35  41
HETATM   41  N1  UNL     1      28.298  10.680  11.820  1.00  0.00    -0.234 N 
ATOM     42  H12 UNL     1      27.984  10.781  12.784  1.00  0.00     0.174 HD
ATOM     43  H11 UNL     1      27.773  10.107  11.160  1.00  0.00     0.174 HD
ENDBRANCH  35  41
ENDBRANCH  29  32
BRANCH  30  44
HETATM   44  O4  UNL     1      34.631  14.554  10.427  1.00  0.00    -0.388 OA
ATOM     45  H4  UNL     1      35.246  14.807  11.106  1.00  0.00     0.210 HD
ENDBRANCH  30  44
BRANCH  31  46
HETATM   46  O3  UNL     1      33.165  16.467  11.356  1.00  0.00    -0.390 OA
ATOM     47  H3  UNL     1      33.086  16.766  12.255  1.00  0.00     0.210 HD
ENDBRANCH  31  46
ENDBRANCH   1  27
TORSDOF 13
ENDMDL
MODEL 2
REMARK VINA RESULT: -6.134107769      0.940      1.479
REMARK  13 active torsions:
REMARK  status: ('A' for Active; 'I' for Inactive)
REMARK    1  A    between atoms: N1_1  and  C1_4 
REMARK    2  A    between atoms: N3_8  and  C3_9 
REMARK    3  A    between atoms: C4_11  and  C5_12 
REMARK    4  A    between atoms: N4_13  and  N5_15 
REMARK    5  A    between atoms: N5_15  and  C6_16 
REMARK    6  A    between atoms: N5_15  and  N10_33 
REMARK    7  A    between atoms: C6_16  and  C7_17 
REMARK    8  A    between atoms: C8_18  and  O2_19 
REMARK    9  A    between atoms: C9_23  and  N7_24 
REMARK   10  A    between atoms: N10_33  and  N11_34 
REMARK   11  A    between atoms: N11_34  and  N12_35 
REMARK   12  A    between atoms: C11_38  and  O3_39 
REMARK   13  A    between atoms: C12_41  and  O4_42 
ROOT
HETATM    1  C5  UNL     1      32.295  16.316   8.819  1.00  0.00     0.116 C 
HETATM    2  N4  UNL     1      33.508  16.641   8.518  1.00  0.00    -0.294 N 
ATOM      3  H4  UNL     1      34.313  16.127   8.877  1.00  0.00     0.187 HD
ENDROOT
BRANCH   2   4
HETATM    4  N5  UNL     1      33.650  17.795   7.629  1.00  0.00    -0.193 N 
BRANCH   4   5
HETATM    5  C6  UNL     1      32.764  17.820   6.574  1.00  0.00     0.153 C 
BRANCH   5   6
HETATM    6  C7  UNL     1      32.992  17.592   5.183  1.00  0.00     0.078 A 
HETATM    7  C8  UNL     1      32.366  16.439   4.612  1.00  0.00     0.170 A 
HETATM    8  N6  UNL     1      32.521  16.120   3.336  1.00  0.00    -0.170 N 
HETATM    9  C9  UNL     1      33.272  16.861   2.518  1.00  0.00     0.679 A 
ATOM     10  H6  UNL     1      32.056  15.289   2.970  1.00  0.00     0.186 HD
HETATM   11  N8  UNL     1      33.873  17.936   3.002  1.00  0.00    -0.176 N 
HETATM   12  C10 UNL     1      33.738  18.302   4.313  1.00  0.00     0.130 A 
ATOM     13  H8  UNL     1      34.449  18.506   2.382  1.00  0.00     0.186 HD
HETATM   14  N9  UNL     1      34.380  19.347   4.637  1.00  0.00    -0.384 N 
ATOM     15  H92 UNL     1      34.280  19.620   5.615  1.00  0.00     0.157 HD
ATOM     16  H91 UNL     1      34.944  19.884   3.979  1.00  0.00     0.157 HD
BRANCH   7  17
HETATM   17  O2  UNL     1      31.588  15.690   5.495  1.00  0.00    -0.345 OA
ATOM     18  H2  UNL     1      31.029  15.041   5.087  1.00  0.00     0.219 HD
ENDBRANCH   7  17
BRANCH   9  19
HETATM   19  N7  UNL     1      33.396  16.504   1.265  1.00  0.00    -0.234 N 
ATOM     20  H72 UNL     1      33.271  15.537   0.965  1.00  0.00     0.174 HD
ATOM     21  H71 UNL     1      33.622  17.211   0.566  1.00  0.00     0.174 HD
ENDBRANCH   9  19
ENDBRANCH   5   6
ENDBRANCH   4   5
BRANCH   4  22
HETATM   22  N10 UNL     1      34.627  18.634   8.046  1.00  0.00     0.013 NA
BRANCH  22  23
HETATM   23  N11 UNL     1      34.438  19.970   7.637  1.00  0.00    -0.014 NA
BRANCH  23  24
HETATM   24  N12 UNL     1      34.993  20.777   8.658  1.00  0.00    -0.330 N 
ATOM     25 2H12 UNL     1      35.668  21.530   8.529  1.00  0.00     0.173 HD
ATOM     26 1H12 UNL     1      34.583  20.450   9.532  1.00  0.00     0.173 HD
ENDBRANCH  23  24
ENDBRANCH  22  23
ENDBRANCH   4  22
ENDBRANCH   2   4
BRANCH   1  27
HETATM   27  C4  UNL     1      31.970  15.175   9.706  1.00  0.00     0.195 C 
HETATM   28  O1  UNL     1      32.406  13.991   9.129  1.00  0.00    -0.350 OA
HETATM   29  C3  UNL     1      32.802  13.160  10.181  1.00  0.00     0.265 C 
HETATM   30  C12 UNL     1      33.475  14.089  11.140  1.00  0.00     0.199 C 
HETATM   31  C11 UNL     1      32.527  15.283  11.085  1.00  0.00     0.185 C 
BRANCH  29  32
HETATM   32  N3  UNL     1      31.603  12.537  10.668  1.00  0.00    -0.265 N 
HETATM   33  C2  UNL     1      30.974  12.917  11.779  1.00  0.00     0.208 A 
HETATM   34  N2  UNL     1      29.859  12.264  12.142  1.00  0.00    -0.188 N 
HETATM   35  C1  UNL     1      29.380  11.247  11.408  1.00  0.00     0.680 A 
ATOM     36  H2  UNL     1      29.367  12.545  12.989  1.00  0.00     0.185 HD
HETATM   37  N13 UNL     1      30.010  10.858  10.286  1.00  0.00    -0.141 N 
HETATM   38  C13 UNL     1      31.123  11.505   9.916  1.00  0.00     0.343 A 
ATOM     39  H13 UNL     1      29.648  10.085   9.728  1.00  0.00     0.189 HD
HETATM   40  O5  UNL     1      31.705  11.133   8.866  1.00  0.00    -0.246 OA
BRANCH  35  41
HETATM   41  N1  UNL     1      28.310  10.657  11.803  1.00  0.00    -0.234 N 
ATOM     42  H12 UNL     1      28.345   9.724  12.213  1.00  0.00     0.174 HD
ATOM     43  H11 UNL     1      27.420  11.144  11.699  1.00  0.00     0.174 HD
ENDBRANCH  35  41
ENDBRANCH  29  32
BRANCH  30  44
HETATM   44  O4  UNL     1      34.656  14.544  10.512  1.00  0.00    -0.388 OA
ATOM     45  H4  UNL     1      35.102  15.105  11.135  1.00  0.00     0.210 HD
ENDBRANCH  30  44
BRANCH  31  46
HETATM   46  O3  UNL     1      33.159  16.462  11.379  1.00  0.00    -0.390 OA
ATOM     47  H3  UNL     1      34.091  16.398  11.551  1.00  0.00     0.210 HD
ENDBRANCH  31  46
ENDBRANCH   1  27
TORSDOF 13
ENDMDL
MODEL 3
REMARK VINA RESULT: -5.884242898      2.202      7.990
REMARK  13 active torsions:
REMARK  status: ('A' for Active; 'I' for Inactive)
REMARK    1  A    between atoms: N1_1  and  C1_4 
REMARK    2  A    between atoms: N3_8  and  C3_9 
REMARK    3  A    between atoms: C4_11  and  C5_12 
REMARK    4  A    between atoms: N4_13  and  N5_15 
REMARK    5  A    between atoms: N5_15  and  C6_16 
REMARK    6  A    between atoms: N5_15  and  N10_33 
REMARK    7  A    between atoms: C6_16  and  C7_17 
REMARK    8  A    between atoms: C8_18  and  O2_19 
REMARK    9  A    between atoms: C9_23  and  N7_24 
REMARK   10  A    between atoms: N10_33  and  N11_34 
REMARK   11  A    between atoms: N11_34  and  N12_35 
REMARK   12  A    between atoms: C11_38  and  O3_39 
REMARK   13  A    between atoms: C12_41  and  O4_42 
ROOT
HETATM    1  C5  UNL     1      34.020  15.396   7.980  1.00  0.00     0.116 C 
HETATM    2  N4  UNL     1      33.112  15.286   8.892  1.00  0.00    -0.294 N 
ATOM      3  H4  UNL     1      32.166  15.645   8.763  1.00  0.00     0.187 HD
ENDROOT
BRANCH   2   4
HETATM    4  N5  UNL     1      33.532  14.612  10.121  1.00  0.00    -0.193 N 
BRANCH   4   5
HETATM    5  C6  UNL     1      33.158  13.288  10.208  1.00  0.00     0.153 C 
BRANCH   5   6
HETATM    6  C7  UNL     1      31.935  12.713  10.665  1.00  0.00     0.078 A 
HETATM    7  C8  UNL     1      31.640  11.388  10.210  1.00  0.00     0.170 A 
HETATM    8  N6  UNL     1      30.526  10.761  10.556  1.00  0.00    -0.170 N 
HETATM    9  C9  UNL     1      29.620  11.337  11.350  1.00  0.00     0.679 A 
ATOM     10  H6  UNL     1      30.356   9.817  10.209  1.00  0.00     0.186 HD
HETATM   11  N8  UNL     1      29.848  12.562  11.795  1.00  0.00    -0.176 N 
HETATM   12  C10 UNL     1      30.986  13.245  11.462  1.00  0.00     0.130 A 
ATOM     13  H8  UNL     1      29.159  13.008  12.401  1.00  0.00     0.186 HD
HETATM   14  N9  UNL     1      31.063  14.412  11.953  1.00  0.00    -0.384 N 
ATOM     15  H92 UNL     1      31.911  14.921  11.704  1.00  0.00     0.157 HD
ATOM     16  H91 UNL     1      30.346  14.814  12.555  1.00  0.00     0.157 HD
BRANCH   7  17
HETATM   17  O2  UNL     1      32.609  10.818   9.384  1.00  0.00    -0.345 OA
ATOM     18  H2  UNL     1      32.270  10.284   8.675  1.00  0.00     0.219 HD
ENDBRANCH   7  17
BRANCH   9  19
HETATM   19  N7  UNL     1      28.534  10.677  11.663  1.00  0.00    -0.234 N 
ATOM     20  H72 UNL     1      28.076  10.049  11.004  1.00  0.00     0.174 HD
ATOM     21  H71 UNL     1      28.133  10.792  12.594  1.00  0.00     0.174 HD
ENDBRANCH   9  19
ENDBRANCH   5   6
ENDBRANCH   4   5
BRANCH   4  22
HETATM   22  N10 UNL     1      34.240  15.435  10.930  1.00  0.00     0.013 NA
BRANCH  22  23
HETATM   23  N11 UNL     1      33.813  16.778  10.884  1.00  0.00    -0.014 NA
BRANCH  23  24
HETATM   24  N12 UNL     1      34.987  17.560  10.777  1.00  0.00    -0.330 N 
ATOM     25 2H12 UNL     1      35.297  18.274  11.437  1.00  0.00     0.173 HD
ATOM     26 1H12 UNL     1      35.447  17.265   9.917  1.00  0.00     0.173 HD
ENDBRANCH  23  24
ENDBRANCH  22  23
ENDBRANCH   4  22
ENDBRANCH   2   4
BRANCH   1  27
HETATM   27  C4  UNL     1      33.766  16.050   6.675  1.00  0.00     0.195 C 
HETATM   28  O1  UNL     1      32.736  15.396   6.013  1.00  0.00    -0.350 OA
HETATM   29  C3  UNL     1      32.042  16.374   5.295  1.00  0.00     0.265 C 
HETATM   30  C12 UNL     1      32.023  17.551   6.216  1.00  0.00     0.199 C 
HETATM   31  C11 UNL     1      33.448  17.504   6.761  1.00  0.00     0.185 C 
BRANCH  29  32
HETATM   32  N3  UNL     1      32.773  16.562   4.072  1.00  0.00    -0.265 N 
HETATM   33  C2  UNL     1      33.612  17.575   3.864  1.00  0.00     0.208 A 
HETATM   34  N2  UNL     1      34.244  17.654   2.683  1.00  0.00    -0.188 N 
HETATM   35  C1  UNL     1      34.039  16.737   1.724  1.00  0.00     0.680 A 
ATOM     36  H2  UNL     1      34.890  18.423   2.511  1.00  0.00     0.185 HD
HETATM   37  N13 UNL     1      33.193  15.713   1.927  1.00  0.00    -0.141 N 
HETATM   38  C13 UNL     1      32.560  15.626   3.104  1.00  0.00     0.343 A 
ATOM     39  H13 UNL     1      33.037  15.016   1.199  1.00  0.00     0.189 HD
HETATM   40  O5  UNL     1      31.770  14.664   3.284  1.00  0.00    -0.246 OA
BRANCH  35  41
HETATM   41  N1  UNL     1      34.670  16.863   0.612  1.00  0.00    -0.234 N 
ATOM     42  H12 UNL     1      35.684  16.766   0.569  1.00  0.00     0.174 HD
ATOM     43  H11 UNL     1      34.132  17.062  -0.232  1.00  0.00     0.174 HD
ENDBRANCH  35  41
ENDBRANCH  29  32
BRANCH  30  44
HETATM   44  O4  UNL     1      31.210  17.199   7.317  1.00  0.00    -0.388 OA
ATOM     45  H4  UNL     1      30.311  17.366   7.062  1.00  0.00     0.210 HD
ENDBRANCH  30  44
BRANCH  31  46
HETATM   46  O3  UNL     1      33.546  18.059   8.009  1.00  0.00    -0.390 OA
ATOM     47  H3  UNL     1      33.064  18.868   8.139  1.00  0.00     0.210 HD
ENDBRANCH  31  46
ENDBRANCH   1  27
TORSDOF 13
ENDMDL
MODEL 4
REMARK VINA RESULT: -5.876493717      3.280      7.785
REMARK  13 active torsions:
REMARK  status: ('A' for Active; 'I' for Inactive)
REMARK    1  A    between atoms: N1_1  and  C1_4 
REMARK    2  A    between atoms: N3_8  and  C3_9 
REMARK    3  A    between atoms: C4_11  and  C5_12 
REMARK    4  A    between atoms: N4_13  and  N5_15 
REMARK    5  A    between atoms: N5_15  and  C6_16 
REMARK    6  A    between atoms: N5_15  and  N10_33 
REMARK    7  A    between atoms: C6_16  and  C7_17 
REMARK    8  A    between atoms: C8_18  and  O2_19 
REMARK    9  A    between atoms: C9_23  and  N7_24 
REMARK   10  A    between atoms: N10_33  and  N11_34 
REMARK   11  A    between atoms: N11_34  and  N12_35 
REMARK   12  A    between atoms: C11_38  and  O3_39 
REMARK   13  A    between atoms: C12_41  and  O4_42 
ROOT
HETATM    1  C5  UNL     1      33.449  11.853  10.335  1.00  0.00     0.116 C 
HETATM    2  N4  UNL     1      32.436  11.268  10.882  1.00  0.00    -0.294 N 
ATOM      3  H4  UNL     1      31.612  11.783  11.193  1.00  0.00     0.187 HD
ENDROOT
BRANCH   2   4
HETATM    4  N5  UNL     1      32.550   9.816  11.027  1.00  0.00    -0.193 N 
BRANCH   4   5
HETATM    5  C6  UNL     1      32.015   9.090   9.984  1.00  0.00     0.153 C 
BRANCH   5   6
HETATM    6  C7  UNL     1      32.477   8.945   8.641  1.00  0.00     0.078 A 
HETATM    7  C8  UNL     1      31.756   9.663   7.635  1.00  0.00     0.170 A 
HETATM    8  N6  UNL     1      32.084   9.591   6.353  1.00  0.00    -0.170 N 
HETATM    9  C9  UNL     1      33.108   8.841   5.938  1.00  0.00     0.679 A 
ATOM     10  H6  UNL     1      31.543  10.119   5.669  1.00  0.00     0.186 HD
HETATM   11  N8  UNL     1      33.804   8.158   6.832  1.00  0.00    -0.176 N 
HETATM   12  C10 UNL     1      33.499   8.206   8.165  1.00  0.00     0.130 A 
ATOM     13  H8  UNL     1      34.587   7.583   6.521  1.00  0.00     0.186 HD
HETATM   14  N9  UNL     1      34.244   7.492   8.902  1.00  0.00    -0.384 N 
ATOM     15  H92 UNL     1      34.017   7.527   9.896  1.00  0.00     0.157 HD
ATOM     16  H91 UNL     1      35.017   6.933   8.542  1.00  0.00     0.157 HD
BRANCH   7  17
HETATM   17  O2  UNL     1      30.694  10.435   8.106  1.00  0.00    -0.345 OA
ATOM     18  H2  UNL     1      30.247  10.950   7.445  1.00  0.00     0.219 HD
ENDBRANCH   7  17
BRANCH   9  19
HETATM   19  N7  UNL     1      33.393   8.801   4.661  1.00  0.00    -0.234 N 
ATOM     20  H72 UNL     1      33.349   9.632   4.073  1.00  0.00     0.174 HD
ATOM     21  H71 UNL     1      33.669   7.914   4.241  1.00  0.00     0.174 HD
ENDBRANCH   9  19
ENDBRANCH   5   6
ENDBRANCH   4   5
BRANCH   4  22
HETATM   22  N10 UNL     1      33.193   9.472  12.168  1.00  0.00     0.013 NA
BRANCH  22  23
HETATM   23  N11 UNL     1      33.731   8.170  12.144  1.00  0.00    -0.014 NA
BRANCH  23  24
HETATM   24  N12 UNL     1      34.120   7.880  13.473  1.00  0.00    -0.330 N 
ATOM     25 2H12 UNL     1      35.043   8.036  13.877  1.00  0.00     0.173 HD
ATOM     26 1H12 UNL     1      33.297   7.490  13.931  1.00  0.00     0.173 HD
ENDBRANCH  23  24
ENDBRANCH  22  23
ENDBRANCH   4  22
ENDBRANCH   2   4
BRANCH   1  27
HETATM   27  C4  UNL     1      33.500  13.317  10.112  1.00  0.00     0.195 C 
HETATM   28  O1  UNL     1      32.433  13.710   9.317  1.00  0.00    -0.350 OA
HETATM   29  C3  UNL     1      32.065  14.987   9.751  1.00  0.00     0.265 C 
HETATM   30  C12 UNL     1      32.205  14.916  11.237  1.00  0.00     0.199 C 
HETATM   31  C11 UNL     1      33.509  14.134  11.359  1.00  0.00     0.185 C 
BRANCH  29  32
HETATM   32  N3  UNL     1      32.955  15.902   9.092  1.00  0.00    -0.265 N 
HETATM   33  C2  UNL     1      33.850  16.650   9.735  1.00  0.00     0.208 A 
HETATM   34  N2  UNL     1      34.632  17.473   9.020  1.00  0.00    -0.188 N 
HETATM   35  C1  UNL     1      34.522  17.549   7.684  1.00  0.00     0.680 A 
ATOM     36  H2  UNL     1      35.323  18.051   9.499  1.00  0.00     0.185 HD
HETATM   37  N13 UNL     1      33.621  16.797   7.029  1.00  0.00    -0.141 N 
HETATM   38  C13 UNL     1      32.836  15.972   7.736  1.00  0.00     0.343 A 
ATOM     39  H13 UNL     1      33.536  16.854   6.015  1.00  0.00     0.189 HD
HETATM   40  O5  UNL     1      31.997  15.274   7.114  1.00  0.00    -0.246 OA
BRANCH  35  41
HETATM   41  N1  UNL     1      35.297  18.354   7.051  1.00  0.00    -0.234 N 
ATOM     42  H12 UNL     1      35.762  19.123   7.533  1.00  0.00     0.174 HD
ATOM     43  H11 UNL     1      35.438  18.208   6.051  1.00  0.00     0.174 HD
ENDBRANCH  35  41
ENDBRANCH  29  32
BRANCH  30  44
HETATM   44  O4  UNL     1      31.212  14.024  11.702  1.00  0.00    -0.388 OA
ATOM     45  H4  UNL     1      30.576  14.542  12.182  1.00  0.00     0.210 HD
ENDBRANCH  30  44
BRANCH  31  46
HETATM   46  O3  UNL     1      33.586  13.429  12.530  1.00  0.00    -0.390 OA
ATOM     47  H3  UNL     1      34.376  12.913  12.650  1.00  0.00     0.210 HD
ENDBRANCH  31  46
ENDBRANCH   1  27
TORSDOF 13
ENDMDL
MODEL 5
REMARK VINA RESULT: -5.866388628      2.465      8.496
REMARK  13 active torsions:
REMARK  status: ('A' for Active; 'I' for Inactive)
REMARK    1  A    between atoms: N1_1  and  C1_4 
REMARK    2  A    between atoms: N3_8  and  C3_9 
REMARK    3  A    between atoms: C4_11  and  C5_12 
REMARK    4  A    between atoms: N4_13  and  N5_15 
REMARK    5  A    between atoms: N5_15  and  C6_16 
REMARK    6  A    between atoms: N5_15  and  N10_33 
REMARK    7  A    between atoms: C6_16  and  C7_17 
REMARK    8  A    between atoms: C8_18  and  O2_19 
REMARK    9  A    between atoms: C9_23  and  N7_24 
REMARK   10  A    between atoms: N10_33  and  N11_34 
REMARK   11  A    between atoms: N11_34  and  N12_35 
REMARK   12  A    between atoms: C11_38  and  O3_39 
REMARK   13  A    between atoms: C12_41  and  O4_42 
ROOT
HETATM    1  C5  UNL     1      33.180  16.126   7.845  1.00  0.00     0.116 C 
HETATM    2  N4  UNL     1      32.283  15.278   8.224  1.00  0.00    -0.294 N 
ATOM      3  H4  UNL     1      31.626  14.852   7.571  1.00  0.00     0.187 HD
ENDROOT
BRANCH   2   4
HETATM    4  N5  UNL     1      32.273  14.970   9.655  1.00  0.00    -0.193 N 
BRANCH   4   5
HETATM    5  C6  UNL     1      32.252  13.624   9.953  1.00  0.00     0.153 C 
BRANCH   5   6
HETATM    6  C7  UNL     1      31.158  12.789  10.330  1.00  0.00     0.078 A 
HETATM    7  C8  UNL     1      30.898  12.668  11.733  1.00  0.00     0.170 A 
HETATM    8  N6  UNL     1      29.919  11.908  12.200  1.00  0.00    -0.170 N 
HETATM    9  C9  UNL     1      29.125  11.214  11.381  1.00  0.00     0.679 A 
ATOM     10  H6  UNL     1      29.769  11.851  13.207  1.00  0.00     0.186 HD
HETATM   11  N8  UNL     1      29.327  11.293  10.076  1.00  0.00    -0.176 N 
HETATM   12  C10 UNL     1      30.326  12.068   9.552  1.00  0.00     0.130 A 
ATOM     13  H8  UNL     1      28.724  10.765   9.445  1.00  0.00     0.186 HD
HETATM   14  N9  UNL     1      30.408  12.037   8.287  1.00  0.00    -0.384 N 
ATOM     15  H92 UNL     1      31.153  12.614   7.896  1.00  0.00     0.157 HD
ATOM     16  H91 UNL     1      29.779  11.492   7.698  1.00  0.00     0.157 HD
BRANCH   7  17
HETATM   17  O2  UNL     1      31.747  13.407  12.557  1.00  0.00    -0.345 OA
ATOM     18  H2  UNL     1      32.617  13.043  12.667  1.00  0.00     0.219 HD
ENDBRANCH   7  17
BRANCH   9  19
HETATM   19  N7  UNL     1      28.171  10.476  11.890  1.00  0.00    -0.234 N 
ATOM     20  H72 UNL     1      27.994  10.441  12.894  1.00  0.00     0.174 HD
ATOM     21  H71 UNL     1      27.587   9.919  11.267  1.00  0.00     0.174 HD
ENDBRANCH   9  19
ENDBRANCH   5   6
ENDBRANCH   4   5
BRANCH   4  22
HETATM   22  N10 UNL     1      32.312  16.091  10.413  1.00  0.00     0.013 NA
BRANCH  22  23
HETATM   23  N11 UNL     1      31.289  16.157  11.380  1.00  0.00    -0.014 NA
BRANCH  23  24
HETATM   24  N12 UNL     1      30.074  16.255  10.662  1.00  0.00    -0.330 N 
ATOM     25 2H12 UNL     1      29.966  16.588   9.704  1.00  0.00     0.173 HD
ATOM     26 1H12 UNL     1      29.344  15.927  11.294  1.00  0.00     0.173 HD
ENDBRANCH  23  24
ENDBRANCH  22  23
ENDBRANCH   4  22
ENDBRANCH   2   4
BRANCH   1  27
HETATM   27  C4  UNL     1      33.331  16.551   6.433  1.00  0.00     0.195 C 
HETATM   28  O1  UNL     1      33.762  15.480   5.663  1.00  0.00    -0.350 OA
HETATM   29  C3  UNL     1      33.173  15.634   4.405  1.00  0.00     0.265 C 
HETATM   30  C12 UNL     1      31.797  16.131   4.710  1.00  0.00     0.199 C 
HETATM   31  C11 UNL     1      32.099  17.128   5.824  1.00  0.00     0.185 C 
BRANCH  29  32
HETATM   32  N3  UNL     1      34.012  16.552   3.684  1.00  0.00    -0.265 N 
HETATM   33  C2  UNL     1      35.143  17.056   4.175  1.00  0.00     0.208 A 
HETATM   34  N2  UNL     1      35.851  17.906   3.414  1.00  0.00    -0.188 N 
HETATM   35  C1  UNL     1      35.435  18.248   2.185  1.00  0.00     0.680 A 
ATOM     36  H2  UNL     1      36.720  18.298   3.777  1.00  0.00     0.185 HD
HETATM   37  N13 UNL     1      34.294  17.744   1.684  1.00  0.00    -0.141 N 
HETATM   38  C13 UNL     1      33.582  16.894   2.436  1.00  0.00     0.343 A 
ATOM     39  H13 UNL     1      33.977  18.003   0.751  1.00  0.00     0.189 HD
HETATM   40  O5  UNL     1      32.517  16.428   1.959  1.00  0.00    -0.246 OA
BRANCH  35  41
HETATM   41  N1  UNL     1      36.152  19.067   1.502  1.00  0.00    -0.234 N 
ATOM     42  H12 UNL     1      36.653  19.830   1.955  1.00  0.00     0.174 HD
ATOM     43  H11 UNL     1      36.210  18.936   0.491  1.00  0.00     0.174 HD
ENDBRANCH  35  41
ENDBRANCH  29  32
BRANCH  30  44
HETATM   44  O4  UNL     1      31.112  15.076   5.354  1.00  0.00    -0.388 OA
ATOM     45  H4  UNL     1      31.710  14.338   5.390  1.00  0.00     0.210 HD
ENDBRANCH  30  44
BRANCH  31  46
HETATM   46  O3  UNL     1      31.039  17.295   6.675  1.00  0.00    -0.390 OA
ATOM     47  H3  UNL     1      30.923  16.613   7.327  1.00  0.00     0.210 HD
ENDBRANCH  31  46
ENDBRANCH   1  27
TORSDOF 13
ENDMDL
