MODEL 1
REMARK VINA RESULT: -5.170121151      0.000      0.000
REMARK  15 active torsions:
REMARK  status: ('A' for Active; 'I' for Inactive)
REMARK    1  A    between atoms: C2_2  and  C14_42 
REMARK    2  A    between atoms: N1_3  and  N2_5 
REMARK    3  A    between atoms: C3_6  and  N3_7 
REMARK    4  A    between atoms: N3_7  and  N4_9 
REMARK    5  A    between atoms: N5_12  and  C4_13 
REMARK    6  A    between atoms: C5_15  and  C6_16 
REMARK    7  A    between atoms: C6_16  and  O2_17 
REMARK    8  A    between atoms: C6_16  and  C7_19 
REMARK    9  A    between atoms: C7_19  and  O3_20 
REMARK   10  A    between atoms: C8_22  and  O4_23 
REMARK   11  A    between atoms: C9_25  and  O5_26 
REMARK   12  A    between atoms: C11_31  and  N7_32 
REMARK   13  A    between atoms: C12_37  and  N9_38 
REMARK   14  A    between atoms: C14_42  and  N10_43 
REMARK   15  A    between atoms: C14_42  and  N11_47 
ROOT
HETATM    1  N2  UNL     1      32.496  11.080  10.005  1.00  0.00    -0.077 N 
HETATM    2  C3  UNL     1      33.334  11.558  10.957  1.00  0.00     0.724 A 
HETATM    3  N5  UNL     1      34.365  10.740  11.146  1.00  0.00    -0.132 N 
HETATM    4  C10 UNL     1      34.201   9.710  10.309  1.00  0.00     0.175 A 
HETATM    5  N6  UNL     1      34.910   8.596  10.062  1.00  0.00    -0.173 N 
ATOM      6  H6  UNL     1      35.773   8.429  10.579  1.00  0.00     0.186 HD
HETATM    7  C11 UNL     1      34.508   7.699   9.149  1.00  0.00     0.679 A 
HETATM    8  N8  UNL     1      33.387   7.882   8.453  1.00  0.00    -0.175 N 
ATOM      9  H8  UNL     1      33.103   7.186   7.764  1.00  0.00     0.186 HD
HETATM   10  C12 UNL     1      32.620   8.978   8.646  1.00  0.00     0.148 A 
HETATM   11  C13 UNL     1      33.017   9.914   9.581  1.00  0.00     0.164 A 
ENDROOT
BRANCH   3  12
HETATM   12  C4  UNL     1      35.477  10.875  12.059  1.00  0.00     0.279 C 
HETATM   13  O1  UNL     1      36.221  12.050  11.797  1.00  0.00    -0.352 OA
HETATM   14  C5  UNL     1      37.095  12.040  12.883  1.00  0.00     0.186 C 
HETATM   15  C8  UNL     1      36.133  11.931  14.047  1.00  0.00     0.182 C 
HETATM   16  C9  UNL     1      35.116  10.934  13.488  1.00  0.00     0.199 C 
BRANCH  14  17
HETATM   17  C6  UNL     1      37.854  13.342  12.879  1.00  0.00     0.173 C 
BRANCH  17  18
HETATM   18  O2  UNL     1      39.219  13.103  12.949  1.00  0.00    -0.391 OA
ATOM     19  H2  UNL     1      39.525  13.202  13.843  1.00  0.00     0.210 HD
ENDBRANCH  17  18
BRANCH  17  20
HETATM   20  C7  UNL     1      37.570  14.170  11.654  1.00  0.00     0.198 C 
BRANCH  20  21
HETATM   21  O3  UNL     1      36.431  14.948  11.959  1.00  0.00    -0.398 OA
ATOM     22  H3  UNL     1      36.431  15.672  11.345  1.00  0.00     0.209 HD
ENDBRANCH  20  21
ENDBRANCH  17  20
ENDBRANCH  14  17
BRANCH  15  23
HETATM   23  O4  UNL     1      35.448  13.117  14.278  1.00  0.00    -0.390 OA
ATOM     24  H4  UNL     1      35.270  13.257  15.200  1.00  0.00     0.210 HD
ENDBRANCH  15  23
BRANCH  16  25
HETATM   25  O5  UNL     1      35.364   9.710  14.152  1.00  0.00    -0.388 OA
ATOM     26  H5  UNL     1      36.292   9.559  14.289  1.00  0.00     0.210 HD
ENDBRANCH  16  25
ENDBRANCH   3  12
BRANCH   2  27
HETATM   27  N3  UNL     1      33.136  12.631  11.598  1.00  0.00    -0.136 N 
ATOM     28  H3  UNL     1      32.330  12.622  12.223  1.00  0.00     0.205 HD
BRANCH  27  29
HETATM   29  N4  UNL     1      33.853  13.812  11.574  1.00  0.00    -0.331 N 
ATOM     30  H42 UNL     1      34.684  13.807  12.166  1.00  0.00     0.177 HD
ATOM     31  H41 UNL     1      33.669  14.671  11.056  1.00  0.00     0.177 HD
ENDBRANCH  27  29
ENDBRANCH   2  27
BRANCH   1  32
HETATM   32  N1  UNL     1      31.342  11.648   9.509  1.00  0.00    -0.284 N 
HETATM   33  C2  UNL     1      30.209  11.738  10.058  1.00  0.00     0.058 C 
HETATM   34  C1  UNL     1      29.117  12.400   9.304  1.00  0.00     0.069 C 
ATOM     35  H1  UNL     1      31.413  12.047   8.573  1.00  0.00     0.187 HD
BRANCH  33  36
HETATM   36  C14 UNL     1      29.913  11.239  11.418  1.00  0.00     0.424 C 
BRANCH  36  37
HETATM   37  N10 UNL     1      28.646  10.535  11.478  1.00  0.00    -0.045 N 
ATOM     38 3H10 UNL     1      28.188  10.522  10.567  1.00  0.00     0.277 HD
ATOM     39 2H10 UNL     1      28.787   9.533  11.603  1.00  0.00     0.277 HD
ATOM     40 1H10 UNL     1      28.029  10.915  12.196  1.00  0.00     0.277 HD
ENDBRANCH  36  37
BRANCH  36  41
HETATM   41  N11 UNL     1      29.798  12.354  12.370  1.00  0.00    -0.045 N 
ATOM     42 3H11 UNL     1      30.695  12.816  12.519  1.00  0.00     0.277 HD
ATOM     43 2H11 UNL     1      29.285  13.140  11.971  1.00  0.00     0.277 HD
ATOM     44 1H11 UNL     1      29.385  12.040  13.248  1.00  0.00     0.277 HD
ENDBRANCH  36  41
ENDBRANCH  33  36
ENDBRANCH   1  32
BRANCH   7  45
HETATM   45  N7  UNL     1      35.265   6.657   8.985  1.00  0.00    -0.234 N 
ATOM     46  H72 UNL     1      35.775   6.483   8.119  1.00  0.00     0.174 HD
ATOM     47  H71 UNL     1      35.330   6.011   9.772  1.00  0.00     0.174 HD
ENDBRANCH   7  45
BRANCH  10  48
HETATM   48  N9  UNL     1      31.576   9.072   7.977  1.00  0.00    -0.383 N 
ATOM     49  H92 UNL     1      31.398   8.534   7.129  1.00  0.00     0.157 HD
ATOM     50  H91 UNL     1      30.873   9.740   8.293  1.00  0.00     0.157 HD
ENDBRANCH  10  48
TORSDOF 15
ENDMDL
MODEL 2
REMARK VINA RESULT: -5.131584427      3.397      6.333
REMARK  15 active torsions:
REMARK  status: ('A' for Active; 'I' for Inactive)
REMARK    1  A    between atoms: C2_2  and  C14_42 
REMARK    2  A    between atoms: N1_3  and  N2_5 
REMARK    3  A    between atoms: C3_6  and  N3_7 
REMARK    4  A    between atoms: N3_7  and  N4_9 
REMARK    5  A    between atoms: N5_12  and  C4_13 
REMARK    6  A    between atoms: C5_15  and  C6_16 
REMARK    7  A    between atoms: C6_16  and  O2_17 
REMARK    8  A    between atoms: C6_16  and  C7_19 
REMARK    9  A    between atoms: C7_19  and  O3_20 
REMARK   10  A    between atoms: C8_22  and  O4_23 
REMARK   11  A    between atoms: C9_25  and  O5_26 
REMARK   12  A    between atoms: C11_31  and  N7_32 
REMARK   13  A    between atoms: C12_37  and  N9_38 
REMARK   14  A    between atoms: C14_42  and  N10_43 
REMARK   15  A    between atoms: C14_42  and  N11_47 
ROOT
HETATM    1  N2  UNL     1      36.071  10.653  11.769  1.00  0.00    -0.077 N 
HETATM    2  C3  UNL     1      34.925  10.887  11.086  1.00  0.00     0.724 A 
HETATM    3  N5  UNL     1      33.942  10.098  11.509  1.00  0.00    -0.132 N 
HETATM    4  C10 UNL     1      34.450   9.333  12.482  1.00  0.00     0.175 A 
HETATM    5  N6  UNL     1      33.939   8.366  13.262  1.00  0.00    -0.173 N 
ATOM      6  H6  UNL     1      32.960   8.102  13.153  1.00  0.00     0.186 HD
HETATM    7  C11 UNL     1      34.689   7.740  14.181  1.00  0.00     0.679 A 
HETATM    8  N8  UNL     1      35.972   8.056  14.353  1.00  0.00    -0.175 N 
ATOM      9  H8  UNL     1      36.520   7.565  15.059  1.00  0.00     0.186 HD
HETATM   10  C12 UNL     1      36.557   9.018  13.606  1.00  0.00     0.148 A 
HETATM   11  C13 UNL     1      35.801   9.676  12.655  1.00  0.00     0.164 A 
ENDROOT
BRANCH   3  12
HETATM   12  C4  UNL     1      32.572  10.026  11.053  1.00  0.00     0.279 C 
HETATM   13  O1  UNL     1      32.095  11.295  10.649  1.00  0.00    -0.352 OA
HETATM   14  C5  UNL     1      30.862  10.938  10.106  1.00  0.00     0.186 C 
HETATM   15  C8  UNL     1      31.265   9.869   9.113  1.00  0.00     0.182 C 
HETATM   16  C9  UNL     1      32.335   9.121   9.912  1.00  0.00     0.199 C 
BRANCH  14  17
HETATM   17  C6  UNL     1      30.278  12.157   9.439  1.00  0.00     0.173 C 
BRANCH  17  18
HETATM   18  O2  UNL     1      28.894  12.142   9.537  1.00  0.00    -0.391 OA
ATOM     19  H2  UNL     1      28.532  12.955   9.202  1.00  0.00     0.210 HD
ENDBRANCH  17  18
BRANCH  17  20
HETATM   20  C7  UNL     1      30.792  13.440  10.034  1.00  0.00     0.198 C 
BRANCH  20  21
HETATM   21  O3  UNL     1      31.734  13.953   9.115  1.00  0.00    -0.398 OA
ATOM     22  H3  UNL     1      32.458  14.285   9.633  1.00  0.00     0.209 HD
ENDBRANCH  20  21
ENDBRANCH  17  20
ENDBRANCH  14  17
BRANCH  15  23
HETATM   23  O4  UNL     1      31.895  10.398   7.995  1.00  0.00    -0.390 OA
ATOM     24  H4  UNL     1      31.946   9.775   7.280  1.00  0.00     0.210 HD
ENDBRANCH  15  23
BRANCH  16  25
HETATM   25  O5  UNL     1      31.741   7.902  10.314  1.00  0.00    -0.388 OA
ATOM     26  H5  UNL     1      30.865   7.797   9.961  1.00  0.00     0.210 HD
ENDBRANCH  16  25
ENDBRANCH   3  12
BRANCH   2  27
HETATM   27  N3  UNL     1      34.821  11.730  10.148  1.00  0.00    -0.136 N 
ATOM     28  H3  UNL     1      35.000  11.364   9.213  1.00  0.00     0.205 HD
BRANCH  27  29
HETATM   29  N4  UNL     1      34.500  13.073  10.206  1.00  0.00    -0.331 N 
ATOM     30  H42 UNL     1      34.513  13.464  11.149  1.00  0.00     0.177 HD
ATOM     31  H41 UNL     1      34.257  13.714   9.451  1.00  0.00     0.177 HD
ENDBRANCH  27  29
ENDBRANCH   2  27
BRANCH   1  32
HETATM   32  N1  UNL     1      37.292  11.281  11.646  1.00  0.00    -0.284 N 
HETATM   33  C2  UNL     1      37.690  12.344  12.197  1.00  0.00     0.058 C 
HETATM   34  C1  UNL     1      39.063  12.818  11.894  1.00  0.00     0.069 C 
ATOM     35  H1  UNL     1      37.962  10.826  11.027  1.00  0.00     0.187 HD
BRANCH  33  36
HETATM   36  C14 UNL     1      36.874  13.136  13.142  1.00  0.00     0.424 C 
BRANCH  36  37
HETATM   37  N10 UNL     1      37.262  14.533  13.161  1.00  0.00    -0.045 N 
ATOM     38 3H10 UNL     1      37.799  14.756  13.998  1.00  0.00     0.277 HD
ATOM     39 2H10 UNL     1      37.973  14.729  12.456  1.00  0.00     0.277 HD
ATOM     40 1H10 UNL     1      36.460  15.156  13.060  1.00  0.00     0.277 HD
ENDBRANCH  36  37
BRANCH  36  41
HETATM   41  N11 UNL     1      37.052  12.651  14.519  1.00  0.00    -0.045 N 
ATOM     42 3H11 UNL     1      38.008  12.788  14.846  1.00  0.00     0.277 HD
ATOM     43 2H11 UNL     1      36.572  13.246  15.193  1.00  0.00     0.277 HD
ATOM     44 1H11 UNL     1      36.761  11.677  14.600  1.00  0.00     0.277 HD
ENDBRANCH  36  41
ENDBRANCH  33  36
ENDBRANCH   1  32
BRANCH   7  45
HETATM   45  N7  UNL     1      34.100   6.821  14.884  1.00  0.00    -0.234 N 
ATOM     46  H72 UNL     1      33.253   6.350  14.567  1.00  0.00     0.174 HD
ATOM     47  H71 UNL     1      34.528   6.586  15.780  1.00  0.00     0.174 HD
ENDBRANCH   7  45
BRANCH  10  48
HETATM   48  N9  UNL     1      37.763   9.245  13.806  1.00  0.00    -0.383 N 
ATOM     49  H92 UNL     1      38.507   8.938  13.180  1.00  0.00     0.157 HD
ATOM     50  H91 UNL     1      38.012   9.752  14.655  1.00  0.00     0.157 HD
ENDBRANCH  10  48
TORSDOF 15
ENDMDL
MODEL 3
REMARK VINA RESULT: -5.067728639      2.720      4.112
REMARK  15 active torsions:
REMARK  status: ('A' for Active; 'I' for Inactive)
REMARK    1  A    between atoms: C2_2  and  C14_42 
REMARK    2  A    between atoms: N1_3  and  N2_5 
REMARK    3  A    between atoms: C3_6  and  N3_7 
REMARK    4  A    between atoms: N3_7  and  N4_9 
REMARK    5  A    between atoms: N5_12  and  C4_13 
REMARK    6  A    between atoms: C5_15  and  C6_16 
REMARK    7  A    between atoms: C6_16  and  O2_17 
REMARK    8  A    between atoms: C6_16  and  C7_19 
REMARK    9  A    between atoms: C7_19  and  O3_20 
REMARK   10  A    between atoms: C8_22  and  O4_23 
REMARK   11  A    between atoms: C9_25  and  O5_26 
REMARK   12  A    between atoms: C11_31  and  N7_32 
REMARK   13  A    between atoms: C12_37  and  N9_38 
REMARK   14  A    between atoms: C14_42  and  N10_43 
REMARK   15  A    between atoms: C14_42  and  N11_47 
ROOT
HETATM    1  N2  UNL     1      31.752  11.361  10.357  1.00  0.00    -0.077 N 
HETATM    2  C3  UNL     1      32.799  10.696  10.903  1.00  0.00     0.724 A 
HETATM    3  N5  UNL     1      33.249   9.750  10.084  1.00  0.00    -0.132 N 
HETATM    4  C10 UNL     1      32.486   9.793   8.986  1.00  0.00     0.175 A 
HETATM    5  N6  UNL     1      32.468   9.087   7.843  1.00  0.00    -0.173 N 
ATOM      6  H6  UNL     1      33.153   8.344   7.704  1.00  0.00     0.186 HD
HETATM    7  C11 UNL     1      31.569   9.339   6.880  1.00  0.00     0.679 A 
HETATM    8  N8  UNL     1      30.659  10.301   7.024  1.00  0.00    -0.175 N 
ATOM      9  H8  UNL     1      29.986  10.473   6.277  1.00  0.00     0.186 HD
HETATM   10  C12 UNL     1      30.613  11.054   8.146  1.00  0.00     0.148 A 
HETATM   11  C13 UNL     1      31.531  10.811   9.148  1.00  0.00     0.164 A 
ENDROOT
BRANCH   3  12
HETATM   12  C4  UNL     1      34.341   8.824  10.277  1.00  0.00     0.279 C 
HETATM   13  O1  UNL     1      35.098   9.149  11.427  1.00  0.00    -0.352 OA
HETATM   14  C5  UNL     1      35.946   8.045  11.490  1.00  0.00     0.186 C 
HETATM   15  C8  UNL     1      34.957   6.899  11.467  1.00  0.00     0.182 C 
HETATM   16  C9  UNL     1      33.947   7.411  10.438  1.00  0.00     0.199 C 
BRANCH  14  17
HETATM   17  C6  UNL     1      36.714   8.122  12.784  1.00  0.00     0.173 C 
BRANCH  17  18
HETATM   18  O2  UNL     1      38.070   7.947  12.551  1.00  0.00    -0.391 OA
ATOM     19  H2  UNL     1      38.534   7.835  13.373  1.00  0.00     0.210 HD
ENDBRANCH  17  18
BRANCH  17  20
HETATM   20  C7  UNL     1      36.511   9.434  13.496  1.00  0.00     0.198 C 
BRANCH  20  21
HETATM   21  O3  UNL     1      35.249   9.350  14.126  1.00  0.00    -0.398 OA
ATOM     22  H3  UNL     1      34.865  10.217  14.066  1.00  0.00     0.209 HD
ENDBRANCH  20  21
ENDBRANCH  17  20
ENDBRANCH  14  17
BRANCH  15  23
HETATM   23  O4  UNL     1      34.275   6.769  12.670  1.00  0.00    -0.390 OA
ATOM     24  H4  UNL     1      33.333   6.792  12.554  1.00  0.00     0.210 HD
ENDBRANCH  15  23
BRANCH  16  25
HETATM   25  O5  UNL     1      34.172   6.657   9.262  1.00  0.00    -0.388 OA
ATOM     26  H5  UNL     1      33.941   5.743   9.373  1.00  0.00     0.210 HD
ENDBRANCH  16  25
ENDBRANCH   3  12
BRANCH   2  27
HETATM   27  N3  UNL     1      33.262  10.932  12.056  1.00  0.00    -0.136 N 
ATOM     28  H3  UNL     1      32.845  10.389  12.813  1.00  0.00     0.205 HD
BRANCH  27  29
HETATM   29  N4  UNL     1      34.251  11.819  12.440  1.00  0.00    -0.331 N 
ATOM     30  H42 UNL     1      33.969  12.799  12.403  1.00  0.00     0.177 HD
ATOM     31  H41 UNL     1      35.204  11.631  12.750  1.00  0.00     0.177 HD
ENDBRANCH  27  29
ENDBRANCH   2  27
BRANCH   1  32
HETATM   32  N1  UNL     1      31.037  12.419  10.877  1.00  0.00    -0.284 N 
HETATM   33  C2  UNL     1      31.329  13.646  10.870  1.00  0.00     0.058 C 
HETATM   34  C1  UNL     1      30.382  14.595  11.505  1.00  0.00     0.069 C 
ATOM     35  H1  UNL     1      30.155  12.177  11.328  1.00  0.00     0.187 HD
BRANCH  33  36
HETATM   36  C14 UNL     1      32.551  14.197  10.246  1.00  0.00     0.424 C 
BRANCH  36  37
HETATM   37  N10 UNL     1      33.355  14.948  11.191  1.00  0.00    -0.045 N 
ATOM     38 3H10 UNL     1      32.810  15.686  11.635  1.00  0.00     0.277 HD
ATOM     39 2H10 UNL     1      33.573  14.390  12.016  1.00  0.00     0.277 HD
ATOM     40 1H10 UNL     1      34.202  15.321  10.763  1.00  0.00     0.277 HD
ENDBRANCH  36  37
BRANCH  36  41
HETATM   41  N11 UNL     1      32.210  15.140   9.171  1.00  0.00    -0.045 N 
ATOM     42 3H11 UNL     1      31.996  14.656   8.299  1.00  0.00     0.277 HD
ATOM     43 2H11 UNL     1      31.304  15.581   9.328  1.00  0.00     0.277 HD
ATOM     44 1H11 UNL     1      32.949  15.832   9.047  1.00  0.00     0.277 HD
ENDBRANCH  36  41
ENDBRANCH  33  36
ENDBRANCH   1  32
BRANCH   7  45
HETATM   45  N7  UNL     1      31.637   8.601   5.814  1.00  0.00    -0.234 N 
ATOM     46  H72 UNL     1      32.211   8.854   5.010  1.00  0.00     0.174 HD
ATOM     47  H71 UNL     1      31.083   7.744   5.815  1.00  0.00     0.174 HD
ENDBRANCH   7  45
BRANCH  10  48
HETATM   48  N9  UNL     1      29.724  11.918   8.220  1.00  0.00    -0.383 N 
ATOM     49  H92 UNL     1      29.254  12.318   7.408  1.00  0.00     0.157 HD
ATOM     50  H91 UNL     1      29.468  12.252   9.150  1.00  0.00     0.157 HD
ENDBRANCH  10  48
TORSDOF 15
ENDMDL
MODEL 4
REMARK VINA RESULT: -5.065759983      3.021      6.165
REMARK  15 active torsions:
REMARK  status: ('A' for Active; 'I' for Inactive)
REMARK    1  A    between atoms: C2_2  and  C14_42 
REMARK    2  A    between atoms: N1_3  and  N2_5 
REMARK    3  A    between atoms: C3_6  and  N3_7 
REMARK    4  A    between atoms: N3_7  and  N4_9 
REMARK    5  A    between atoms: N5_12  and  C4_13 
REMARK    6  A    between atoms: C5_15  and  C6_16 
REMARK    7  A    between atoms: C6_16  and  O2_17 
REMARK    8  A    between atoms: C6_16  and  C7_19 
REMARK    9  A    between atoms: C7_19  and  O3_20 
REMARK   10  A    between atoms: C8_22  and  O4_23 
REMARK   11  A    between atoms: C9_25  and  O5_26 
REMARK   12  A    between atoms: C11_31  and  N7_32 
REMARK   13  A    between atoms: C12_37  and  N9_38 
REMARK   14  A    between atoms: C14_42  and  N10_43 
REMARK   15  A    between atoms: C14_42  and  N11_47 
ROOT
HETATM    1  N2  UNL     1      34.476   9.096  10.876  1.00  0.00    -0.077 N 
HETATM    2  C3  UNL     1      33.188   9.485  10.717  1.00  0.00     0.724 A 
HETATM    3  N5  UNL     1      32.932  10.595  11.402  1.00  0.00    -0.132 N 
HETATM    4  C10 UNL     1      34.066  10.938  12.022  1.00  0.00     0.175 A 
HETATM    5  N6  UNL     1      34.404  11.948  12.842  1.00  0.00    -0.173 N 
ATOM      6  H6  UNL     1      33.703  12.645  13.090  1.00  0.00     0.186 HD
HETATM    7  C11 UNL     1      35.645  12.058  13.340  1.00  0.00     0.679 A 
HETATM    8  N8  UNL     1      36.588  11.167  13.039  1.00  0.00    -0.175 N 
ATOM      9  H8  UNL     1      37.524  11.273  13.431  1.00  0.00     0.186 HD
HETATM   10  C12 UNL     1      36.324  10.124  12.221  1.00  0.00     0.148 A 
HETATM   11  C13 UNL     1      35.053   9.993  11.697  1.00  0.00     0.164 A 
ENDROOT
BRANCH   3  12
HETATM   12  C4  UNL     1      31.695  11.336  11.503  1.00  0.00     0.279 C 
HETATM   13  O1  UNL     1      31.921  12.730  11.425  1.00  0.00    -0.352 OA
HETATM   14  C5  UNL     1      30.608  13.195  11.370  1.00  0.00     0.186 C 
HETATM   15  C8  UNL     1      30.053  12.397  10.209  1.00  0.00     0.182 C 
HETATM   16  C9  UNL     1      30.690  11.030  10.467  1.00  0.00     0.199 C 
BRANCH  14  17
HETATM   17  C6  UNL     1      30.650  14.674  11.087  1.00  0.00     0.173 C 
BRANCH  17  18
HETATM   18  O2  UNL     1      30.044  15.378  12.118  1.00  0.00    -0.391 OA
ATOM     19  H2  UNL     1      30.458  16.227  12.225  1.00  0.00     0.210 HD
ENDBRANCH  17  18
BRANCH  17  20
HETATM   20  C7  UNL     1      32.055  15.187  10.912  1.00  0.00     0.198 C 
BRANCH  20  21
HETATM   21  O3  UNL     1      32.336  15.105   9.530  1.00  0.00    -0.398 OA
ATOM     22  H3  UNL     1      32.211  14.195   9.287  1.00  0.00     0.209 HD
ENDBRANCH  20  21
ENDBRANCH  17  20
ENDBRANCH  14  17
BRANCH  15  23
HETATM   23  O4  UNL     1      30.535  12.841   8.985  1.00  0.00    -0.390 OA
ATOM     24  H4  UNL     1      30.035  12.499   8.254  1.00  0.00     0.210 HD
ENDBRANCH  15  23
BRANCH  16  25
HETATM   25  O5  UNL     1      29.654  10.202  10.957  1.00  0.00    -0.388 OA
ATOM     26  H5  UNL     1      29.358   9.576  10.307  1.00  0.00     0.210 HD
ENDBRANCH  16  25
ENDBRANCH   3  12
BRANCH   2  27
HETATM   27  N3  UNL     1      32.338   8.850  10.027  1.00  0.00    -0.136 N 
ATOM     28  H3  UNL     1      31.608   8.379  10.561  1.00  0.00     0.205 HD
BRANCH  27  29
HETATM   29  N4  UNL     1      32.256   8.702   8.655  1.00  0.00    -0.331 N 
ATOM     30  H42 UNL     1      33.131   8.889   8.163  1.00  0.00     0.177 HD
ATOM     31  H41 UNL     1      31.457   8.438   8.079  1.00  0.00     0.177 HD
ENDBRANCH  27  29
ENDBRANCH   2  27
BRANCH   1  32
HETATM   32  N1  UNL     1      35.128   8.021  10.311  1.00  0.00    -0.284 N 
HETATM   33  C2  UNL     1      35.678   7.940   9.178  1.00  0.00     0.058 C 
HETATM   34  C1  UNL     1      36.318   6.657   8.800  1.00  0.00     0.069 C 
ATOM     35  H1  UNL     1      35.172   7.179  10.884  1.00  0.00     0.187 HD
BRANCH  33  36
HETATM   36  C14 UNL     1      35.739   9.058   8.212  1.00  0.00     0.424 C 
BRANCH  36  37
HETATM   37  N10 UNL     1      35.643   8.601   6.839  1.00  0.00    -0.045 N 
ATOM     38 3H10 UNL     1      35.306   9.342   6.226  1.00  0.00     0.277 HD
ATOM     39 2H10 UNL     1      36.567   8.460   6.431  1.00  0.00     0.277 HD
ATOM     40 1H10 UNL     1      35.069   7.762   6.754  1.00  0.00     0.277 HD
ENDBRANCH  36  37
BRANCH  36  41
HETATM   41  N11 UNL     1      37.026   9.764   8.311  1.00  0.00    -0.045 N 
ATOM     42 3H11 UNL     1      36.900  10.775   8.344  1.00  0.00     0.277 HD
ATOM     43 2H11 UNL     1      37.459   9.633   9.224  1.00  0.00     0.277 HD
ATOM     44 1H11 UNL     1      37.650   9.487   7.553  1.00  0.00     0.277 HD
ENDBRANCH  36  41
ENDBRANCH  33  36
ENDBRANCH   1  32
BRANCH   7  45
HETATM   45  N7  UNL     1      35.869  13.070  14.122  1.00  0.00    -0.234 N 
ATOM     46  H72 UNL     1      36.541  13.801  13.890  1.00  0.00     0.174 HD
ATOM     47  H71 UNL     1      35.336  13.103  14.991  1.00  0.00     0.174 HD
ENDBRANCH   7  45
BRANCH  10  48
HETATM   48  N9  UNL     1      37.246   9.320  12.002  1.00  0.00    -0.383 N 
ATOM     49  H92 UNL     1      38.167   9.384  12.435  1.00  0.00     0.157 HD
ATOM     50  H91 UNL     1      37.067   8.568  11.336  1.00  0.00     0.157 HD
ENDBRANCH  10  48
TORSDOF 15
ENDMDL
MODEL 5
REMARK VINA RESULT: -5.048283649      3.399      6.863
REMARK  15 active torsions:
REMARK  status: ('A' for Active; 'I' for Inactive)
REMARK    1  A    between atoms: C2_2  and  C14_42 
REMARK    2  A    between atoms: N1_3  and  N2_5 
REMARK    3  A    between atoms: C3_6  and  N3_7 
REMARK    4  A    between atoms: N3_7  and  N4_9 
REMARK    5  A    between atoms: N5_12  and  C4_13 
REMARK    6  A    between atoms: C5_15  and  C6_16 
REMARK    7  A    between atoms: C6_16  and  O2_17 
REMARK    8  A    between atoms: C6_16  and  C7_19 
REMARK    9  A    between atoms: C7_19  and  O3_20 
REMARK   10  A    between atoms: C8_22  and  O4_23 
REMARK   11  A    between atoms: C9_25  and  O5_26 
REMARK   12  A    between atoms: C11_31  and  N7_32 
REMARK   13  A    between atoms: C12_37  and  N9_38 
REMARK   14  A    between atoms: C14_42  and  N10_43 
REMARK   15  A    between atoms: C14_42  and  N11_47 
ROOT
HETATM    1  N2  UNL     1      35.317   9.600  10.317  1.00  0.00    -0.077 N 
HETATM    2  C3  UNL     1      34.110  10.033   9.880  1.00  0.00     0.724 A 
HETATM    3  N5  UNL     1      33.665  11.045  10.619  1.00  0.00    -0.132 N 
HETATM    4  C10 UNL     1      34.591  11.278  11.556  1.00  0.00     0.175 A 
HETATM    5  N6  UNL     1      34.685  12.159  12.566  1.00  0.00    -0.173 N 
ATOM      6  H6  UNL     1      33.932  12.830  12.714  1.00  0.00     0.186 HD
HETATM    7  C11 UNL     1      35.750  12.175  13.382  1.00  0.00     0.679 A 
HETATM    8  N8  UNL     1      36.753  11.315  13.220  1.00  0.00    -0.175 N 
ATOM      9  H8  UNL     1      37.551  11.348  13.854  1.00  0.00     0.186 HD
HETATM   10  C12 UNL     1      36.731  10.398  12.227  1.00  0.00     0.148 A 
HETATM   11  C13 UNL     1      35.644  10.366  11.375  1.00  0.00     0.164 A 
ENDROOT
BRANCH   3  12
HETATM   12  C4  UNL     1      32.433  11.790  10.493  1.00  0.00     0.279 C 
HETATM   13  O1  UNL     1      31.694  11.379   9.360  1.00  0.00    -0.352 OA
HETATM   14  C5  UNL     1      30.514  12.095   9.556  1.00  0.00     0.186 C 
HETATM   15  C8  UNL     1      30.139  11.684  10.964  1.00  0.00     0.182 C 
HETATM   16  C9  UNL     1      31.511  11.683  11.640  1.00  0.00     0.199 C 
BRANCH  14  17
HETATM   17  C6  UNL     1      29.513  11.631   8.531  1.00  0.00     0.173 C 
BRANCH  17  18
HETATM   18  O2  UNL     1      28.429  12.497   8.489  1.00  0.00    -0.391 OA
ATOM     19  H2  UNL     1      27.776  12.178   7.877  1.00  0.00     0.210 HD
ENDBRANCH  17  18
BRANCH  17  20
HETATM   20  C7  UNL     1      30.106  11.532   7.150  1.00  0.00     0.198 C 
BRANCH  20  21
HETATM   21  O3  UNL     1      30.748  10.275   7.085  1.00  0.00    -0.398 OA
ATOM     22  H3  UNL     1      31.540  10.354   7.603  1.00  0.00     0.209 HD
ENDBRANCH  20  21
ENDBRANCH  17  20
ENDBRANCH  14  17
BRANCH  15  23
HETATM   23  O4  UNL     1      29.661  10.381  11.022  1.00  0.00    -0.390 OA
ATOM     24  H4  UNL     1      28.778  10.336  11.370  1.00  0.00     0.210 HD
ENDBRANCH  15  23
BRANCH  16  25
HETATM   25  O5  UNL     1      31.543  12.836  12.459  1.00  0.00    -0.388 OA
ATOM     26  H5  UNL     1      30.791  13.398  12.315  1.00  0.00     0.210 HD
ENDBRANCH  16  25
ENDBRANCH   3  12
BRANCH   2  27
HETATM   27  N3  UNL     1      33.482   9.516   8.912  1.00  0.00    -0.136 N 
ATOM     28  H3  UNL     1      33.748   9.857   7.988  1.00  0.00     0.205 HD
BRANCH  27  29
HETATM   29  N4  UNL     1      32.488   8.555   8.923  1.00  0.00    -0.331 N 
ATOM     30  H42 UNL     1      31.557   8.922   9.120  1.00  0.00     0.177 HD
ATOM     31  H41 UNL     1      32.557   7.550   8.765  1.00  0.00     0.177 HD
ENDBRANCH  27  29
ENDBRANCH   2  27
BRANCH   1  32
HETATM   32  N1  UNL     1      36.112   8.599   9.801  1.00  0.00    -0.284 N 
HETATM   33  C2  UNL     1      36.919   8.655   8.832  1.00  0.00     0.058 C 
HETATM   34  C1  UNL     1      37.662   7.423   8.469  1.00  0.00     0.069 C 
ATOM     35  H1  UNL     1      36.039   7.693  10.264  1.00  0.00     0.187 HD
BRANCH  33  36
HETATM   36  C14 UNL     1      37.180   9.881   8.049  1.00  0.00     0.424 C 
BRANCH  36  37
HETATM   37  N10 UNL     1      37.685   9.585   6.722  1.00  0.00    -0.045 N 
ATOM     38 3H10 UNL     1      37.261   8.738   6.346  1.00  0.00     0.277 HD
ATOM     39 2H10 UNL     1      37.340  10.257   6.037  1.00  0.00     0.277 HD
ATOM     40 1H10 UNL     1      38.704   9.528   6.703  1.00  0.00     0.277 HD
ENDBRANCH  36  37
BRANCH  36  41
HETATM   41  N11 UNL     1      38.212  10.705   8.697  1.00  0.00    -0.045 N 
ATOM     42 3H11 UNL     1      39.093  10.677   8.186  1.00  0.00     0.277 HD
ATOM     43 2H11 UNL     1      38.012  11.701   8.605  1.00  0.00     0.277 HD
ATOM     44 1H11 UNL     1      38.333  10.433   9.673  1.00  0.00     0.277 HD
ENDBRANCH  36  41
ENDBRANCH  33  36
ENDBRANCH   1  32
BRANCH   7  45
HETATM   45  N7  UNL     1      35.744  13.067  14.327  1.00  0.00    -0.234 N 
ATOM     46  H72 UNL     1      34.915  13.265  14.886  1.00  0.00     0.174 HD
ATOM     47  H71 UNL     1      36.619  13.567  14.487  1.00  0.00     0.174 HD
ENDBRANCH   7  45
BRANCH  10  48
HETATM   48  N9  UNL     1      37.691   9.613  12.150  1.00  0.00    -0.383 N 
ATOM     49  H92 UNL     1      38.583   9.852  11.718  1.00  0.00     0.157 HD
ATOM     50  H91 UNL     1      37.563   8.674  12.527  1.00  0.00     0.157 HD
ENDBRANCH  10  48
TORSDOF 15
ENDMDL
