MODEL 1
REMARK VINA RESULT: -6.134959455      0.000      0.000
REMARK  16 active torsions:
REMARK  status: ('A' for Active; 'I' for Inactive)
REMARK    1  A    between atoms: C2_5  and  N3_6 
REMARK    2  A    between atoms: C3_10  and  O1_11 
REMARK    3  A    between atoms: C4_13  and  N4_14 
REMARK    4  A    between atoms: N4_14  and  N5_15 
REMARK    5  A    between atoms: N4_14  and  C5_18 
REMARK    6  A    between atoms: C7_20  and  N6_21 
REMARK    7  A    between atoms: C7_20  and  O2_25 
REMARK    8  A    between atoms: N7_28  and  N8_29 
REMARK    9  A    between atoms: N8_29  and  C8_31 
REMARK   10  A    between atoms: C8_31  and  C9_32 
REMARK   11  A    between atoms: C10_33  and  O4_34 
REMARK   12  A    between atoms: C11_37  and  C12_38 
REMARK   13  A    between atoms: C12_38  and  O6_39 
REMARK   14  A    between atoms: C12_38  and  C13_41 
REMARK   15  A    between atoms: C13_41  and  O7_42 
REMARK   16  A    between atoms: C14_44  and  O8_45 
ROOT
HETATM    1  N1  UNL     1      35.204  18.075  10.828  1.00  0.00    -0.062 NA
HETATM    2  C1  UNL     1      34.890  18.039   9.404  1.00  0.00     0.208 C 
HETATM    3  N2  UNL     1      35.108  19.108   8.766  1.00  0.00    -0.333 N 
ATOM      4  H2  UNL     1      35.490  19.937   9.221  1.00  0.00     0.164 HD
HETATM    5  C2  UNL     1      34.777  19.091   7.320  1.00  0.00     0.316 C 
HETATM    6  C3  UNL     1      35.191  17.749   6.848  1.00  0.00     0.213 C 
HETATM    7  C4  UNL     1      34.346  16.636   7.394  1.00  0.00     0.261 C 
HETATM    8  N7  UNL     1      34.329  16.802   8.838  1.00  0.00    -0.240 N 
ENDROOT
BRANCH   8   9
HETATM    9  N8  UNL     1      33.861  16.008   9.833  1.00  0.00    -0.325 N 
ATOM     10  H8  UNL     1      33.059  16.343  10.367  1.00  0.00     0.180 HD
BRANCH   9  11
HETATM   11  C8  UNL     1      34.407  14.743  10.186  1.00  0.00     0.186 C 
BRANCH  11  12
HETATM   12  C9  UNL     1      33.206  13.945  10.689  1.00  0.00     0.055 A 
HETATM   13  C10 UNL     1      33.094  13.192  11.832  1.00  0.00     0.194 A 
HETATM   14  O5  UNL     1      31.886  12.575  11.819  1.00  0.00    -0.286 OA
HETATM   15  C11 UNL     1      31.273  12.920  10.742  1.00  0.00     0.120 A 
HETATM   16  C14 UNL     1      32.044  13.780   9.980  1.00  0.00     0.111 A 
BRANCH  13  17
HETATM   17  O4  UNL     1      33.974  13.032  12.872  1.00  0.00    -0.340 OA
ATOM     18  H4  UNL     1      33.810  12.840  13.788  1.00  0.00     0.220 HD
ENDBRANCH  13  17
BRANCH  15  19
HETATM   19  C12 UNL     1      29.911  12.486  10.329  1.00  0.00     0.201 C 
BRANCH  19  20
HETATM   20  O6  UNL     1      29.734  12.258   9.032  1.00  0.00    -0.387 OA
ATOM     21  H6  UNL     1      30.523  12.145   8.515  1.00  0.00     0.210 HD
ENDBRANCH  19  20
BRANCH  19  22
HETATM   22  C13 UNL     1      29.394  11.405  11.255  1.00  0.00     0.202 C 
BRANCH  22  23
HETATM   23  O7  UNL     1      30.037  10.216  10.997  1.00  0.00    -0.398 OA
ATOM     24  H7  UNL     1      30.822  10.150  11.528  1.00  0.00     0.209 HD
ENDBRANCH  22  23
ENDBRANCH  19  22
ENDBRANCH  15  19
BRANCH  16  25
HETATM   25  O8  UNL     1      31.713  14.342   8.747  1.00  0.00    -0.357 OA
ATOM     26  H8  UNL     1      31.313  15.189   8.585  1.00  0.00     0.217 HD
ENDBRANCH  16  25
ENDBRANCH  11  12
ENDBRANCH   9  11
ENDBRANCH   8   9
BRANCH   7  27
HETATM   27  N4  UNL     1      33.130  16.433   6.797  1.00  0.00    -0.277 N 
BRANCH  27  28
HETATM   28  N5  UNL     1      32.010  17.142   7.253  1.00  0.00    -0.343 N 
ATOM     29  H52 UNL     1      32.199  18.135   7.393  1.00  0.00     0.176 HD
ATOM     30  H51 UNL     1      31.154  16.637   7.482  1.00  0.00     0.176 HD
ENDBRANCH  27  28
BRANCH  27  31
HETATM   31  C5  UNL     1      32.860  15.657   5.668  1.00  0.00     0.253 C 
HETATM   32  C6  UNL     1      32.102  16.188   4.490  1.00  0.00     0.156 C 
HETATM   33  C7  UNL     1      31.243  14.906   4.579  1.00  0.00     0.339 C 
HETATM   34  O3  UNL     1      31.830  14.707   5.811  1.00  0.00    -0.306 OA
BRANCH  33  35
HETATM   35  N6  UNL     1      31.516  14.036   3.498  1.00  0.00    -0.021 N 
ATOM     36  H63 UNL     1      30.850  14.164   2.735  1.00  0.00     0.280 HD
ATOM     37  H62 UNL     1      32.367  14.304   3.006  1.00  0.00     0.280 HD
ATOM     38  H61 UNL     1      31.549  13.066   3.808  1.00  0.00     0.280 HD
ENDBRANCH  33  35
BRANCH  33  39
HETATM   39  O2  UNL     1      29.880  15.214   4.622  1.00  0.00    -0.344 OA
ATOM     40  H2  UNL     1      29.364  14.546   4.186  1.00  0.00     0.215 HD
ENDBRANCH  33  39
ENDBRANCH  27  31
ENDBRANCH   7  27
BRANCH   6  41
HETATM   41  O1  UNL     1      35.668  17.637   5.577  1.00  0.00    -0.388 OA
ATOM     42  H1  UNL     1      35.555  16.806   5.129  1.00  0.00     0.210 HD
ENDBRANCH   6  41
BRANCH   5  43
HETATM   43  N3  UNL     1      33.415  19.488   7.248  1.00  0.00    -0.056 N 
ATOM     44  H33 UNL     1      32.758  18.707   7.225  1.00  0.00     0.276 HD
ATOM     45  H32 UNL     1      33.063  19.912   8.105  1.00  0.00     0.276 HD
ATOM     46  H31 UNL     1      33.359  20.097   6.431  1.00  0.00     0.276 HD
ENDBRANCH   5  43
TORSDOF 16
ENDMDL
MODEL 2
REMARK VINA RESULT: -6.077665997      5.085      7.906
REMARK  16 active torsions:
REMARK  status: ('A' for Active; 'I' for Inactive)
REMARK    1  A    between atoms: C2_5  and  N3_6 
REMARK    2  A    between atoms: C3_10  and  O1_11 
REMARK    3  A    between atoms: C4_13  and  N4_14 
REMARK    4  A    between atoms: N4_14  and  N5_15 
REMARK    5  A    between atoms: N4_14  and  C5_18 
REMARK    6  A    between atoms: C7_20  and  N6_21 
REMARK    7  A    between atoms: C7_20  and  O2_25 
REMARK    8  A    between atoms: N7_28  and  N8_29 
REMARK    9  A    between atoms: N8_29  and  C8_31 
REMARK   10  A    between atoms: C8_31  and  C9_32 
REMARK   11  A    between atoms: C10_33  and  O4_34 
REMARK   12  A    between atoms: C11_37  and  C12_38 
REMARK   13  A    between atoms: C12_38  and  O6_39 
REMARK   14  A    between atoms: C12_38  and  C13_41 
REMARK   15  A    between atoms: C13_41  and  O7_42 
REMARK   16  A    between atoms: C14_44  and  O8_45 
ROOT
HETATM    1  N1  UNL     1      32.337   9.159   7.332  1.00  0.00    -0.062 NA
HETATM    2  C1  UNL     1      33.546   9.279   8.140  1.00  0.00     0.208 C 
HETATM    3  N2  UNL     1      34.622   8.933   7.575  1.00  0.00    -0.333 N 
ATOM      4  H2  UNL     1      34.640   8.604   6.610  1.00  0.00     0.164 HD
HETATM    5  C2  UNL     1      35.856   9.033   8.391  1.00  0.00     0.316 C 
HETATM    6  C3  UNL     1      35.698  10.282   9.173  1.00  0.00     0.213 C 
HETATM    7  C4  UNL     1      34.619  10.204  10.213  1.00  0.00     0.261 C 
HETATM    8  N7  UNL     1      33.419   9.751   9.528  1.00  0.00    -0.240 N 
ENDROOT
BRANCH   8   9
HETATM    9  N8  UNL     1      32.129   9.655   9.935  1.00  0.00    -0.325 N 
ATOM     10  H8  UNL     1      31.493   9.101   9.362  1.00  0.00     0.180 HD
BRANCH   9  11
HETATM   11  C8  UNL     1      31.599  10.271  11.103  1.00  0.00     0.186 C 
BRANCH  11  12
HETATM   12  C9  UNL     1      31.031  11.597  10.601  1.00  0.00     0.055 A 
HETATM   13  C10 UNL     1      30.456  11.880   9.387  1.00  0.00     0.194 A 
HETATM   14  O5  UNL     1      30.195  13.210   9.339  1.00  0.00    -0.286 OA
HETATM   15  C11 UNL     1      30.576  13.733  10.451  1.00  0.00     0.120 A 
HETATM   16  C14 UNL     1      31.114  12.777  11.294  1.00  0.00     0.111 A 
BRANCH  13  17
HETATM   17  O4  UNL     1      30.141  11.045   8.344  1.00  0.00    -0.340 OA
ATOM     18  H4  UNL     1      30.200  11.189   7.407  1.00  0.00     0.220 HD
ENDBRANCH  13  17
BRANCH  15  19
HETATM   19  C12 UNL     1      30.465  15.167  10.831  1.00  0.00     0.201 C 
BRANCH  19  20
HETATM   20  O6  UNL     1      30.140  15.416  12.095  1.00  0.00    -0.387 OA
ATOM     21  H6  UNL     1      30.764  15.130  12.753  1.00  0.00     0.210 HD
ENDBRANCH  19  20
BRANCH  19  22
HETATM   22  C13 UNL     1      31.643  15.952  10.296  1.00  0.00     0.202 C 
BRANCH  22  23
HETATM   23  O7  UNL     1      31.642  15.926   8.920  1.00  0.00    -0.398 OA
ATOM     24  H7  UNL     1      31.207  16.700   8.580  1.00  0.00     0.209 HD
ENDBRANCH  22  23
ENDBRANCH  19  22
ENDBRANCH  15  19
BRANCH  16  25
HETATM   25  O8  UNL     1      31.643  12.979  12.569  1.00  0.00    -0.357 OA
ATOM     26  H8  UNL     1      31.320  13.565  13.244  1.00  0.00     0.217 HD
ENDBRANCH  16  25
ENDBRANCH  11  12
ENDBRANCH   9  11
ENDBRANCH   8   9
BRANCH   7  27
HETATM   27  N4  UNL     1      34.929   9.555  11.378  1.00  0.00    -0.277 N 
BRANCH  27  28
HETATM   28  N5  UNL     1      34.528   8.223  11.553  1.00  0.00    -0.343 N 
ATOM     29  H52 UNL     1      34.169   7.800  10.697  1.00  0.00     0.176 HD
ATOM     30  H51 UNL     1      34.542   7.813  12.487  1.00  0.00     0.176 HD
ENDBRANCH  27  28
BRANCH  27  31
HETATM   31  C5  UNL     1      35.723  10.026  12.425  1.00  0.00     0.253 C 
HETATM   32  C6  UNL     1      35.171  10.311  13.789  1.00  0.00     0.156 C 
HETATM   33  C7  UNL     1      35.896  11.672  13.700  1.00  0.00     0.339 C 
HETATM   34  O3  UNL     1      36.072  11.389  12.361  1.00  0.00    -0.306 OA
BRANCH  33  35
HETATM   35  N6  UNL     1      37.000  11.718  14.582  1.00  0.00    -0.021 N 
ATOM     36  H63 UNL     1      37.878  11.538  14.095  1.00  0.00     0.280 HD
ATOM     37  H62 UNL     1      37.190  12.668  14.898  1.00  0.00     0.280 HD
ATOM     38  H61 UNL     1      36.868  11.080  15.367  1.00  0.00     0.280 HD
ENDBRANCH  33  35
BRANCH  33  39
HETATM   39  O2  UNL     1      35.019  12.729  13.965  1.00  0.00    -0.344 OA
ATOM     40  H2  UNL     1      35.473  13.564  13.944  1.00  0.00     0.215 HD
ENDBRANCH  33  39
ENDBRANCH  27  31
ENDBRANCH   7  27
BRANCH   6  41
HETATM   41  O1  UNL     1      36.816  11.008   9.453  1.00  0.00    -0.388 OA
ATOM     42  H1  UNL     1      36.706  11.854   9.872  1.00  0.00     0.210 HD
ENDBRANCH   6  41
BRANCH   5  43
HETATM   43  N3  UNL     1      35.964   7.782   9.054  1.00  0.00    -0.056 N 
ATOM     44  H33 UNL     1      35.690   7.810  10.036  1.00  0.00     0.276 HD
ATOM     45  H32 UNL     1      35.269   7.097   8.757  1.00  0.00     0.276 HD
ATOM     46  H31 UNL     1      36.928   7.484   8.903  1.00  0.00     0.276 HD
ENDBRANCH   5  43
TORSDOF 16
ENDMDL
MODEL 3
REMARK VINA RESULT: -6.012921328      5.091      7.968
REMARK  16 active torsions:
REMARK  status: ('A' for Active; 'I' for Inactive)
REMARK    1  A    between atoms: C2_5  and  N3_6 
REMARK    2  A    between atoms: C3_10  and  O1_11 
REMARK    3  A    between atoms: C4_13  and  N4_14 
REMARK    4  A    between atoms: N4_14  and  N5_15 
REMARK    5  A    between atoms: N4_14  and  C5_18 
REMARK    6  A    between atoms: C7_20  and  N6_21 
REMARK    7  A    between atoms: C7_20  and  O2_25 
REMARK    8  A    between atoms: N7_28  and  N8_29 
REMARK    9  A    between atoms: N8_29  and  C8_31 
REMARK   10  A    between atoms: C8_31  and  C9_32 
REMARK   11  A    between atoms: C10_33  and  O4_34 
REMARK   12  A    between atoms: C11_37  and  C12_38 
REMARK   13  A    between atoms: C12_38  and  O6_39 
REMARK   14  A    between atoms: C12_38  and  C13_41 
REMARK   15  A    between atoms: C13_41  and  O7_42 
REMARK   16  A    between atoms: C14_44  and  O8_45 
ROOT
HETATM    1  N1  UNL     1      34.367  12.668  12.888  1.00  0.00    -0.062 NA
HETATM    2  C1  UNL     1      34.756  11.264  12.961  1.00  0.00     0.208 C 
HETATM    3  N2  UNL     1      35.822  11.022  13.596  1.00  0.00    -0.333 N 
ATOM      4  H2  UNL     1      36.364  11.763  14.038  1.00  0.00     0.164 HD
HETATM    5  C2  UNL     1      36.239   9.600  13.662  1.00  0.00     0.316 C 
HETATM    6  C3  UNL     1      34.980   8.839  13.840  1.00  0.00     0.213 C 
HETATM    7  C4  UNL     1      34.090   8.866  12.633  1.00  0.00     0.261 C 
HETATM    8  N7  UNL     1      33.918  10.265  12.279  1.00  0.00    -0.240 N 
ENDROOT
BRANCH   8   9
HETATM    9  N8  UNL     1      33.102  10.877  11.385  1.00  0.00    -0.325 N 
ATOM     10  H8  UNL     1      33.454  11.713  10.920  1.00  0.00     0.180 HD
BRANCH   9  11
HETATM   11  C8  UNL     1      31.792  10.437  11.049  1.00  0.00     0.186 C 
BRANCH  11  12
HETATM   12  C9  UNL     1      31.078  11.707  10.589  1.00  0.00     0.055 A 
HETATM   13  C10 UNL     1      30.424  11.942   9.405  1.00  0.00     0.194 A 
HETATM   14  O5  UNL     1      30.035  13.242   9.385  1.00  0.00    -0.286 OA
HETATM   15  C11 UNL     1      30.413  13.790  10.486  1.00  0.00     0.120 A 
HETATM   16  C14 UNL     1      31.078  12.884  11.293  1.00  0.00     0.111 A 
BRANCH  13  17
HETATM   17  O4  UNL     1      30.144  11.090   8.367  1.00  0.00    -0.340 OA
ATOM     18  H4  UNL     1      29.307  10.821   8.005  1.00  0.00     0.220 HD
ENDBRANCH  13  17
BRANCH  15  19
HETATM   19  C12 UNL     1      30.182  15.203  10.888  1.00  0.00     0.201 C 
BRANCH  19  20
HETATM   20  O6  UNL     1      29.970  15.418  12.182  1.00  0.00    -0.387 OA
ATOM     21  H6  UNL     1      29.947  16.327  12.459  1.00  0.00     0.210 HD
ENDBRANCH  19  20
BRANCH  19  22
HETATM   22  C13 UNL     1      31.200  16.115  10.236  1.00  0.00     0.202 C 
BRANCH  22  23
HETATM   23  O7  UNL     1      31.551  15.622   9.001  1.00  0.00    -0.398 OA
ATOM     24  H7  UNL     1      32.367  16.016   8.713  1.00  0.00     0.209 HD
ENDBRANCH  22  23
ENDBRANCH  19  22
ENDBRANCH  15  19
BRANCH  16  25
HETATM   25  O8  UNL     1      31.642  13.125  12.546  1.00  0.00    -0.357 OA
ATOM     26  H8  UNL     1      31.284  13.655  13.249  1.00  0.00     0.217 HD
ENDBRANCH  16  25
ENDBRANCH  11  12
ENDBRANCH   9  11
ENDBRANCH   8   9
BRANCH   7  27
HETATM   27  N4  UNL     1      34.415   8.021  11.606  1.00  0.00    -0.277 N 
BRANCH  27  28
HETATM   28  N5  UNL     1      34.607   6.657  11.869  1.00  0.00    -0.343 N 
ATOM     29  H52 UNL     1      33.920   6.062  11.406  1.00  0.00     0.176 HD
ATOM     30  H51 UNL     1      35.327   6.371  12.534  1.00  0.00     0.176 HD
ENDBRANCH  27  28
BRANCH  27  31
HETATM   31  C5  UNL     1      34.477   8.327  10.245  1.00  0.00     0.253 C 
HETATM   32  C6  UNL     1      34.182   7.316   9.179  1.00  0.00     0.156 C 
HETATM   33  C7  UNL     1      35.502   7.765   8.513  1.00  0.00     0.339 C 
HETATM   34  O3  UNL     1      35.771   8.419   9.698  1.00  0.00    -0.306 OA
BRANCH  33  35
HETATM   35  N6  UNL     1      35.250   8.491   7.326  1.00  0.00    -0.021 N 
ATOM     36  H63 UNL     1      34.258   8.492   7.088  1.00  0.00     0.280 HD
ATOM     37  H62 UNL     1      35.376   9.493   7.464  1.00  0.00     0.280 HD
ATOM     38  H61 UNL     1      35.821   8.143   6.556  1.00  0.00     0.280 HD
ENDBRANCH  33  35
BRANCH  33  39
HETATM   39  O2  UNL     1      36.330   6.671   8.246  1.00  0.00    -0.344 OA
ATOM     40  H2  UNL     1      37.105   6.937   7.764  1.00  0.00     0.215 HD
ENDBRANCH  33  39
ENDBRANCH  27  31
ENDBRANCH   7  27
BRANCH   6  41
HETATM   41  O1  UNL     1      35.019   7.703  14.592  1.00  0.00    -0.388 OA
ATOM     42  H1  UNL     1      34.448   6.985  14.345  1.00  0.00     0.210 HD
ENDBRANCH   6  41
BRANCH   5  43
HETATM   43  N3  UNL     1      37.043   9.396  12.510  1.00  0.00    -0.056 N 
ATOM     44  H33 UNL     1      36.573   8.882  11.764  1.00  0.00     0.276 HD
ATOM     45  H32 UNL     1      37.219  10.246  11.974  1.00  0.00     0.276 HD
ATOM     46  H31 UNL     1      37.890   8.941  12.853  1.00  0.00     0.276 HD
ENDBRANCH   5  43
TORSDOF 16
ENDMDL
MODEL 4
REMARK VINA RESULT: -6.002272534      4.730      7.965
REMARK  16 active torsions:
REMARK  status: ('A' for Active; 'I' for Inactive)
REMARK    1  A    between atoms: C2_5  and  N3_6 
REMARK    2  A    between atoms: C3_10  and  O1_11 
REMARK    3  A    between atoms: C4_13  and  N4_14 
REMARK    4  A    between atoms: N4_14  and  N5_15 
REMARK    5  A    between atoms: N4_14  and  C5_18 
REMARK    6  A    between atoms: C7_20  and  N6_21 
REMARK    7  A    between atoms: C7_20  and  O2_25 
REMARK    8  A    between atoms: N7_28  and  N8_29 
REMARK    9  A    between atoms: N8_29  and  C8_31 
REMARK   10  A    between atoms: C8_31  and  C9_32 
REMARK   11  A    between atoms: C10_33  and  O4_34 
REMARK   12  A    between atoms: C11_37  and  C12_38 
REMARK   13  A    between atoms: C12_38  and  O6_39 
REMARK   14  A    between atoms: C12_38  and  C13_41 
REMARK   15  A    between atoms: C13_41  and  O7_42 
REMARK   16  A    between atoms: C14_44  and  O8_45 
ROOT
HETATM    1  N1  UNL     1      31.616   9.339   7.537  1.00  0.00    -0.062 NA
HETATM    2  C1  UNL     1      32.881   9.348   8.263  1.00  0.00     0.208 C 
HETATM    3  N2  UNL     1      33.874   8.871   7.643  1.00  0.00    -0.333 N 
ATOM      4  H2  UNL     1      33.793   8.516   6.691  1.00  0.00     0.164 HD
HETATM    5  C2  UNL     1      35.164   8.857   8.376  1.00  0.00     0.316 C 
HETATM    6  C3  UNL     1      35.192  10.137   9.123  1.00  0.00     0.213 C 
HETATM    7  C4  UNL     1      34.183  10.205  10.231  1.00  0.00     0.261 C 
HETATM    8  N7  UNL     1      32.899   9.868   9.639  1.00  0.00    -0.240 N 
ENDROOT
BRANCH   8   9
HETATM    9  N8  UNL     1      31.636   9.925  10.129  1.00  0.00    -0.325 N 
ATOM     10  H8  UNL     1      30.946   9.288   9.732  1.00  0.00     0.180 HD
BRANCH   9  11
HETATM   11  C8  UNL     1      31.204  10.808  11.158  1.00  0.00     0.186 C 
BRANCH  11  12
HETATM   12  C9  UNL     1      31.321  12.196  10.531  1.00  0.00     0.055 A 
HETATM   13  C10 UNL     1      30.832  12.638   9.326  1.00  0.00     0.194 A 
HETATM   14  O5  UNL     1      31.265  13.909   9.132  1.00  0.00    -0.286 OA
HETATM   15  C11 UNL     1      31.975  14.250  10.149  1.00  0.00     0.120 A 
HETATM   16  C14 UNL     1      32.056  13.221  11.070  1.00  0.00     0.111 A 
BRANCH  13  17
HETATM   17  O4  UNL     1      30.030  12.002   8.413  1.00  0.00    -0.340 OA
ATOM     18  H4  UNL     1      30.047  12.026   7.463  1.00  0.00     0.220 HD
ENDBRANCH  13  17
BRANCH  15  19
HETATM   19  C12 UNL     1      32.636  15.566  10.357  1.00  0.00     0.201 C 
BRANCH  19  20
HETATM   20  O6  UNL     1      33.726  15.563  11.117  1.00  0.00    -0.387 OA
ATOM     21  H6  UNL     1      33.688  16.087  11.908  1.00  0.00     0.210 HD
ENDBRANCH  19  20
BRANCH  19  22
HETATM   22  C13 UNL     1      32.760  16.313   9.046  1.00  0.00     0.202 C 
BRANCH  22  23
HETATM   23  O7  UNL     1      31.511  16.592   8.542  1.00  0.00    -0.398 OA
ATOM     24  H7  UNL     1      31.584  17.175   7.796  1.00  0.00     0.209 HD
ENDBRANCH  22  23
ENDBRANCH  19  22
ENDBRANCH  15  19
BRANCH  16  25
HETATM   25  O8  UNL     1      32.752  13.223  12.279  1.00  0.00    -0.357 OA
ATOM     26  H8  UNL     1      33.669  13.431  12.419  1.00  0.00     0.217 HD
ENDBRANCH  16  25
ENDBRANCH  11  12
ENDBRANCH   9  11
ENDBRANCH   8   9
BRANCH   7  27
HETATM   27  N4  UNL     1      34.498   9.557  11.396  1.00  0.00    -0.277 N 
BRANCH  27  28
HETATM   28  N5  UNL     1      33.952   8.291  11.650  1.00  0.00    -0.343 N 
ATOM     29  H52 UNL     1      33.290   7.993  10.934  1.00  0.00     0.176 HD
ATOM     30  H51 UNL     1      34.175   7.815  12.525  1.00  0.00     0.176 HD
ENDBRANCH  27  28
BRANCH  27  31
HETATM   31  C5  UNL     1      35.420   9.958  12.365  1.00  0.00     0.253 C 
HETATM   32  C6  UNL     1      35.025  10.240  13.783  1.00  0.00     0.156 C 
HETATM   33  C7  UNL     1      35.816  11.560  13.647  1.00  0.00     0.339 C 
HETATM   34  O3  UNL     1      35.839  11.300  12.292  1.00  0.00    -0.306 OA
BRANCH  33  35
HETATM   35  N6  UNL     1      37.004  11.521  14.412  1.00  0.00    -0.021 N 
ATOM     36  H63 UNL     1      36.808  11.371  15.402  1.00  0.00     0.280 HD
ATOM     37  H62 UNL     1      37.541  10.674  14.230  1.00  0.00     0.280 HD
ATOM     38  H61 UNL     1      37.563  12.361  14.263  1.00  0.00     0.280 HD
ENDBRANCH  33  35
BRANCH  33  39
HETATM   39  O2  UNL     1      35.033  12.657  14.019  1.00  0.00    -0.344 OA
ATOM     40  H2  UNL     1      35.574  13.417  14.203  1.00  0.00     0.215 HD
ENDBRANCH  33  39
ENDBRANCH  27  31
ENDBRANCH   7  27
BRANCH   6  41
HETATM   41  O1  UNL     1      36.399  10.743   9.307  1.00  0.00    -0.388 OA
ATOM     42  H1  UNL     1      36.552  11.191  10.131  1.00  0.00     0.210 HD
ENDBRANCH   6  41
BRANCH   5  43
HETATM   43  N3  UNL     1      35.180   7.620   9.073  1.00  0.00    -0.056 N 
ATOM     44  H33 UNL     1      34.262   7.319   9.402  1.00  0.00     0.276 HD
ATOM     45  H32 UNL     1      35.360   6.813   8.476  1.00  0.00     0.276 HD
ATOM     46  H31 UNL     1      35.865   7.744   9.818  1.00  0.00     0.276 HD
ENDBRANCH   5  43
TORSDOF 16
ENDMDL
MODEL 5
REMARK VINA RESULT: -5.886096433      5.275      8.570
REMARK  16 active torsions:
REMARK  status: ('A' for Active; 'I' for Inactive)
REMARK    1  A    between atoms: C2_5  and  N3_6 
REMARK    2  A    between atoms: C3_10  and  O1_11 
REMARK    3  A    between atoms: C4_13  and  N4_14 
REMARK    4  A    between atoms: N4_14  and  N5_15 
REMARK    5  A    between atoms: N4_14  and  C5_18 
REMARK    6  A    between atoms: C7_20  and  N6_21 
REMARK    7  A    between atoms: C7_20  and  O2_25 
REMARK    8  A    between atoms: N7_28  and  N8_29 
REMARK    9  A    between atoms: N8_29  and  C8_31 
REMARK   10  A    between atoms: C8_31  and  C9_32 
REMARK   11  A    between atoms: C10_33  and  O4_34 
REMARK   12  A    between atoms: C11_37  and  C12_38 
REMARK   13  A    between atoms: C12_38  and  O6_39 
REMARK   14  A    between atoms: C12_38  and  C13_41 
REMARK   15  A    between atoms: C13_41  and  O7_42 
REMARK   16  A    between atoms: C14_44  and  O8_45 
ROOT
HETATM    1  N1  UNL     1      30.892  10.467   9.695  1.00  0.00    -0.062 NA
HETATM    2  C1  UNL     1      32.149   9.730   9.609  1.00  0.00     0.208 C 
HETATM    3  N2  UNL     1      32.227   8.886   8.671  1.00  0.00    -0.333 N 
ATOM      4  H2  UNL     1      31.463   8.743   8.012  1.00  0.00     0.164 HD
HETATM    5  C2  UNL     1      33.492   8.116   8.582  1.00  0.00     0.316 C 
HETATM    6  C3  UNL     1      34.558   9.094   8.907  1.00  0.00     0.213 C 
HETATM    7  C4  UNL     1      34.544   9.541  10.338  1.00  0.00     0.261 C 
HETATM    8  N7  UNL     1      33.190   9.994  10.614  1.00  0.00    -0.240 N 
ENDROOT
BRANCH   8   9
HETATM    9  N8  UNL     1      32.653  10.638  11.680  1.00  0.00    -0.325 N 
ATOM     10  H8  UNL     1      31.721  10.355  11.983  1.00  0.00     0.180 HD
BRANCH   9  11
HETATM   11  C8  UNL     1      33.294  11.681  12.405  1.00  0.00     0.186 C 
BRANCH  11  12
HETATM   12  C9  UNL     1      32.697  12.962  11.824  1.00  0.00     0.055 A 
HETATM   13  C10 UNL     1      31.376  13.284  11.637  1.00  0.00     0.194 A 
HETATM   14  O5  UNL     1      31.316  14.478  10.994  1.00  0.00    -0.286 OA
HETATM   15  C11 UNL     1      32.520  14.885  10.794  1.00  0.00     0.120 A 
HETATM   16  C14 UNL     1      33.443  13.980  11.289  1.00  0.00     0.111 A 
BRANCH  13  17
HETATM   17  O4  UNL     1      30.241  12.606  12.005  1.00  0.00    -0.340 OA
ATOM     18  H4  UNL     1      29.597  12.156  11.470  1.00  0.00     0.220 HD
ENDBRANCH  13  17
BRANCH  15  19
HETATM   19  C12 UNL     1      32.918  16.156  10.132  1.00  0.00     0.201 C 
BRANCH  19  20
HETATM   20  O6  UNL     1      33.927  16.817  10.689  1.00  0.00    -0.387 OA
ATOM     21  H6  UNL     1      33.791  17.118  11.580  1.00  0.00     0.210 HD
ENDBRANCH  19  20
BRANCH  19  22
HETATM   22  C13 UNL     1      33.014  15.968   8.633  1.00  0.00     0.202 C 
BRANCH  22  23
HETATM   23  O7  UNL     1      32.107  15.020   8.218  1.00  0.00    -0.398 OA
ATOM     24  H7  UNL     1      31.295  15.439   7.957  1.00  0.00     0.209 HD
ENDBRANCH  22  23
ENDBRANCH  19  22
ENDBRANCH  15  19
BRANCH  16  25
HETATM   25  O8  UNL     1      34.833  14.079  11.236  1.00  0.00    -0.357 OA
ATOM     26  H8  UNL     1      35.443  14.062  11.964  1.00  0.00     0.217 HD
ENDBRANCH  16  25
ENDBRANCH  11  12
ENDBRANCH   9  11
ENDBRANCH   8   9
BRANCH   7  27
HETATM   27  N4  UNL     1      35.093   8.689  11.259  1.00  0.00    -0.277 N 
BRANCH  27  28
HETATM   28  N5  UNL     1      36.404   8.227  11.076  1.00  0.00    -0.343 N 
ATOM     29  H52 UNL     1      36.887   8.043  11.955  1.00  0.00     0.176 HD
ATOM     30  H51 UNL     1      36.795   8.187  10.134  1.00  0.00     0.176 HD
ENDBRANCH  27  28
BRANCH  27  31
HETATM   31  C5  UNL     1      34.536   8.282  12.473  1.00  0.00     0.253 C 
HETATM   32  C6  UNL     1      35.041   8.776  13.795  1.00  0.00     0.156 C 
HETATM   33  C7  UNL     1      35.066   7.296  14.238  1.00  0.00     0.339 C 
HETATM   34  O3  UNL     1      34.889   6.988  12.905  1.00  0.00    -0.306 OA
BRANCH  33  35
HETATM   35  N6  UNL     1      34.049   7.032  15.184  1.00  0.00    -0.021 N 
ATOM     36  H63 UNL     1      33.238   6.592  14.750  1.00  0.00     0.280 HD
ATOM     37  H62 UNL     1      34.313   6.279  15.818  1.00  0.00     0.280 HD
ATOM     38  H61 UNL     1      33.792   7.878  15.691  1.00  0.00     0.280 HD
ENDBRANCH  33  35
BRANCH  33  39
HETATM   39  O2  UNL     1      36.316   6.947  14.759  1.00  0.00    -0.344 OA
ATOM     40  H2  UNL     1      36.339   6.030  15.009  1.00  0.00     0.215 HD
ENDBRANCH  33  39
ENDBRANCH  27  31
ENDBRANCH   7  27
BRANCH   6  41
HETATM   41  O1  UNL     1      35.762   8.958   8.283  1.00  0.00    -0.388 OA
ATOM     42  H1  UNL     1      36.234   9.748   8.047  1.00  0.00     0.210 HD
ENDBRANCH   6  41
BRANCH   5  43
HETATM   43  N3  UNL     1      33.291   6.977   9.405  1.00  0.00    -0.056 N 
ATOM     44  H33 UNL     1      33.839   6.986  10.265  1.00  0.00     0.276 HD
ATOM     45  H32 UNL     1      32.374   6.947   9.851  1.00  0.00     0.276 HD
ATOM     46  H31 UNL     1      33.483   6.176   8.802  1.00  0.00     0.276 HD
ENDBRANCH   5  43
TORSDOF 16
ENDMDL
