MODEL 1
REMARK VINA RESULT: -7.461049861      0.000      0.000
REMARK  8 active torsions:
REMARK  status: ('A' for Active; 'I' for Inactive)
REMARK    1  A    between atoms: C2_2  and  N1_3 
REMARK    2  A    between atoms: N2_6  and  C5_7 
REMARK    3  A    between atoms: C6_10  and  N4_11 
REMARK    4  A    between atoms: N4_11  and  N5_13 
REMARK    5  A    between atoms: N5_13  and  C7_15 
REMARK    6  A    between atoms: C7_15  and  C8_16 
REMARK    7  A    between atoms: N6_17  and  O1_19 
REMARK    8  A    between atoms: C12_28  and  O3_29 
ROOT
HETATM    1  C5  UNL     1      62.417  56.698  17.076  1.00  0.00     0.149 A 
HETATM    2  N3  UNL     1      63.010  55.647  16.481  1.00  0.00    -0.173 N 
ATOM      3  H3  UNL     1      62.932  55.548  15.469  1.00  0.00     0.186 HD
HETATM    4  C6  UNL     1      63.702  54.722  17.169  1.00  0.00     0.701 A 
HETATM    5  N7  UNL     1      63.804  54.851  18.518  1.00  0.00    -0.153 N 
ATOM      6  H7  UNL     1      64.328  54.148  19.038  1.00  0.00     0.187 HD
HETATM    7  C9  UNL     1      63.244  55.868  19.195  1.00  0.00     0.284 A 
HETATM    8  O2  UNL     1      63.351  55.974  20.458  1.00  0.00    -0.266 OA
HETATM    9  C10 UNL     1      62.540  56.800  18.448  1.00  0.00     0.157 A 
HETATM   10  C11 UNL     1      61.919  57.913  19.137  1.00  0.00     0.109 C 
HETATM   11  N8  UNL     1      61.433  58.807  19.706  1.00  0.00    -0.191 NA
ENDROOT
BRANCH   1  12
HETATM   12  N2  UNL     1      61.683  57.688  16.391  1.00  0.00    -0.312 N 
HETATM   13  C4  UNL     1      62.088  58.988  15.946  1.00  0.00     0.159 A 
HETATM   14  C3  UNL     1      60.868  59.630  15.366  1.00  0.00     0.298 A 
HETATM   15  N1  UNL     1      59.829  58.648  15.341  1.00  0.00     0.138 N 
HETATM   16  C12 UNL     1      60.279  57.476  16.019  1.00  0.00     0.468 A 
BRANCH  15  17
HETATM   17  C2  UNL     1      58.531  59.107  15.710  1.00  0.00     0.274 C 
HETATM   18  C1  UNL     1      58.532  60.057  16.878  1.00  0.00     0.037 C 
ENDBRANCH  15  17
BRANCH  16  19
HETATM   19  O3  UNL     1      60.314  56.425  15.073  1.00  0.00    -0.352 OA
ATOM     20  H3  UNL     1      61.194  56.390  14.718  1.00  0.00     0.214 HD
ENDBRANCH  16  19
ENDBRANCH   1  12
BRANCH   4  21
HETATM   21  N4  UNL     1      64.275  53.709  16.607  1.00  0.00    -0.136 N 
ATOM     22  H4  UNL     1      63.877  52.779  16.730  1.00  0.00     0.205 HD
BRANCH  21  23
HETATM   23  N5  UNL     1      65.426  53.864  15.838  1.00  0.00    -0.317 N 
ATOM     24  H5  UNL     1      65.455  53.409  14.925  1.00  0.00     0.181 HD
BRANCH  23  25
HETATM   25  C7  UNL     1      66.575  54.625  16.248  1.00  0.00     0.186 C 
BRANCH  25  26
HETATM   26  C8  UNL     1      67.575  54.741  15.138  1.00  0.00     0.107 C 
HETATM   27  N6  UNL     1      67.336  55.394  14.054  1.00  0.00    -0.283 N 
ATOM     28  H6  UNL     1      68.044  55.449  13.322  1.00  0.00     0.192 HD
BRANCH  27  29
HETATM   29  O1  UNL     1      66.130  56.012  13.892  1.00  0.00    -0.291 OA
ATOM     30  H1  UNL     1      65.648  55.893  13.082  1.00  0.00     0.244 HD
ENDBRANCH  27  29
ENDBRANCH  25  26
ENDBRANCH  23  25
ENDBRANCH  21  23
ENDBRANCH   4  21
TORSDOF 8
ENDMDL
MODEL 2
REMARK VINA RESULT: -7.441729970      2.796      3.913
REMARK  8 active torsions:
REMARK  status: ('A' for Active; 'I' for Inactive)
REMARK    1  A    between atoms: C2_2  and  N1_3 
REMARK    2  A    between atoms: N2_6  and  C5_7 
REMARK    3  A    between atoms: C6_10  and  N4_11 
REMARK    4  A    between atoms: N4_11  and  N5_13 
REMARK    5  A    between atoms: N5_13  and  C7_15 
REMARK    6  A    between atoms: C7_15  and  C8_16 
REMARK    7  A    between atoms: N6_17  and  O1_19 
REMARK    8  A    between atoms: C12_28  and  O3_29 
ROOT
HETATM    1  C5  UNL     1      61.568  56.283  17.524  1.00  0.00     0.149 A 
HETATM    2  N3  UNL     1      61.637  54.939  17.530  1.00  0.00    -0.173 N 
ATOM      3  H3  UNL     1      60.883  54.407  17.096  1.00  0.00     0.186 HD
HETATM    4  C6  UNL     1      62.662  54.270  18.086  1.00  0.00     0.701 A 
HETATM    5  N7  UNL     1      63.667  54.979  18.667  1.00  0.00    -0.153 N 
ATOM      6  H7  UNL     1      64.442  54.469  19.089  1.00  0.00     0.187 HD
HETATM    7  C9  UNL     1      63.680  56.322  18.708  1.00  0.00     0.284 A 
HETATM    8  O2  UNL     1      64.629  56.968  19.255  1.00  0.00    -0.266 OA
HETATM    9  C10 UNL     1      62.604  56.972  18.122  1.00  0.00     0.157 A 
HETATM   10  C11 UNL     1      62.577  58.421  18.143  1.00  0.00     0.109 C 
HETATM   11  N8  UNL     1      62.575  59.586  18.161  1.00  0.00    -0.191 NA
ENDROOT
BRANCH   1  12
HETATM   12  N2  UNL     1      60.510  57.020  16.952  1.00  0.00    -0.312 N 
HETATM   13  C4  UNL     1      60.376  57.560  15.632  1.00  0.00     0.159 A 
HETATM   14  C3  UNL     1      59.092  58.327  15.622  1.00  0.00     0.298 A 
HETATM   15  N1  UNL     1      58.436  58.092  16.871  1.00  0.00     0.138 N 
HETATM   16  C12 UNL     1      59.308  57.354  17.724  1.00  0.00     0.468 A 
BRANCH  15  17
HETATM   17  C2  UNL     1      57.813  59.228  17.468  1.00  0.00     0.274 C 
HETATM   18  C1  UNL     1      58.756  60.090  18.262  1.00  0.00     0.037 C 
ENDBRANCH  15  17
BRANCH  16  19
HETATM   19  O3  UNL     1      58.693  56.107  17.985  1.00  0.00    -0.352 OA
ATOM     20  H3  UNL     1      59.332  55.560  18.425  1.00  0.00     0.214 HD
ENDBRANCH  16  19
ENDBRANCH   1  12
BRANCH   4  21
HETATM   21  N4  UNL     1      62.738  52.981  18.097  1.00  0.00    -0.136 N 
ATOM     22  H4  UNL     1      63.435  52.517  17.516  1.00  0.00     0.205 HD
BRANCH  21  23
HETATM   23  N5  UNL     1      61.887  52.212  18.888  1.00  0.00    -0.317 N 
ATOM     24  H5  UNL     1      61.782  52.471  19.869  1.00  0.00     0.181 HD
BRANCH  23  25
HETATM   25  C7  UNL     1      61.148  51.076  18.410  1.00  0.00     0.186 C 
BRANCH  25  26
HETATM   26  C8  UNL     1      60.358  51.418  17.182  1.00  0.00     0.107 C 
HETATM   27  N6  UNL     1      59.513  52.388  17.150  1.00  0.00    -0.283 N 
ATOM     28  H6  UNL     1      58.994  52.589  16.295  1.00  0.00     0.192 HD
BRANCH  27  29
HETATM   29  O1  UNL     1      59.315  53.148  18.267  1.00  0.00    -0.291 OA
ATOM     30  H1  UNL     1      58.430  53.344  18.549  1.00  0.00     0.244 HD
ENDBRANCH  27  29
ENDBRANCH  25  26
ENDBRANCH  23  25
ENDBRANCH  21  23
ENDBRANCH   4  21
TORSDOF 8
ENDMDL
MODEL 3
REMARK VINA RESULT: -7.293504466      2.440      2.673
REMARK  8 active torsions:
REMARK  status: ('A' for Active; 'I' for Inactive)
REMARK    1  A    between atoms: C2_2  and  N1_3 
REMARK    2  A    between atoms: N2_6  and  C5_7 
REMARK    3  A    between atoms: C6_10  and  N4_11 
REMARK    4  A    between atoms: N4_11  and  N5_13 
REMARK    5  A    between atoms: N5_13  and  C7_15 
REMARK    6  A    between atoms: C7_15  and  C8_16 
REMARK    7  A    between atoms: N6_17  and  O1_19 
REMARK    8  A    between atoms: C12_28  and  O3_29 
ROOT
HETATM    1  C5  UNL     1      61.425  54.728  17.187  1.00  0.00     0.149 A 
HETATM    2  N3  UNL     1      62.670  54.438  16.768  1.00  0.00    -0.173 N 
ATOM      3  H3  UNL     1      63.125  55.071  16.110  1.00  0.00     0.186 HD
HETATM    4  C6  UNL     1      63.338  53.348  17.183  1.00  0.00     0.701 A 
HETATM    5  N7  UNL     1      62.732  52.504  18.059  1.00  0.00    -0.153 N 
ATOM      6  H7  UNL     1      63.240  51.677  18.372  1.00  0.00     0.187 HD
HETATM    7  C9  UNL     1      61.491  52.714  18.530  1.00  0.00     0.284 A 
HETATM    8  O2  UNL     1      60.939  51.913  19.350  1.00  0.00    -0.266 OA
HETATM    9  C10 UNL     1      60.837  53.850  18.076  1.00  0.00     0.157 A 
HETATM   10  C11 UNL     1      59.497  54.116  18.558  1.00  0.00     0.109 C 
HETATM   11  N8  UNL     1      58.422  54.319  18.962  1.00  0.00    -0.191 NA
ENDROOT
BRANCH   1  12
HETATM   12  N2  UNL     1      60.692  55.860  16.775  1.00  0.00    -0.312 N 
HETATM   13  C4  UNL     1      60.830  57.233  17.158  1.00  0.00     0.159 A 
HETATM   14  C3  UNL     1      59.720  57.970  16.478  1.00  0.00     0.298 A 
HETATM   15  N1  UNL     1      59.062  57.053  15.600  1.00  0.00     0.138 N 
HETATM   16  C12 UNL     1      59.592  55.746  15.810  1.00  0.00     0.468 A 
BRANCH  15  17
HETATM   17  C2  UNL     1      57.639  57.139  15.566  1.00  0.00     0.274 C 
HETATM   18  C1  UNL     1      56.944  55.902  16.067  1.00  0.00     0.037 C 
ENDBRANCH  15  17
BRANCH  16  19
HETATM   19  O3  UNL     1      60.212  55.340  14.606  1.00  0.00    -0.352 OA
ATOM     20  H3  UNL     1      61.138  55.228  14.785  1.00  0.00     0.214 HD
ENDBRANCH  16  19
ENDBRANCH   1  12
BRANCH   4  21
HETATM   21  N4  UNL     1      64.534  53.062  16.787  1.00  0.00    -0.136 N 
ATOM     22  H4  UNL     1      64.982  52.211  17.127  1.00  0.00     0.205 HD
BRANCH  21  23
HETATM   23  N5  UNL     1      65.223  53.892  15.906  1.00  0.00    -0.317 N 
ATOM     24  H5  UNL     1      64.909  53.924  14.936  1.00  0.00     0.181 HD
BRANCH  23  25
HETATM   25  C7  UNL     1      66.350  54.704  16.276  1.00  0.00     0.186 C 
BRANCH  25  26
HETATM   26  C8  UNL     1      67.407  54.686  15.213  1.00  0.00     0.107 C 
HETATM   27  N6  UNL     1      67.284  55.326  14.103  1.00  0.00    -0.283 N 
ATOM     28  H6  UNL     1      68.026  55.287  13.404  1.00  0.00     0.192 HD
BRANCH  27  29
HETATM   29  O1  UNL     1      66.155  56.055  13.866  1.00  0.00    -0.291 OA
ATOM     30  H1  UNL     1      65.913  56.752  14.464  1.00  0.00     0.244 HD
ENDBRANCH  27  29
ENDBRANCH  25  26
ENDBRANCH  23  25
ENDBRANCH  21  23
ENDBRANCH   4  21
TORSDOF 8
ENDMDL
MODEL 4
REMARK VINA RESULT: -7.274757912      3.120      4.863
REMARK  8 active torsions:
REMARK  status: ('A' for Active; 'I' for Inactive)
REMARK    1  A    between atoms: C2_2  and  N1_3 
REMARK    2  A    between atoms: N2_6  and  C5_7 
REMARK    3  A    between atoms: C6_10  and  N4_11 
REMARK    4  A    between atoms: N4_11  and  N5_13 
REMARK    5  A    between atoms: N5_13  and  C7_15 
REMARK    6  A    between atoms: C7_15  and  C8_16 
REMARK    7  A    between atoms: N6_17  and  O1_19 
REMARK    8  A    between atoms: C12_28  and  O3_29 
ROOT
HETATM    1  C5  UNL     1      59.723  59.602  18.221  1.00  0.00     0.149 A 
HETATM    2  N3  UNL     1      59.878  58.279  18.411  1.00  0.00    -0.173 N 
ATOM      3  H3  UNL     1      59.077  57.731  18.722  1.00  0.00     0.186 HD
HETATM    4  C6  UNL     1      61.050  57.652  18.208  1.00  0.00     0.701 A 
HETATM    5  N7  UNL     1      62.119  58.383  17.795  1.00  0.00    -0.153 N 
ATOM      6  H7  UNL     1      63.007  57.905  17.643  1.00  0.00     0.187 HD
HETATM    7  C9  UNL     1      62.055  59.708  17.581  1.00  0.00     0.284 A 
HETATM    8  O2  UNL     1      63.067  60.375  17.194  1.00  0.00    -0.266 OA
HETATM    9  C10 UNL     1      60.829  60.316  17.802  1.00  0.00     0.157 A 
HETATM   10  C11 UNL     1      60.714  61.743  17.583  1.00  0.00     0.109 C 
HETATM   11  N8  UNL     1      60.637  62.891  17.394  1.00  0.00    -0.191 NA
ENDROOT
BRANCH   1  12
HETATM   12  N2  UNL     1      58.512  60.296  18.423  1.00  0.00    -0.312 N 
HETATM   13  C4  UNL     1      58.151  61.239  19.440  1.00  0.00     0.159 A 
HETATM   14  C3  UNL     1      56.711  61.571  19.211  1.00  0.00     0.298 A 
HETATM   15  N1  UNL     1      56.310  60.946  17.989  1.00  0.00     0.138 N 
HETATM   16  C12 UNL     1      57.367  60.111  17.523  1.00  0.00     0.468 A 
BRANCH  15  17
HETATM   17  C2  UNL     1      55.015  60.349  17.994  1.00  0.00     0.274 C 
HETATM   18  C1  UNL     1      54.202  60.653  16.765  1.00  0.00     0.037 C 
ENDBRANCH  15  17
BRANCH  16  19
HETATM   19  O3  UNL     1      57.801  60.628  16.281  1.00  0.00    -0.352 OA
ATOM     20  H3  UNL     1      57.778  59.917  15.651  1.00  0.00     0.214 HD
ENDBRANCH  16  19
ENDBRANCH   1  12
BRANCH   4  21
HETATM   21  N4  UNL     1      61.210  56.383  18.387  1.00  0.00    -0.136 N 
ATOM     22  H4  UNL     1      60.667  55.909  19.109  1.00  0.00     0.205 HD
BRANCH  21  23
HETATM   23  N5  UNL     1      62.108  55.650  17.615  1.00  0.00    -0.317 N 
ATOM     24  H5  UNL     1      61.987  55.661  16.602  1.00  0.00     0.181 HD
BRANCH  23  25
HETATM   25  C7  UNL     1      63.194  54.878  18.155  1.00  0.00     0.186 C 
BRANCH  25  26
HETATM   26  C8  UNL     1      64.313  55.762  18.616  1.00  0.00     0.107 C 
HETATM   27  N6  UNL     1      64.362  56.256  19.804  1.00  0.00    -0.283 N 
ATOM     28  H6  UNL     1      65.141  56.855  20.079  1.00  0.00     0.192 HD
BRANCH  27  29
HETATM   29  O1  UNL     1      63.365  55.974  20.693  1.00  0.00    -0.291 OA
ATOM     30  H1  UNL     1      63.418  55.187  21.222  1.00  0.00     0.244 HD
ENDBRANCH  27  29
ENDBRANCH  25  26
ENDBRANCH  23  25
ENDBRANCH  21  23
ENDBRANCH   4  21
TORSDOF 8
ENDMDL
MODEL 5
REMARK VINA RESULT: -7.262189200      6.458      8.926
REMARK  8 active torsions:
REMARK  status: ('A' for Active; 'I' for Inactive)
REMARK    1  A    between atoms: C2_2  and  N1_3 
REMARK    2  A    between atoms: N2_6  and  C5_7 
REMARK    3  A    between atoms: C6_10  and  N4_11 
REMARK    4  A    between atoms: N4_11  and  N5_13 
REMARK    5  A    between atoms: N5_13  and  C7_15 
REMARK    6  A    between atoms: C7_15  and  C8_16 
REMARK    7  A    between atoms: N6_17  and  O1_19 
REMARK    8  A    between atoms: C12_28  and  O3_29 
ROOT
HETATM    1  C5  UNL     1      57.399  53.935  17.184  1.00  0.00     0.149 A 
HETATM    2  N3  UNL     1      56.504  52.931  17.159  1.00  0.00    -0.173 N 
ATOM      3  H3  UNL     1      56.793  52.008  17.484  1.00  0.00     0.186 HD
HETATM    4  C6  UNL     1      55.243  53.096  16.722  1.00  0.00     0.701 A 
HETATM    5  N7  UNL     1      54.858  54.325  16.287  1.00  0.00    -0.153 N 
ATOM      6  H7  UNL     1      53.901  54.447  15.955  1.00  0.00     0.187 HD
HETATM    7  C9  UNL     1      55.684  55.384  16.277  1.00  0.00     0.284 A 
HETATM    8  O2  UNL     1      55.306  56.527  15.867  1.00  0.00    -0.266 OA
HETATM    9  C10 UNL     1      56.975  55.171  16.736  1.00  0.00     0.157 A 
HETATM   10  C11 UNL     1      57.900  56.286  16.742  1.00  0.00     0.109 C 
HETATM   11  N8  UNL     1      58.629  57.195  16.748  1.00  0.00    -0.191 NA
ENDROOT
BRANCH   1  12
HETATM   12  N2  UNL     1      58.729  53.802  17.634  1.00  0.00    -0.312 N 
HETATM   13  C4  UNL     1      59.331  54.235  18.860  1.00  0.00     0.159 A 
HETATM   14  C3  UNL     1      60.787  53.910  18.747  1.00  0.00     0.298 A 
HETATM   15  N1  UNL     1      60.974  53.163  17.543  1.00  0.00     0.138 N 
HETATM   16  C12 UNL     1      59.749  53.139  16.814  1.00  0.00     0.468 A 
BRANCH  15  17
HETATM   17  C2  UNL     1      62.133  53.494  16.781  1.00  0.00     0.274 C 
HETATM   18  C1  UNL     1      61.945  54.678  15.872  1.00  0.00     0.037 C 
ENDBRANCH  15  17
BRANCH  16  19
HETATM   19  O3  UNL     1      59.326  51.792  16.736  1.00  0.00    -0.352 OA
ATOM     20  H3  UNL     1      59.430  51.410  17.600  1.00  0.00     0.214 HD
ENDBRANCH  16  19
ENDBRANCH   1  12
BRANCH   4  21
HETATM   21  N4  UNL     1      54.377  52.138  16.694  1.00  0.00    -0.136 N 
ATOM     22  H4  UNL     1      53.637  52.114  17.395  1.00  0.00     0.205 HD
BRANCH  21  23
HETATM   23  N5  UNL     1      54.434  51.138  15.725  1.00  0.00    -0.317 N 
ATOM     24  H5  UNL     1      55.286  51.058  15.171  1.00  0.00     0.181 HD
BRANCH  23  25
HETATM   25  C7  UNL     1      53.367  50.213  15.457  1.00  0.00     0.186 C 
BRANCH  25  26
HETATM   26  C8  UNL     1      53.265  49.173  16.532  1.00  0.00     0.107 C 
HETATM   27  N6  UNL     1      54.110  48.208  16.646  1.00  0.00    -0.283 N 
ATOM     28  H6  UNL     1      54.005  47.520  17.392  1.00  0.00     0.192 HD
BRANCH  27  29
HETATM   29  O1  UNL     1      55.146  48.112  15.762  1.00  0.00    -0.291 OA
ATOM     30  H1  UNL     1      55.939  47.657  16.018  1.00  0.00     0.244 HD
ENDBRANCH  27  29
ENDBRANCH  25  26
ENDBRANCH  23  25
ENDBRANCH  21  23
ENDBRANCH   4  21
TORSDOF 8
ENDMDL
