MODEL 1
REMARK VINA RESULT: -7.182813441      0.000      0.000
REMARK  9 active torsions:
REMARK  status: ('A' for Active; 'I' for Inactive)
REMARK    1  A    between atoms: N2_3  and  C2_4 
REMARK    2  A    between atoms: N2_3  and  N7_20 
REMARK    3  A    between atoms: N3_5  and  N4_7 
REMARK       I    between atoms: N4_7  and  C3_9 
REMARK    4  A    between atoms: C3_9  and  C4_11 
REMARK    5  A    between atoms: C4_11  and  N5_12 
REMARK    6  A    between atoms: C4_11  and  N6_16 
REMARK    7  A    between atoms: N7_20  and  S1_22 
REMARK    8  A    between atoms: S1_22  and  C5_25 
REMARK    9  A    between atoms: C7_29  and  N9_30 
ROOT
HETATM    1  N1  UNL     1      62.183  54.796  15.254  1.00  0.00    -0.170 NA
HETATM    2  C1  UNL     1      62.926  54.779  16.156  1.00  0.00     0.206 C 
HETATM    3  N2  UNL     1      63.828  54.744  17.222  1.00  0.00    -0.175 N 
ENDROOT
BRANCH   3   4
HETATM    4  C2  UNL     1      65.210  54.986  16.998  1.00  0.00     0.235 C 
HETATM    5  N3  UNL     1      65.870  54.299  16.153  1.00  0.00    -0.291 N 
ATOM      6  H3  UNL     1      65.396  53.562  15.629  1.00  0.00     0.188 HD
BRANCH   5   7
HETATM    7  N4  UNL     1      67.226  54.533  15.930  1.00  0.00    -0.266 N 
HETATM    8  C3  UNL     1      67.690  55.245  14.793  1.00  0.00     0.294 C 
HETATM    9  O1  UNL     1      66.830  55.666  13.979  1.00  0.00    -0.267 OA
ATOM     10  H4  UNL     1      67.906  54.182  16.605  1.00  0.00     0.190 HD
BRANCH   8  11
HETATM   11  C4  UNL     1      69.134  55.494  14.554  1.00  0.00     0.469 C 
BRANCH  11  12
HETATM   12  N5  UNL     1      69.939  54.341  14.873  1.00  0.00    -0.041 N 
ATOM     13  H53 UNL     1      69.362  53.509  14.999  1.00  0.00     0.277 HD
ATOM     14  H52 UNL     1      70.487  54.037  14.068  1.00  0.00     0.277 HD
ATOM     15  H51 UNL     1      70.534  54.506  15.685  1.00  0.00     0.277 HD
ENDBRANCH  11  12
BRANCH  11  16
HETATM   16  N6  UNL     1      69.626  56.603  15.339  1.00  0.00    -0.041 N 
ATOM     17  H63 UNL     1      68.871  57.059  15.852  1.00  0.00     0.277 HD
ATOM     18  H62 UNL     1      70.184  56.280  16.129  1.00  0.00     0.277 HD
ATOM     19  H61 UNL     1      70.143  57.272  14.769  1.00  0.00     0.277 HD
ENDBRANCH  11  16
ENDBRANCH   8  11
ENDBRANCH   5   7
ENDBRANCH   3   4
BRANCH   3  20
HETATM   20  N7  UNL     1      63.406  54.473  18.517  1.00  0.00    -0.206 N 
ATOM     21  H7  UNL     1      63.694  53.644  19.036  1.00  0.00     0.201 HD
BRANCH  20  22
HETATM   22  S1  UNL     1      62.362  55.655  19.160  1.00  0.00     0.285 S 
HETATM   23  O2  UNL     1      62.792  55.957  20.571  1.00  0.00    -0.198 OA
HETATM   24  O3  UNL     1      62.433  56.905  18.375  1.00  0.00    -0.198 OA
BRANCH  22  25
HETATM   25  C5  UNL     1      60.729  54.989  19.214  1.00  0.00     0.140 A 
HETATM   26  C6  UNL     1      60.224  54.049  20.070  1.00  0.00     0.123 A 
HETATM   27  N8  UNL     1      58.963  53.702  19.920  1.00  0.00    -0.345 N 
HETATM   28  C7  UNL     1      58.262  54.284  18.952  1.00  0.00     0.143 A 
ATOM     29  H8  UNL     1      58.536  53.005  20.530  1.00  0.00     0.167 HD
HETATM   30  S2  UNL     1      59.381  55.340  18.229  1.00  0.00    -0.039 SA
BRANCH  28  31
HETATM   31  N9  UNL     1      57.003  54.088  18.632  1.00  0.00    -0.380 N 
ATOM     32  H92 UNL     1      56.614  53.398  17.989  1.00  0.00     0.158 HD
ATOM     33  H91 UNL     1      56.181  54.590  18.968  1.00  0.00     0.158 HD
ENDBRANCH  28  31
ENDBRANCH  22  25
ENDBRANCH  20  22
ENDBRANCH   3  20
TORSDOF 9
ENDMDL
MODEL 2
REMARK VINA RESULT: -7.145704342      4.868      6.852
REMARK  9 active torsions:
REMARK  status: ('A' for Active; 'I' for Inactive)
REMARK    1  A    between atoms: N2_3  and  C2_4 
REMARK    2  A    between atoms: N2_3  and  N7_20 
REMARK    3  A    between atoms: N3_5  and  N4_7 
REMARK       I    between atoms: N4_7  and  C3_9 
REMARK    4  A    between atoms: C3_9  and  C4_11 
REMARK    5  A    between atoms: C4_11  and  N5_12 
REMARK    6  A    between atoms: C4_11  and  N6_16 
REMARK    7  A    between atoms: N7_20  and  S1_22 
REMARK    8  A    between atoms: S1_22  and  C5_25 
REMARK    9  A    between atoms: C7_29  and  N9_30 
ROOT
HETATM    1  N1  UNL     1      64.207  58.282  20.432  1.00  0.00    -0.170 NA
HETATM    2  C1  UNL     1      63.274  57.922  19.828  1.00  0.00     0.206 C 
HETATM    3  N2  UNL     1      62.173  57.485  19.088  1.00  0.00    -0.175 N 
ENDROOT
BRANCH   3   4
HETATM    4  C2  UNL     1      62.163  56.181  18.524  1.00  0.00     0.235 C 
HETATM    5  N3  UNL     1      62.073  55.146  19.261  1.00  0.00    -0.291 N 
ATOM      6  H3  UNL     1      62.008  55.257  20.273  1.00  0.00     0.188 HD
BRANCH   5   7
HETATM    7  N4  UNL     1      62.062  53.864  18.712  1.00  0.00    -0.266 N 
HETATM    8  C3  UNL     1      60.855  53.150  18.493  1.00  0.00     0.294 C 
HETATM    9  O1  UNL     1      59.779  53.713  18.813  1.00  0.00    -0.267 OA
ATOM     10  H4  UNL     1      62.948  53.427  18.460  1.00  0.00     0.190 HD
BRANCH   8  11
HETATM   11  C4  UNL     1      60.842  51.784  17.909  1.00  0.00     0.469 C 
BRANCH  11  12
HETATM   12  N5  UNL     1      59.759  51.609  16.974  1.00  0.00    -0.041 N 
ATOM     13  H53 UNL     1      58.860  51.555  17.453  1.00  0.00     0.277 HD
ATOM     14  H52 UNL     1      59.600  52.456  16.428  1.00  0.00     0.277 HD
ATOM     15  H51 UNL     1      59.906  50.802  16.369  1.00  0.00     0.277 HD
ENDBRANCH  11  12
BRANCH  11  16
HETATM   16  N6  UNL     1      60.712  50.766  18.926  1.00  0.00    -0.041 N 
ATOM     17  H63 UNL     1      60.996  51.116  19.842  1.00  0.00     0.277 HD
ATOM     18  H62 UNL     1      59.732  50.566  19.128  1.00  0.00     0.277 HD
ATOM     19  H61 UNL     1      61.220  49.917  18.680  1.00  0.00     0.277 HD
ENDBRANCH  11  16
ENDBRANCH   8  11
ENDBRANCH   5   7
ENDBRANCH   3   4
BRANCH   3  20
HETATM   20  N7  UNL     1      61.069  58.302  18.884  1.00  0.00    -0.206 N 
ATOM     21  H7  UNL     1      60.145  58.095  19.262  1.00  0.00     0.201 HD
BRANCH  20  22
HETATM   22  S1  UNL     1      61.402  59.683  17.944  1.00  0.00     0.285 S 
HETATM   23  O2  UNL     1      60.751  60.874  18.597  1.00  0.00    -0.198 OA
HETATM   24  O3  UNL     1      62.857  59.932  17.868  1.00  0.00    -0.198 OA
BRANCH  22  25
HETATM   25  C5  UNL     1      60.675  59.464  16.352  1.00  0.00     0.140 A 
HETATM   26  C6  UNL     1      60.164  60.417  15.513  1.00  0.00     0.123 A 
HETATM   27  N8  UNL     1      59.668  60.014  14.362  1.00  0.00    -0.345 N 
HETATM   28  C7  UNL     1      59.695  58.714  14.087  1.00  0.00     0.143 A 
ATOM     29  H8  UNL     1      59.274  60.682  13.700  1.00  0.00     0.167 HD
HETATM   30  S2  UNL     1      60.426  58.031  15.461  1.00  0.00    -0.039 SA
BRANCH  28  31
HETATM   31  N9  UNL     1      59.258  58.104  13.008  1.00  0.00    -0.380 N 
ATOM     32  H92 UNL     1      58.866  58.518  12.162  1.00  0.00     0.158 HD
ATOM     33  H91 UNL     1      59.232  57.102  12.818  1.00  0.00     0.158 HD
ENDBRANCH  28  31
ENDBRANCH  22  25
ENDBRANCH  20  22
ENDBRANCH   3  20
TORSDOF 9
ENDMDL
MODEL 3
REMARK VINA RESULT: -7.138626459      4.700      6.382
REMARK  9 active torsions:
REMARK  status: ('A' for Active; 'I' for Inactive)
REMARK    1  A    between atoms: N2_3  and  C2_4 
REMARK    2  A    between atoms: N2_3  and  N7_20 
REMARK    3  A    between atoms: N3_5  and  N4_7 
REMARK       I    between atoms: N4_7  and  C3_9 
REMARK    4  A    between atoms: C3_9  and  C4_11 
REMARK    5  A    between atoms: C4_11  and  N5_12 
REMARK    6  A    between atoms: C4_11  and  N6_16 
REMARK    7  A    between atoms: N7_20  and  S1_22 
REMARK    8  A    between atoms: S1_22  and  C5_25 
REMARK    9  A    between atoms: C7_29  and  N9_30 
ROOT
HETATM    1  N1  UNL     1      64.665  58.346  20.568  1.00  0.00    -0.170 NA
HETATM    2  C1  UNL     1      63.665  57.917  20.141  1.00  0.00     0.206 C 
HETATM    3  N2  UNL     1      62.483  57.390  19.616  1.00  0.00    -0.175 N 
ENDROOT
BRANCH   3   4
HETATM    4  C2  UNL     1      62.272  55.986  19.598  1.00  0.00     0.235 C 
HETATM    5  N3  UNL     1      62.563  55.290  18.571  1.00  0.00    -0.291 N 
ATOM      6  H3  UNL     1      62.954  55.751  17.750  1.00  0.00     0.188 HD
BRANCH   5   7
HETATM    7  N4  UNL     1      62.357  53.911  18.548  1.00  0.00    -0.266 N 
HETATM    8  C3  UNL     1      61.543  53.288  17.566  1.00  0.00     0.294 C 
HETATM    9  O1  UNL     1      61.004  54.025  16.704  1.00  0.00    -0.267 OA
ATOM     10  H4  UNL     1      62.806  53.333  19.259  1.00  0.00     0.190 HD
BRANCH   8  11
HETATM   11  C4  UNL     1      61.323  51.819  17.541  1.00  0.00     0.469 C 
BRANCH  11  12
HETATM   12  N5  UNL     1      59.970  51.484  17.173  1.00  0.00    -0.041 N 
ATOM     13  H53 UNL     1      59.645  52.058  16.395  1.00  0.00     0.277 HD
ATOM     14  H52 UNL     1      59.923  50.567  16.728  1.00  0.00     0.277 HD
ATOM     15  H51 UNL     1      59.334  51.542  17.968  1.00  0.00     0.277 HD
ENDBRANCH  11  12
BRANCH  11  16
HETATM   16  N6  UNL     1      61.591  51.213  18.826  1.00  0.00    -0.041 N 
ATOM     17  H63 UNL     1      61.885  50.242  18.725  1.00  0.00     0.277 HD
ATOM     18  H62 UNL     1      62.438  51.594  19.246  1.00  0.00     0.277 HD
ATOM     19  H61 UNL     1      60.794  51.295  19.457  1.00  0.00     0.277 HD
ENDBRANCH  11  16
ENDBRANCH   8  11
ENDBRANCH   5   7
ENDBRANCH   3   4
BRANCH   3  20
HETATM   20  N7  UNL     1      61.491  58.215  19.101  1.00  0.00    -0.206 N 
ATOM     21  H7  UNL     1      60.654  58.474  19.624  1.00  0.00     0.201 HD
BRANCH  20  22
HETATM   22  S1  UNL     1      61.799  58.753  17.515  1.00  0.00     0.285 S 
HETATM   23  O2  UNL     1      62.774  59.898  17.580  1.00  0.00    -0.198 OA
HETATM   24  O3  UNL     1      62.400  57.676  16.701  1.00  0.00    -0.198 OA
BRANCH  22  25
HETATM   25  C5  UNL     1      60.291  59.353  16.826  1.00  0.00     0.140 A 
HETATM   26  C6  UNL     1      60.112  60.089  15.686  1.00  0.00     0.123 A 
HETATM   27  N8  UNL     1      58.881  60.428  15.365  1.00  0.00    -0.345 N 
HETATM   28  C7  UNL     1      57.893  60.034  16.163  1.00  0.00     0.143 A 
ATOM     29  H8  UNL     1      58.691  60.977  14.527  1.00  0.00     0.167 HD
HETATM   30  S2  UNL     1      58.692  59.174  17.392  1.00  0.00    -0.039 SA
BRANCH  28  31
HETATM   31  N9  UNL     1      56.605  60.259  16.031  1.00  0.00    -0.380 N 
ATOM     32  H92 UNL     1      55.913  59.699  15.532  1.00  0.00     0.158 HD
ATOM     33  H91 UNL     1      56.060  61.036  16.403  1.00  0.00     0.158 HD
ENDBRANCH  28  31
ENDBRANCH  22  25
ENDBRANCH  20  22
ENDBRANCH   3  20
TORSDOF 9
ENDMDL
MODEL 4
REMARK VINA RESULT: -7.121542189      3.425      6.545
REMARK  9 active torsions:
REMARK  status: ('A' for Active; 'I' for Inactive)
REMARK    1  A    between atoms: N2_3  and  C2_4 
REMARK    2  A    between atoms: N2_3  and  N7_20 
REMARK    3  A    between atoms: N3_5  and  N4_7 
REMARK       I    between atoms: N4_7  and  C3_9 
REMARK    4  A    between atoms: C3_9  and  C4_11 
REMARK    5  A    between atoms: C4_11  and  N5_12 
REMARK    6  A    between atoms: C4_11  and  N6_16 
REMARK    7  A    between atoms: N7_20  and  S1_22 
REMARK    8  A    between atoms: S1_22  and  C5_25 
REMARK    9  A    between atoms: C7_29  and  N9_30 
ROOT
HETATM    1  N1  UNL     1      59.327  58.926  18.504  1.00  0.00    -0.170 NA
HETATM    2  C1  UNL     1      59.975  58.107  19.027  1.00  0.00     0.206 C 
HETATM    3  N2  UNL     1      60.730  57.118  19.662  1.00  0.00    -0.175 N 
ENDROOT
BRANCH   3   4
HETATM    4  C2  UNL     1      60.396  55.747  19.498  1.00  0.00     0.235 C 
HETATM    5  N3  UNL     1      61.235  54.828  19.769  1.00  0.00    -0.291 N 
ATOM      6  H3  UNL     1      62.163  55.083  20.108  1.00  0.00     0.188 HD
BRANCH   5   7
HETATM    7  N4  UNL     1      60.912  53.481  19.610  1.00  0.00    -0.266 N 
HETATM    8  C3  UNL     1      61.277  52.752  18.448  1.00  0.00     0.294 C 
HETATM    9  O1  UNL     1      61.909  53.363  17.551  1.00  0.00    -0.267 OA
ATOM     10  H4  UNL     1      60.398  53.006  20.351  1.00  0.00     0.190 HD
BRANCH   8  11
HETATM   11  C4  UNL     1      60.932  51.317  18.277  1.00  0.00     0.469 C 
BRANCH  11  12
HETATM   12  N5  UNL     1      59.982  51.115  17.212  1.00  0.00    -0.041 N 
ATOM     13  H53 UNL     1      59.250  51.826  17.228  1.00  0.00     0.277 HD
ATOM     14  H52 UNL     1      60.393  51.327  16.303  1.00  0.00     0.277 HD
ATOM     15  H51 UNL     1      59.585  50.176  17.229  1.00  0.00     0.277 HD
ENDBRANCH  11  12
BRANCH  11  16
HETATM   16  N6  UNL     1      60.367  50.753  19.482  1.00  0.00    -0.041 N 
ATOM     17  H63 UNL     1      60.790  49.851  19.704  1.00  0.00     0.277 HD
ATOM     18  H62 UNL     1      60.660  51.274  20.308  1.00  0.00     0.277 HD
ATOM     19  H61 UNL     1      59.352  50.682  19.427  1.00  0.00     0.277 HD
ENDBRANCH  11  16
ENDBRANCH   8  11
ENDBRANCH   5   7
ENDBRANCH   3   4
BRANCH   3  20
HETATM   20  N7  UNL     1      61.818  57.442  20.463  1.00  0.00    -0.206 N 
ATOM     21  H7  UNL     1      61.808  57.350  21.479  1.00  0.00     0.201 HD
BRANCH  20  22
HETATM   22  S1  UNL     1      63.168  58.005  19.593  1.00  0.00     0.285 S 
HETATM   23  O2  UNL     1      62.759  59.227  18.813  1.00  0.00    -0.198 OA
HETATM   24  O3  UNL     1      64.265  58.384  20.508  1.00  0.00    -0.198 OA
BRANCH  22  25
HETATM   25  C5  UNL     1      63.654  56.758  18.444  1.00  0.00     0.140 A 
HETATM   26  C6  UNL     1      64.506  55.706  18.643  1.00  0.00     0.123 A 
HETATM   27  N8  UNL     1      64.720  54.894  17.629  1.00  0.00    -0.345 N 
HETATM   28  C7  UNL     1      64.098  55.144  16.482  1.00  0.00     0.143 A 
ATOM     29  H8  UNL     1      65.347  54.095  17.722  1.00  0.00     0.167 HD
HETATM   30  S2  UNL     1      63.193  56.544  16.816  1.00  0.00    -0.039 SA
BRANCH  28  31
HETATM   31  N9  UNL     1      64.169  54.469  15.356  1.00  0.00    -0.380 N 
ATOM     32  H92 UNL     1      63.454  53.882  14.925  1.00  0.00     0.158 HD
ATOM     33  H91 UNL     1      64.952  54.409  14.706  1.00  0.00     0.158 HD
ENDBRANCH  28  31
ENDBRANCH  22  25
ENDBRANCH  20  22
ENDBRANCH   3  20
TORSDOF 9
ENDMDL
MODEL 5
REMARK VINA RESULT: -7.120811775      4.541      6.344
REMARK  9 active torsions:
REMARK  status: ('A' for Active; 'I' for Inactive)
REMARK    1  A    between atoms: N2_3  and  C2_4 
REMARK    2  A    between atoms: N2_3  and  N7_20 
REMARK    3  A    between atoms: N3_5  and  N4_7 
REMARK       I    between atoms: N4_7  and  C3_9 
REMARK    4  A    between atoms: C3_9  and  C4_11 
REMARK    5  A    between atoms: C4_11  and  N5_12 
REMARK    6  A    between atoms: C4_11  and  N6_16 
REMARK    7  A    between atoms: N7_20  and  S1_22 
REMARK    8  A    between atoms: S1_22  and  C5_25 
REMARK    9  A    between atoms: C7_29  and  N9_30 
ROOT
HETATM    1  N1  UNL     1      64.887  58.431  20.741  1.00  0.00    -0.170 NA
HETATM    2  C1  UNL     1      63.950  57.961  20.227  1.00  0.00     0.206 C 
HETATM    3  N2  UNL     1      62.815  57.412  19.625  1.00  0.00    -0.175 N 
ENDROOT
BRANCH   3   4
HETATM    4  C2  UNL     1      61.815  58.260  19.076  1.00  0.00     0.235 C 
HETATM    5  N3  UNL     1      62.050  58.973  18.047  1.00  0.00    -0.291 N 
ATOM      6  H3  UNL     1      62.971  58.933  17.611  1.00  0.00     0.188 HD
BRANCH   5   7
HETATM    7  N4  UNL     1      61.072  59.806  17.505  1.00  0.00    -0.266 N 
HETATM    8  C3  UNL     1      60.689  59.728  16.140  1.00  0.00     0.294 C 
HETATM    9  O1  UNL     1      61.264  58.873  15.422  1.00  0.00    -0.267 OA
ATOM     10  H4  UNL     1      60.619  60.493  18.108  1.00  0.00     0.190 HD
BRANCH   8  11
HETATM   11  C4  UNL     1      59.648  60.616  15.562  1.00  0.00     0.469 C 
BRANCH  11  12
HETATM   12  N5  UNL     1      58.317  60.129  15.827  1.00  0.00    -0.041 N 
ATOM     13  H53 UNL     1      58.020  59.457  15.118  1.00  0.00     0.277 HD
ATOM     14  H52 UNL     1      58.302  59.518  16.644  1.00  0.00     0.277 HD
ATOM     15  H51 UNL     1      57.645  60.889  15.920  1.00  0.00     0.277 HD
ENDBRANCH  11  12
BRANCH  11  16
HETATM   16  N6  UNL     1      59.789  60.748  14.130  1.00  0.00    -0.041 N 
ATOM     17  H63 UNL     1      60.764  60.656  13.842  1.00  0.00     0.277 HD
ATOM     18  H62 UNL     1      59.402  59.940  13.642  1.00  0.00     0.277 HD
ATOM     19  H61 UNL     1      59.383  61.618  13.787  1.00  0.00     0.277 HD
ENDBRANCH  11  16
ENDBRANCH   8  11
ENDBRANCH   5   7
ENDBRANCH   3   4
BRANCH   3  20
HETATM   20  N7  UNL     1      62.632  56.038  19.546  1.00  0.00    -0.206 N 
ATOM     21  H7  UNL     1      62.196  55.490  20.287  1.00  0.00     0.201 HD
BRANCH  20  22
HETATM   22  S1  UNL     1      63.202  55.351  18.096  1.00  0.00     0.285 S 
HETATM   23  O2  UNL     1      62.944  56.321  16.973  1.00  0.00    -0.198 OA
HETATM   24  O3  UNL     1      64.657  55.099  18.168  1.00  0.00    -0.198 OA
BRANCH  22  25
HETATM   25  C5  UNL     1      62.282  53.881  17.773  1.00  0.00     0.140 A 
HETATM   26  C6  UNL     1      62.750  52.608  17.594  1.00  0.00     0.123 A 
HETATM   27  N8  UNL     1      61.867  51.660  17.364  1.00  0.00    -0.345 N 
HETATM   28  C7  UNL     1      60.582  51.995  17.320  1.00  0.00     0.143 A 
ATOM     29  H8  UNL     1      62.162  50.693  17.222  1.00  0.00     0.167 HD
HETATM   30  S2  UNL     1      60.597  53.671  17.605  1.00  0.00    -0.039 SA
BRANCH  28  31
HETATM   31  N9  UNL     1      59.546  51.214  17.107  1.00  0.00    -0.380 N 
ATOM     32  H92 UNL     1      58.785  51.343  16.439  1.00  0.00     0.158 HD
ATOM     33  H91 UNL     1      59.314  50.336  17.569  1.00  0.00     0.158 HD
ENDBRANCH  28  31
ENDBRANCH  22  25
ENDBRANCH  20  22
ENDBRANCH   3  20
TORSDOF 9
ENDMDL
