MODEL 1
REMARK VINA RESULT: -8.044648193      0.000      0.000
REMARK  8 active torsions:
REMARK  status: ('A' for Active; 'I' for Inactive)
REMARK    1  A    between atoms: N1_4  and  C4_5 
REMARK    2  A    between atoms: C4_5  and  C5_6 
REMARK    3  A    between atoms: C5_6  and  C6_7 
REMARK    4  A    between atoms: C6_7  and  O1_8 
REMARK    5  A    between atoms: C6_7  and  C7_10 
REMARK    6  A    between atoms: C7_10  and  N2_11 
REMARK    7  A    between atoms: C11_18  and  N4_19 
REMARK    8  A    between atoms: N4_19  and  N5_21 
ROOT
HETATM    1  C6  UNL     1      62.697  56.312  19.696  1.00  0.00     0.138 C 
ENDROOT
BRANCH   1   2
HETATM    2  C5  UNL     1      62.487  57.798  19.805  1.00  0.00     0.053 C 
BRANCH   2   3
HETATM    3  C4  UNL     1      61.046  58.226  19.681  1.00  0.00     0.135 C 
BRANCH   3   4
HETATM    4  N1  UNL     1      61.006  59.441  18.859  1.00  0.00    -0.309 N 
HETATM    5  C3  UNL     1      61.904  59.641  17.859  1.00  0.00     0.108 A 
HETATM    6  C2  UNL     1      61.858  60.789  17.091  1.00  0.00     0.022 A 
HETATM    7  C1  UNL     1      62.833  61.033  15.986  1.00  0.00     0.056 C 
HETATM    8  C13 UNL     1      60.869  61.704  17.387  1.00  0.00     0.256 A 
HETATM    9  N6  UNL     1      59.989  61.467  18.393  1.00  0.00    -0.275 N 
HETATM   10  O4  UNL     1      60.823  62.748  16.690  1.00  0.00    -0.267 OA
HETATM   11  C12 UNL     1      60.046  60.345  19.133  1.00  0.00     0.329 A 
ATOM     12  H6  UNL     1      59.266  62.159  18.593  1.00  0.00     0.173 HD
HETATM   13  O3  UNL     1      59.226  60.129  20.069  1.00  0.00    -0.246 OA
ENDBRANCH   3   4
ENDBRANCH   2   3
ENDBRANCH   1   2
BRANCH   1  14
HETATM   14  O1  UNL     1      63.423  55.947  20.855  1.00  0.00    -0.394 OA
ATOM     15  H1  UNL     1      62.770  55.828  21.535  1.00  0.00     0.210 HD
ENDBRANCH   1  14
BRANCH   1  16
HETATM   16  C7  UNL     1      61.366  55.631  19.667  1.00  0.00     0.178 C 
BRANCH  16  17
HETATM   17  N2  UNL     1      61.422  54.322  19.032  1.00  0.00    -0.189 N 
HETATM   18  C8  UNL     1      62.333  54.065  18.085  1.00  0.00     0.114 A 
HETATM   19  C9  UNL     1      62.382  52.828  17.487  1.00  0.00     0.092 A 
HETATM   20  C10 UNL     1      61.475  51.868  17.888  1.00  0.00     0.260 A 
HETATM   21  O2  UNL     1      61.525  50.733  17.334  1.00  0.00    -0.268 OA
HETATM   22  N3  UNL     1      60.567  52.141  18.839  1.00  0.00    -0.154 N 
HETATM   23  C11 UNL     1      60.550  53.367  19.401  1.00  0.00     0.701 A 
ATOM     24  H3  UNL     1      59.898  51.430  19.133  1.00  0.00     0.187 HD
BRANCH  23  25
HETATM   25  N4  UNL     1      59.654  53.596  20.323  1.00  0.00    -0.138 N 
ATOM     26  H4  UNL     1      59.246  54.527  20.414  1.00  0.00     0.205 HD
BRANCH  25  27
HETATM   27  N5  UNL     1      59.251  52.576  21.180  1.00  0.00    -0.331 N 
ATOM     28  H52 UNL     1      59.864  51.771  21.307  1.00  0.00     0.177 HD
ATOM     29  H51 UNL     1      58.359  52.638  21.669  1.00  0.00     0.177 HD
ENDBRANCH  25  27
ENDBRANCH  23  25
ENDBRANCH  16  17
ENDBRANCH   1  16
TORSDOF 8
ENDMDL
MODEL 2
REMARK VINA RESULT: -7.864563537      3.083      4.875
REMARK  8 active torsions:
REMARK  status: ('A' for Active; 'I' for Inactive)
REMARK    1  A    between atoms: N1_4  and  C4_5 
REMARK    2  A    between atoms: C4_5  and  C5_6 
REMARK    3  A    between atoms: C5_6  and  C6_7 
REMARK    4  A    between atoms: C6_7  and  O1_8 
REMARK    5  A    between atoms: C6_7  and  C7_10 
REMARK    6  A    between atoms: C7_10  and  N2_11 
REMARK    7  A    between atoms: C11_18  and  N4_19 
REMARK    8  A    between atoms: N4_19  and  N5_21 
ROOT
HETATM    1  C6  UNL     1      60.950  54.333  17.310  1.00  0.00     0.138 C 
ENDROOT
BRANCH   1   2
HETATM    2  C5  UNL     1      61.366  55.114  16.093  1.00  0.00     0.053 C 
BRANCH   2   3
HETATM    3  C4  UNL     1      60.216  55.717  15.326  1.00  0.00     0.135 C 
BRANCH   3   4
HETATM    4  N1  UNL     1      60.389  57.175  15.324  1.00  0.00    -0.309 N 
HETATM    5  C3  UNL     1      61.204  57.784  16.225  1.00  0.00     0.108 A 
HETATM    6  C2  UNL     1      61.360  59.157  16.215  1.00  0.00     0.022 A 
HETATM    7  C1  UNL     1      62.250  59.853  17.193  1.00  0.00     0.056 C 
HETATM    8  C13 UNL     1      60.659  59.863  15.260  1.00  0.00     0.256 A 
HETATM    9  N6  UNL     1      59.855  59.217  14.376  1.00  0.00    -0.275 N 
HETATM   10  O4  UNL     1      60.798  61.112  15.247  1.00  0.00    -0.267 OA
HETATM   11  C12 UNL     1      59.712  57.879  14.398  1.00  0.00     0.329 A 
ATOM     12  H6  UNL     1      59.346  59.760  13.679  1.00  0.00     0.173 HD
HETATM   13  O3  UNL     1      58.963  57.282  13.575  1.00  0.00    -0.246 OA
ENDBRANCH   3   4
ENDBRANCH   2   3
ENDBRANCH   1   2
BRANCH   1  14
HETATM   14  O1  UNL     1      60.400  53.127  16.815  1.00  0.00    -0.394 OA
ATOM     15  H1  UNL     1      61.082  52.474  16.926  1.00  0.00     0.210 HD
ENDBRANCH   1  14
BRANCH   1  16
HETATM   16  C7  UNL     1      62.155  54.062  18.153  1.00  0.00     0.178 C 
BRANCH  16  17
HETATM   17  N2  UNL     1      62.691  55.267  18.768  1.00  0.00    -0.189 N 
HETATM   18  C8  UNL     1      61.889  56.096  19.447  1.00  0.00     0.114 A 
HETATM   19  C9  UNL     1      62.399  57.234  20.027  1.00  0.00     0.092 A 
HETATM   20  C10 UNL     1      63.747  57.494  19.890  1.00  0.00     0.260 A 
HETATM   21  O2  UNL     1      64.208  58.542  20.425  1.00  0.00    -0.268 OA
HETATM   22  N3  UNL     1      64.539  56.653  19.205  1.00  0.00    -0.154 N 
HETATM   23  C11 UNL     1      64.001  55.547  18.651  1.00  0.00     0.701 A 
ATOM     24  H3  UNL     1      65.534  56.848  19.105  1.00  0.00     0.187 HD
BRANCH  23  25
HETATM   25  N4  UNL     1      64.801  54.752  17.992  1.00  0.00    -0.138 N 
ATOM     26  H4  UNL     1      65.061  53.850  18.391  1.00  0.00     0.205 HD
BRANCH  25  27
HETATM   27  N5  UNL     1      65.300  55.130  16.750  1.00  0.00    -0.331 N 
ATOM     28  H52 UNL     1      65.909  55.947  16.692  1.00  0.00     0.177 HD
ATOM     29  H51 UNL     1      65.059  54.598  15.914  1.00  0.00     0.177 HD
ENDBRANCH  25  27
ENDBRANCH  23  25
ENDBRANCH  16  17
ENDBRANCH   1  16
TORSDOF 8
ENDMDL
MODEL 3
REMARK VINA RESULT: -7.853676571      5.459      7.561
REMARK  8 active torsions:
REMARK  status: ('A' for Active; 'I' for Inactive)
REMARK    1  A    between atoms: N1_4  and  C4_5 
REMARK    2  A    between atoms: C4_5  and  C5_6 
REMARK    3  A    between atoms: C5_6  and  C6_7 
REMARK    4  A    between atoms: C6_7  and  O1_8 
REMARK    5  A    between atoms: C6_7  and  C7_10 
REMARK    6  A    between atoms: C7_10  and  N2_11 
REMARK    7  A    between atoms: C11_18  and  N4_19 
REMARK    8  A    between atoms: N4_19  and  N5_21 
ROOT
HETATM    1  C6  UNL     1      63.715  53.262  16.817  1.00  0.00     0.138 C 
ENDROOT
BRANCH   1   2
HETATM    2  C5  UNL     1      65.172  53.440  16.488  1.00  0.00     0.053 C 
BRANCH   2   3
HETATM    3  C4  UNL     1      65.631  54.876  16.485  1.00  0.00     0.135 C 
BRANCH   3   4
HETATM    4  N1  UNL     1      66.972  54.921  15.888  1.00  0.00    -0.309 N 
HETATM    5  C3  UNL     1      68.050  54.427  16.550  1.00  0.00     0.108 A 
HETATM    6  C2  UNL     1      69.308  54.475  15.981  1.00  0.00     0.022 A 
HETATM    7  C1  UNL     1      70.510  53.939  16.687  1.00  0.00     0.056 C 
HETATM    8  C13 UNL     1      69.408  55.039  14.726  1.00  0.00     0.256 A 
HETATM    9  N6  UNL     1      68.307  55.521  14.095  1.00  0.00    -0.275 N 
HETATM   10  O4  UNL     1      70.550  55.083  14.203  1.00  0.00    -0.267 OA
HETATM   11  C12 UNL     1      67.087  55.468  14.663  1.00  0.00     0.329 A 
ATOM     12  H6  UNL     1      68.405  55.934  13.168  1.00  0.00     0.173 HD
HETATM   13  O3  UNL     1      66.065  55.918  14.074  1.00  0.00    -0.246 OA
ENDBRANCH   3   4
ENDBRANCH   2   3
ENDBRANCH   1   2
BRANCH   1  14
HETATM   14  O1  UNL     1      63.677  52.302  17.856  1.00  0.00    -0.394 OA
ATOM     15  H1  UNL     1      62.795  51.949  17.843  1.00  0.00     0.210 HD
ENDBRANCH   1  14
BRANCH   1  16
HETATM   16  C7  UNL     1      63.155  54.569  17.280  1.00  0.00     0.178 C 
BRANCH  16  17
HETATM   17  N2  UNL     1      62.003  54.993  16.497  1.00  0.00    -0.189 N 
HETATM   18  C8  UNL     1      61.217  54.088  15.902  1.00  0.00     0.114 A 
HETATM   19  C9  UNL     1      60.130  54.493  15.163  1.00  0.00     0.092 A 
HETATM   20  C10 UNL     1      59.876  55.844  15.054  1.00  0.00     0.260 A 
HETATM   21  O2  UNL     1      58.876  56.209  14.373  1.00  0.00    -0.268 OA
HETATM   22  N3  UNL     1      60.675  56.740  15.656  1.00  0.00    -0.154 N 
HETATM   23  C11 UNL     1      61.731  56.304  16.372  1.00  0.00     0.701 A 
ATOM     24  H3  UNL     1      60.485  57.739  15.574  1.00  0.00     0.187 HD
BRANCH  23  25
HETATM   25  N4  UNL     1      62.485  57.204  16.944  1.00  0.00    -0.138 N 
ATOM     26  H4  UNL     1      63.274  56.913  17.523  1.00  0.00     0.205 HD
BRANCH  25  27
HETATM   27  N5  UNL     1      62.219  58.558  16.768  1.00  0.00    -0.331 N 
ATOM     28  H52 UNL     1      62.534  59.218  17.479  1.00  0.00     0.177 HD
ATOM     29  H51 UNL     1      61.718  58.880  15.940  1.00  0.00     0.177 HD
ENDBRANCH  25  27
ENDBRANCH  23  25
ENDBRANCH  16  17
ENDBRANCH   1  16
TORSDOF 8
ENDMDL
MODEL 4
REMARK VINA RESULT: -7.829782537      2.713      3.330
REMARK  8 active torsions:
REMARK  status: ('A' for Active; 'I' for Inactive)
REMARK    1  A    between atoms: N1_4  and  C4_5 
REMARK    2  A    between atoms: C4_5  and  C5_6 
REMARK    3  A    between atoms: C5_6  and  C6_7 
REMARK    4  A    between atoms: C6_7  and  O1_8 
REMARK    5  A    between atoms: C6_7  and  C7_10 
REMARK    6  A    between atoms: C7_10  and  N2_11 
REMARK    7  A    between atoms: C11_18  and  N4_19 
REMARK    8  A    between atoms: N4_19  and  N5_21 
ROOT
HETATM    1  C6  UNL     1      63.066  57.827  19.094  1.00  0.00     0.138 C 
ENDROOT
BRANCH   1   2
HETATM    2  C5  UNL     1      61.942  58.688  18.584  1.00  0.00     0.053 C 
BRANCH   2   3
HETATM    3  C4  UNL     1      62.229  59.356  17.263  1.00  0.00     0.135 C 
BRANCH   3   4
HETATM    4  N1  UNL     1      61.328  58.777  16.259  1.00  0.00    -0.309 N 
HETATM    5  C3  UNL     1      61.024  57.453  16.270  1.00  0.00     0.108 A 
HETATM    6  C2  UNL     1      60.176  56.918  15.320  1.00  0.00     0.022 A 
HETATM    7  C1  UNL     1      59.825  55.466  15.311  1.00  0.00     0.056 C 
HETATM    8  C13 UNL     1      59.663  57.784  14.377  1.00  0.00     0.256 A 
HETATM    9  N6  UNL     1      59.990  59.101  14.399  1.00  0.00    -0.275 N 
HETATM   10  O4  UNL     1      58.890  57.301  13.512  1.00  0.00    -0.267 OA
HETATM   11  C12 UNL     1      60.818  59.609  15.331  1.00  0.00     0.329 A 
ATOM     12  H6  UNL     1      59.598  59.722  13.691  1.00  0.00     0.173 HD
HETATM   13  O3  UNL     1      61.120  60.835  15.347  1.00  0.00    -0.246 OA
ENDBRANCH   3   4
ENDBRANCH   2   3
ENDBRANCH   1   2
BRANCH   1  14
HETATM   14  O1  UNL     1      63.834  58.669  19.934  1.00  0.00    -0.394 OA
ATOM     15  H1  UNL     1      64.407  58.087  20.419  1.00  0.00     0.210 HD
ENDBRANCH   1  14
BRANCH   1  16
HETATM   16  C7  UNL     1      62.495  56.683  19.868  1.00  0.00     0.178 C 
BRANCH  16  17
HETATM   17  N2  UNL     1      62.447  55.452  19.092  1.00  0.00    -0.189 N 
HETATM   18  C8  UNL     1      63.370  55.204  18.155  1.00  0.00     0.114 A 
HETATM   19  C9  UNL     1      63.321  54.040  17.424  1.00  0.00     0.092 A 
HETATM   20  C10 UNL     1      62.305  53.144  17.683  1.00  0.00     0.260 A 
HETATM   21  O2  UNL     1      62.266  52.076  17.008  1.00  0.00    -0.268 OA
HETATM   22  N3  UNL     1      61.386  53.406  18.628  1.00  0.00    -0.154 N 
HETATM   23  C11 UNL     1      61.468  54.559  19.323  1.00  0.00     0.701 A 
ATOM     24  H3  UNL     1      60.637  52.742  18.817  1.00  0.00     0.187 HD
BRANCH  23  25
HETATM   25  N4  UNL     1      60.557  54.781  20.232  1.00  0.00    -0.138 N 
ATOM     26  H4  UNL     1      60.448  55.716  20.624  1.00  0.00     0.205 HD
BRANCH  25  27
HETATM   27  N5  UNL     1      59.736  53.746  20.670  1.00  0.00    -0.331 N 
ATOM     28  H52 UNL     1      59.169  53.246  19.986  1.00  0.00     0.177 HD
ATOM     29  H51 UNL     1      59.705  53.496  21.658  1.00  0.00     0.177 HD
ENDBRANCH  25  27
ENDBRANCH  23  25
ENDBRANCH  16  17
ENDBRANCH   1  16
TORSDOF 8
ENDMDL
MODEL 5
REMARK VINA RESULT: -7.813082066      2.591      5.603
REMARK  8 active torsions:
REMARK  status: ('A' for Active; 'I' for Inactive)
REMARK    1  A    between atoms: N1_4  and  C4_5 
REMARK    2  A    between atoms: C4_5  and  C5_6 
REMARK    3  A    between atoms: C5_6  and  C6_7 
REMARK    4  A    between atoms: C6_7  and  O1_8 
REMARK    5  A    between atoms: C6_7  and  C7_10 
REMARK    6  A    between atoms: C7_10  and  N2_11 
REMARK    7  A    between atoms: C11_18  and  N4_19 
REMARK    8  A    between atoms: N4_19  and  N5_21 
ROOT
HETATM    1  C6  UNL     1      61.062  58.489  18.110  1.00  0.00     0.138 C 
ENDROOT
BRANCH   1   2
HETATM    2  C5  UNL     1      60.183  57.367  17.629  1.00  0.00     0.053 C 
BRANCH   2   3
HETATM    3  C4  UNL     1      59.379  56.705  18.720  1.00  0.00     0.135 C 
BRANCH   3   4
HETATM    4  N1  UNL     1      59.821  55.309  18.824  1.00  0.00    -0.309 N 
HETATM    5  C3  UNL     1      59.628  54.436  17.801  1.00  0.00     0.108 A 
HETATM    6  C2  UNL     1      60.047  53.123  17.908  1.00  0.00     0.022 A 
HETATM    7  C1  UNL     1      59.848  52.143  16.799  1.00  0.00     0.056 C 
HETATM    8  C13 UNL     1      60.662  52.754  19.087  1.00  0.00     0.256 A 
HETATM    9  N6  UNL     1      60.837  53.657  20.086  1.00  0.00    -0.275 N 
HETATM   10  O4  UNL     1      61.046  51.562  19.189  1.00  0.00    -0.267 OA
HETATM   11  C12 UNL     1      60.424  54.932  19.967  1.00  0.00     0.329 A 
ATOM     12  H6  UNL     1      61.295  53.361  20.949  1.00  0.00     0.173 HD
HETATM   13  O3  UNL     1      60.588  55.768  20.899  1.00  0.00    -0.246 OA
ENDBRANCH   3   4
ENDBRANCH   2   3
ENDBRANCH   1   2
BRANCH   1  14
HETATM   14  O1  UNL     1      61.027  58.417  19.523  1.00  0.00    -0.394 OA
ATOM     15  H1  UNL     1      60.125  58.595  19.763  1.00  0.00     0.210 HD
ENDBRANCH   1  14
BRANCH   1  16
HETATM   16  C7  UNL     1      62.451  58.275  17.601  1.00  0.00     0.178 C 
BRANCH  16  17
HETATM   17  N2  UNL     1      62.787  56.865  17.468  1.00  0.00    -0.189 N 
HETATM   18  C8  UNL     1      62.564  56.220  16.317  1.00  0.00     0.114 A 
HETATM   19  C9  UNL     1      62.881  54.887  16.195  1.00  0.00     0.092 A 
HETATM   20  C10 UNL     1      63.432  54.241  17.282  1.00  0.00     0.260 A 
HETATM   21  O2  UNL     1      63.721  53.016  17.163  1.00  0.00    -0.268 OA
HETATM   22  N3  UNL     1      63.650  54.902  18.431  1.00  0.00    -0.154 N 
HETATM   23  C11 UNL     1      63.324  56.208  18.511  1.00  0.00     0.701 A 
ATOM     24  H3  UNL     1      64.056  54.421  19.233  1.00  0.00     0.187 HD
BRANCH  23  25
HETATM   25  N4  UNL     1      63.550  56.818  19.644  1.00  0.00    -0.138 N 
ATOM     26  H4  UNL     1      63.596  57.837  19.672  1.00  0.00     0.205 HD
BRANCH  25  27
HETATM   27  N5  UNL     1      63.729  56.084  20.813  1.00  0.00    -0.331 N 
ATOM     28  H52 UNL     1      62.967  56.044  21.490  1.00  0.00     0.177 HD
ATOM     29  H51 UNL     1      64.608  55.596  20.985  1.00  0.00     0.177 HD
ENDBRANCH  25  27
ENDBRANCH  23  25
ENDBRANCH  16  17
ENDBRANCH   1  16
TORSDOF 8
ENDMDL
