MODEL 1
REMARK VINA RESULT: -10.046405878      0.000      0.000
REMARK  12 active torsions:
REMARK  status: ('A' for Active; 'I' for Inactive)
REMARK    1  A    between atoms: C4_4  and  C5_5 
REMARK    2  A    between atoms: C5_5  and  C6_7 
REMARK    3  A    between atoms: C6_7  and  N1_8 
REMARK    4  A    between atoms: C6_7  and  C7_12 
REMARK       I    between atoms: C7_12  and  N2_14 
REMARK    5  A    between atoms: N2_14  and  C8_16 
REMARK    6  A    between atoms: C8_16  and  C9_17 
REMARK    7  A    between atoms: C8_16  and  C16_24 
REMARK    8  A    between atoms: C9_17  and  C10_18 
REMARK       I    between atoms: C16_24  and  N3_26 
REMARK    9  A    between atoms: N3_26  and  C17_28 
REMARK   10  A    between atoms: C17_28  and  C18_29 
REMARK   11  A    between atoms: C17_28  and  C23_37 
REMARK       I    between atoms: C18_29  and  N4_31 
REMARK   12  A    between atoms: N4_31  and  C19_33 
ROOT
HETATM    1  C8  UNL     1     -10.116  16.297  25.526  1.00  0.00     0.080 C 
ENDROOT
BRANCH   1   2
HETATM    2  N2  UNL     1     -11.096  15.784  26.383  1.00  0.00    -0.324 N 
HETATM    3  C7  UNL     1     -11.034  14.774  27.368  1.00  0.00     0.260 C 
HETATM    4  O2  UNL     1      -9.956  14.180  27.609  1.00  0.00    -0.270 OA
ATOM      5  H2  UNL     1     -12.015  16.214  26.278  1.00  0.00     0.169 HD
BRANCH   3   6
HETATM    6  C6  UNL     1     -12.255  14.357  28.179  1.00  0.00     0.348 C 
BRANCH   6   7
HETATM    7  C5  UNL     1     -12.575  15.463  29.097  1.00  0.00     0.199 C 
HETATM    8  O1  UNL     1     -13.320  16.417  28.674  1.00  0.00    -0.289 OA
BRANCH   7   9
HETATM    9  C4  UNL     1     -12.120  15.581  30.467  1.00  0.00     0.013 A 
HETATM   10  C3  UNL     1     -10.961  16.148  30.894  1.00  0.00     0.022 A 
HETATM   11  C2  UNL     1     -10.532  16.203  32.221  1.00  0.00    -0.053 A 
HETATM   12  C1  UNL     1      -9.221  16.857  32.570  1.00  0.00     0.049 C 
HETATM   13  C28 UNL     1     -11.333  15.644  33.193  1.00  0.00    -0.038 A 
HETATM   14  C27 UNL     1     -12.516  15.060  32.809  1.00  0.00    -0.050 A 
HETATM   15  C29 UNL     1     -11.216  15.508  34.661  1.00  0.00    -0.019 C 
HETATM   16  C26 UNL     1     -12.912  15.022  31.487  1.00  0.00     0.023 A 
HETATM   17  C33 UNL     1     -13.230  14.523  34.002  1.00  0.00     0.040 C 
HETATM   18  C32 UNL     1     -12.681  15.410  35.098  1.00  0.00     0.018 C 
HETATM   19  C30 UNL     1     -10.625  16.701  35.338  1.00  0.00     0.020 C 
HETATM   20  C31 UNL     1     -10.507  14.215  35.002  1.00  0.00     0.020 C 
ENDBRANCH   7   9
ENDBRANCH   6   7
BRANCH   6  21
HETATM   21  N1  UNL     1     -12.001  13.122  28.838  1.00  0.00    -0.059 N 
ATOM     22  H13 UNL     1     -12.586  13.031  29.668  1.00  0.00     0.275 HD
ATOM     23  H12 UNL     1     -12.360  12.341  28.288  1.00  0.00     0.275 HD
ATOM     24  H11 UNL     1     -11.019  12.976  29.072  1.00  0.00     0.275 HD
ENDBRANCH   6  21
ENDBRANCH   3   6
ENDBRANCH   1   2
BRANCH   1  25
HETATM   25  C9  UNL     1     -10.450  16.506  24.125  1.00  0.00     0.067 C 
BRANCH  25  26
HETATM   26  C10 UNL     1      -9.385  16.783  23.117  1.00  0.00    -0.009 C 
HETATM   27  C11 UNL     1      -8.213  15.875  23.070  1.00  0.00     0.005 C 
HETATM   28  C12 UNL     1      -7.657  15.787  21.640  1.00  0.00     0.000 C 
HETATM   29  C13 UNL     1      -7.819  17.152  20.982  1.00  0.00     0.000 C 
HETATM   30  C14 UNL     1      -9.296  17.449  20.746  1.00  0.00     0.000 C 
HETATM   31  C15 UNL     1     -10.099  16.681  21.748  1.00  0.00     0.005 C 
ENDBRANCH  25  26
ENDBRANCH   1  25
BRANCH   1  32
HETATM   32  C16 UNL     1      -9.336  17.483  26.049  1.00  0.00     0.264 C 
HETATM   33  O3  UNL     1      -9.968  18.593  26.032  1.00  0.00    -0.266 OA
HETATM   34  N3  UNL     1      -8.016  17.420  26.525  1.00  0.00    -0.342 N 
ATOM     35  H3  UNL     1      -7.520  16.530  26.532  1.00  0.00     0.163 HD
BRANCH  34  36
HETATM   36  C17 UNL     1      -7.360  18.616  27.007  1.00  0.00     0.180 C 
BRANCH  36  37
HETATM   37  C18 UNL     1      -6.379  19.127  26.021  1.00  0.00     0.241 C 
HETATM   38  O4  UNL     1      -5.851  20.280  26.191  1.00  0.00    -0.271 OA
HETATM   39  N4  UNL     1      -5.969  18.415  24.874  1.00  0.00    -0.351 N 
ATOM     40  H4  UNL     1      -6.386  17.498  24.714  1.00  0.00     0.163 HD
BRANCH  39  41
HETATM   41  C19 UNL     1      -5.015  18.882  23.916  1.00  0.00     0.022 C 
HETATM   42  C20 UNL     1      -3.674  19.206  24.541  1.00  0.00     0.037 C 
HETATM   43  C21 UNL     1      -5.466  20.140  23.197  1.00  0.00     0.037 C 
HETATM   44  C22 UNL     1      -4.779  17.812  22.853  1.00  0.00     0.037 C 
ENDBRANCH  39  41
ENDBRANCH  36  37
BRANCH  36  45
HETATM   45  C23 UNL     1      -6.746  18.437  28.371  1.00  0.00     0.009 C 
HETATM   46  C24 UNL     1      -7.738  17.807  29.341  1.00  0.00     0.012 C 
HETATM   47  C25 UNL     1      -5.450  17.695  28.371  1.00  0.00     0.012 C 
ENDBRANCH  36  45
ENDBRANCH  34  36
ENDBRANCH   1  32
TORSDOF 12
ENDMDL
MODEL 2
REMARK VINA RESULT: -9.922220722      0.389      1.555
REMARK  12 active torsions:
REMARK  status: ('A' for Active; 'I' for Inactive)
REMARK    1  A    between atoms: C4_4  and  C5_5 
REMARK    2  A    between atoms: C5_5  and  C6_7 
REMARK    3  A    between atoms: C6_7  and  N1_8 
REMARK    4  A    between atoms: C6_7  and  C7_12 
REMARK       I    between atoms: C7_12  and  N2_14 
REMARK    5  A    between atoms: N2_14  and  C8_16 
REMARK    6  A    between atoms: C8_16  and  C9_17 
REMARK    7  A    between atoms: C8_16  and  C16_24 
REMARK    8  A    between atoms: C9_17  and  C10_18 
REMARK       I    between atoms: C16_24  and  N3_26 
REMARK    9  A    between atoms: N3_26  and  C17_28 
REMARK   10  A    between atoms: C17_28  and  C18_29 
REMARK   11  A    between atoms: C17_28  and  C23_37 
REMARK       I    between atoms: C18_29  and  N4_31 
REMARK   12  A    between atoms: N4_31  and  C19_33 
ROOT
HETATM    1  C8  UNL     1     -10.229  16.349  25.426  1.00  0.00     0.080 C 
ENDROOT
BRANCH   1   2
HETATM    2  N2  UNL     1     -11.244  15.847  26.249  1.00  0.00    -0.324 N 
HETATM    3  C7  UNL     1     -11.237  14.813  27.209  1.00  0.00     0.260 C 
HETATM    4  O2  UNL     1     -10.185  14.177  27.459  1.00  0.00    -0.270 OA
ATOM      5  H2  UNL     1     -12.146  16.310  26.134  1.00  0.00     0.169 HD
BRANCH   3   6
HETATM    6  C6  UNL     1     -12.489  14.417  27.982  1.00  0.00     0.348 C 
BRANCH   6   7
HETATM    7  C5  UNL     1     -12.710  15.439  29.019  1.00  0.00     0.199 C 
HETATM    8  O1  UNL     1     -13.364  16.497  28.710  1.00  0.00    -0.289 OA
BRANCH   7   9
HETATM    9  C4  UNL     1     -12.250  15.363  30.390  1.00  0.00     0.013 A 
HETATM   10  C3  UNL     1     -12.908  14.806  31.441  1.00  0.00     0.022 A 
HETATM   11  C2  UNL     1     -12.454  14.791  32.761  1.00  0.00    -0.053 A 
HETATM   12  C1  UNL     1     -13.279  14.143  33.842  1.00  0.00     0.049 C 
HETATM   13  C28 UNL     1     -11.243  15.384  33.044  1.00  0.00    -0.038 A 
HETATM   14  C27 UNL     1     -10.540  15.959  32.014  1.00  0.00    -0.050 A 
HETATM   15  C29 UNL     1     -10.459  15.566  34.285  1.00  0.00    -0.019 C 
HETATM   16  C26 UNL     1     -11.017  15.957  30.717  1.00  0.00     0.023 A 
HETATM   17  C33 UNL     1      -9.265  16.537  32.526  1.00  0.00     0.040 C 
HETATM   18  C32 UNL     1      -9.027  15.683  33.753  1.00  0.00     0.018 C 
HETATM   19  C30 UNL     1     -10.499  14.393  35.208  1.00  0.00     0.020 C 
HETATM   20  C31 UNL     1     -10.850  16.867  34.953  1.00  0.00     0.020 C 
ENDBRANCH   7   9
ENDBRANCH   6   7
BRANCH   6  21
HETATM   21  N1  UNL     1     -12.343  13.099  28.500  1.00  0.00    -0.059 N 
ATOM     22  H13 UNL     1     -11.667  13.086  29.264  1.00  0.00     0.275 HD
ATOM     23  H12 UNL     1     -13.181  12.818  29.009  1.00  0.00     0.275 HD
ATOM     24  H11 UNL     1     -12.100  12.405  27.793  1.00  0.00     0.275 HD
ENDBRANCH   6  21
ENDBRANCH   3   6
ENDBRANCH   1   2
BRANCH   1  25
HETATM   25  C9  UNL     1     -10.516  16.577  24.018  1.00  0.00     0.067 C 
BRANCH  25  26
HETATM   26  C10 UNL     1      -9.415  16.824  23.042  1.00  0.00    -0.009 C 
HETATM   27  C11 UNL     1      -8.240  15.919  23.068  1.00  0.00     0.005 C 
HETATM   28  C12 UNL     1      -7.631  15.787  21.663  1.00  0.00     0.000 C 
HETATM   29  C13 UNL     1      -7.771  17.129  20.955  1.00  0.00     0.000 C 
HETATM   30  C14 UNL     1      -9.239  17.414  20.655  1.00  0.00     0.000 C 
HETATM   31  C15 UNL     1     -10.077  16.676  21.651  1.00  0.00     0.005 C 
ENDBRANCH  25  26
ENDBRANCH   1  25
BRANCH   1  32
HETATM   32  C16 UNL     1      -9.442  17.514  25.983  1.00  0.00     0.264 C 
HETATM   33  O3  UNL     1     -10.039  18.642  25.929  1.00  0.00    -0.266 OA
HETATM   34  N3  UNL     1      -8.151  17.415  26.528  1.00  0.00    -0.342 N 
ATOM     35  H3  UNL     1      -7.682  16.511  26.564  1.00  0.00     0.163 HD
BRANCH  34  36
HETATM   36  C17 UNL     1      -7.485  18.594  27.037  1.00  0.00     0.180 C 
BRANCH  36  37
HETATM   37  C18 UNL     1      -6.486  19.109  26.072  1.00  0.00     0.241 C 
HETATM   38  O4  UNL     1      -5.952  20.255  26.262  1.00  0.00    -0.271 OA
HETATM   39  N4  UNL     1      -6.065  18.407  24.922  1.00  0.00    -0.351 N 
ATOM     40  H4  UNL     1      -6.486  17.495  24.746  1.00  0.00     0.163 HD
BRANCH  39  41
HETATM   41  C19 UNL     1      -5.093  18.878  23.984  1.00  0.00     0.022 C 
HETATM   42  C20 UNL     1      -3.787  19.268  24.645  1.00  0.00     0.037 C 
HETATM   43  C21 UNL     1      -5.560  20.096  23.209  1.00  0.00     0.037 C 
HETATM   44  C22 UNL     1      -4.783  17.784  22.965  1.00  0.00     0.037 C 
ENDBRANCH  39  41
ENDBRANCH  36  37
BRANCH  36  45
HETATM   45  C23 UNL     1      -6.890  18.384  28.405  1.00  0.00     0.009 C 
HETATM   46  C24 UNL     1      -7.869  17.667  29.326  1.00  0.00     0.012 C 
HETATM   47  C25 UNL     1      -5.560  17.704  28.401  1.00  0.00     0.012 C 
ENDBRANCH  36  45
ENDBRANCH  34  36
ENDBRANCH   1  32
TORSDOF 12
ENDMDL
MODEL 3
REMARK VINA RESULT: -9.809058244      1.863      4.876
REMARK  12 active torsions:
REMARK  status: ('A' for Active; 'I' for Inactive)
REMARK    1  A    between atoms: C4_4  and  C5_5 
REMARK    2  A    between atoms: C5_5  and  C6_7 
REMARK    3  A    between atoms: C6_7  and  N1_8 
REMARK    4  A    between atoms: C6_7  and  C7_12 
REMARK       I    between atoms: C7_12  and  N2_14 
REMARK    5  A    between atoms: N2_14  and  C8_16 
REMARK    6  A    between atoms: C8_16  and  C9_17 
REMARK    7  A    between atoms: C8_16  and  C16_24 
REMARK    8  A    between atoms: C9_17  and  C10_18 
REMARK       I    between atoms: C16_24  and  N3_26 
REMARK    9  A    between atoms: N3_26  and  C17_28 
REMARK   10  A    between atoms: C17_28  and  C18_29 
REMARK   11  A    between atoms: C17_28  and  C23_37 
REMARK       I    between atoms: C18_29  and  N4_31 
REMARK   12  A    between atoms: N4_31  and  C19_33 
ROOT
HETATM    1  C8  UNL     1      -9.979  15.310  27.045  1.00  0.00     0.080 C 
ENDROOT
BRANCH   1   2
HETATM    2  N2  UNL     1      -9.652  16.129  28.133  1.00  0.00    -0.324 N 
HETATM    3  C7  UNL     1      -8.583  16.070  29.052  1.00  0.00     0.260 C 
HETATM    4  O2  UNL     1      -7.707  15.178  28.961  1.00  0.00    -0.270 OA
ATOM      5  H2  UNL     1     -10.299  16.902  28.287  1.00  0.00     0.169 HD
BRANCH   3   6
HETATM    6  C6  UNL     1      -8.438  17.073  30.191  1.00  0.00     0.348 C 
BRANCH   6   7
HETATM    7  C5  UNL     1      -9.758  17.213  30.828  1.00  0.00     0.199 C 
HETATM    8  O1  UNL     1     -10.615  18.008  30.302  1.00  0.00    -0.289 OA
BRANCH   7   9
HETATM    9  C4  UNL     1     -10.195  16.521  32.024  1.00  0.00     0.013 A 
HETATM   10  C3  UNL     1     -11.130  15.537  32.100  1.00  0.00     0.022 A 
HETATM   11  C2  UNL     1     -11.560  14.923  33.277  1.00  0.00    -0.053 A 
HETATM   12  C1  UNL     1     -12.609  13.843  33.232  1.00  0.00     0.049 C 
HETATM   13  C28 UNL     1     -11.006  15.332  34.470  1.00  0.00    -0.038 A 
HETATM   14  C27 UNL     1     -10.055  16.324  34.444  1.00  0.00    -0.050 A 
HETATM   15  C29 UNL     1     -11.205  14.933  35.880  1.00  0.00    -0.019 C 
HETATM   16  C26 UNL     1      -9.651  16.912  33.261  1.00  0.00     0.023 A 
HETATM   17  C33 UNL     1      -9.583  16.615  35.827  1.00  0.00     0.040 C 
HETATM   18  C32 UNL     1      -9.859  15.296  36.516  1.00  0.00     0.018 C 
HETATM   19  C30 UNL     1     -11.411  13.466  36.075  1.00  0.00     0.020 C 
HETATM   20  C31 UNL     1     -12.294  15.778  36.505  1.00  0.00     0.020 C 
ENDBRANCH   7   9
ENDBRANCH   6   7
BRANCH   6  21
HETATM   21  N1  UNL     1      -7.910  18.298  29.695  1.00  0.00    -0.059 N 
ATOM     22  H13 UNL     1      -8.449  19.090  30.045  1.00  0.00     0.275 HD
ATOM     23  H12 UNL     1      -7.007  18.501  30.125  1.00  0.00     0.275 HD
ATOM     24  H11 UNL     1      -7.840  18.333  28.678  1.00  0.00     0.275 HD
ENDBRANCH   6  21
ENDBRANCH   3   6
ENDBRANCH   1   2
BRANCH   1  25
HETATM   25  C9  UNL     1     -11.379  15.157  26.679  1.00  0.00     0.067 C 
BRANCH  25  26
HETATM   26  C10 UNL     1     -12.350  14.518  27.614  1.00  0.00    -0.009 C 
HETATM   27  C11 UNL     1     -11.944  13.265  28.296  1.00  0.00     0.005 C 
HETATM   28  C12 UNL     1     -12.616  13.159  29.673  1.00  0.00     0.000 C 
HETATM   29  C13 UNL     1     -14.010  13.767  29.571  1.00  0.00     0.000 C 
HETATM   30  C14 UNL     1     -13.911  15.274  29.364  1.00  0.00     0.000 C 
HETATM   31  C15 UNL     1     -12.599  15.578  28.714  1.00  0.00     0.005 C 
ENDBRANCH  25  26
ENDBRANCH   1  25
BRANCH   1  32
HETATM   32  C16 UNL     1      -9.141  15.499  25.801  1.00  0.00     0.264 C 
HETATM   33  O3  UNL     1      -8.108  14.749  25.728  1.00  0.00    -0.266 OA
HETATM   34  N3  UNL     1      -9.431  16.415  24.776  1.00  0.00    -0.342 N 
ATOM     35  H3  UNL     1     -10.256  17.010  24.845  1.00  0.00     0.163 HD
BRANCH  34  36
HETATM   36  C17 UNL     1      -8.564  16.515  23.623  1.00  0.00     0.180 C 
BRANCH  36  37
HETATM   37  C18 UNL     1      -7.441  17.450  23.872  1.00  0.00     0.241 C 
HETATM   38  O4  UNL     1      -7.550  18.677  23.530  1.00  0.00    -0.271 OA
HETATM   39  N4  UNL     1      -6.223  17.076  24.479  1.00  0.00    -0.351 N 
ATOM     40  H4  UNL     1      -6.112  16.100  24.751  1.00  0.00     0.163 HD
BRANCH  39  41
HETATM   41  C19 UNL     1      -5.132  17.963  24.742  1.00  0.00     0.022 C 
HETATM   42  C20 UNL     1      -5.548  19.175  25.550  1.00  0.00     0.037 C 
HETATM   43  C21 UNL     1      -4.485  18.495  23.477  1.00  0.00     0.037 C 
HETATM   44  C22 UNL     1      -4.049  17.234  25.533  1.00  0.00     0.037 C 
ENDBRANCH  39  41
ENDBRANCH  36  37
BRANCH  36  45
HETATM   45  C23 UNL     1      -9.308  16.854  22.359  1.00  0.00     0.009 C 
HETATM   46  C24 UNL     1      -8.529  16.413  21.127  1.00  0.00     0.012 C 
HETATM   47  C25 UNL     1     -10.713  16.347  22.316  1.00  0.00     0.012 C 
ENDBRANCH  36  45
ENDBRANCH  34  36
ENDBRANCH   1  32
TORSDOF 12
ENDMDL
MODEL 4
REMARK VINA RESULT: -9.739008127      1.710     10.090
REMARK  12 active torsions:
REMARK  status: ('A' for Active; 'I' for Inactive)
REMARK    1  A    between atoms: C4_4  and  C5_5 
REMARK    2  A    between atoms: C5_5  and  C6_7 
REMARK    3  A    between atoms: C6_7  and  N1_8 
REMARK    4  A    between atoms: C6_7  and  C7_12 
REMARK       I    between atoms: C7_12  and  N2_14 
REMARK    5  A    between atoms: N2_14  and  C8_16 
REMARK    6  A    between atoms: C8_16  and  C9_17 
REMARK    7  A    between atoms: C8_16  and  C16_24 
REMARK    8  A    between atoms: C9_17  and  C10_18 
REMARK       I    between atoms: C16_24  and  N3_26 
REMARK    9  A    between atoms: N3_26  and  C17_28 
REMARK   10  A    between atoms: C17_28  and  C18_29 
REMARK   11  A    between atoms: C17_28  and  C23_37 
REMARK       I    between atoms: C18_29  and  N4_31 
REMARK   12  A    between atoms: N4_31  and  C19_33 
ROOT
HETATM    1  C8  UNL     1      -9.027  17.012  30.501  1.00  0.00     0.080 C 
ENDROOT
BRANCH   1   2
HETATM    2  N2  UNL     1      -8.156  17.702  29.651  1.00  0.00    -0.324 N 
HETATM    3  C7  UNL     1      -7.261  17.241  28.661  1.00  0.00     0.260 C 
HETATM    4  O2  UNL     1      -7.162  16.016  28.408  1.00  0.00    -0.270 OA
ATOM      5  H2  UNL     1      -8.170  18.716  29.766  1.00  0.00     0.169 HD
BRANCH   3   6
HETATM    6  C6  UNL     1      -6.379  18.191  27.861  1.00  0.00     0.348 C 
BRANCH   6   7
HETATM    7  C5  UNL     1      -7.222  18.812  26.826  1.00  0.00     0.199 C 
HETATM    8  O1  UNL     1      -7.891  19.863  27.127  1.00  0.00    -0.289 OA
BRANCH   7   9
HETATM    9  C4  UNL     1      -7.373  18.340  25.465  1.00  0.00     0.013 A 
HETATM   10  C3  UNL     1      -6.550  18.603  24.415  1.00  0.00     0.022 A 
HETATM   11  C2  UNL     1      -6.751  18.168  23.104  1.00  0.00    -0.053 A 
HETATM   12  C1  UNL     1      -5.766  18.529  22.024  1.00  0.00     0.049 C 
HETATM   13  C28 UNL     1      -7.868  17.410  22.830  1.00  0.00    -0.038 A 
HETATM   14  C27 UNL     1      -8.729  17.117  23.859  1.00  0.00    -0.050 A 
HETATM   15  C29 UNL     1      -8.406  16.790  21.599  1.00  0.00    -0.019 C 
HETATM   16  C26 UNL     1      -8.502  17.563  25.147  1.00  0.00     0.023 A 
HETATM   17  C33 UNL     1      -9.863  16.290  23.356  1.00  0.00     0.040 C 
HETATM   18  C32 UNL     1      -9.231  15.624  22.153  1.00  0.00     0.018 C 
HETATM   19  C30 UNL     1      -7.362  16.213  20.701  1.00  0.00     0.020 C 
HETATM   20  C31 UNL     1      -9.329  17.762  20.895  1.00  0.00     0.020 C 
ENDBRANCH   7   9
ENDBRANCH   6   7
BRANCH   6  21
HETATM   21  N1  UNL     1      -5.258  17.487  27.338  1.00  0.00    -0.059 N 
ATOM     22  H13 UNL     1      -5.133  17.694  26.347  1.00  0.00     0.275 HD
ATOM     23  H12 UNL     1      -4.387  17.874  27.704  1.00  0.00     0.275 HD
ATOM     24  H11 UNL     1      -5.297  16.480  27.493  1.00  0.00     0.275 HD
ENDBRANCH   6  21
ENDBRANCH   3   6
ENDBRANCH   1   2
BRANCH   1  25
HETATM   25  C9  UNL     1      -9.060  17.369  31.911  1.00  0.00     0.067 C 
BRANCH  25  26
HETATM   26  C10 UNL     1      -9.855  16.566  32.886  1.00  0.00    -0.009 C 
HETATM   27  C11 UNL     1      -9.640  15.099  32.924  1.00  0.00     0.005 C 
HETATM   28  C12 UNL     1      -9.880  14.555  34.341  1.00  0.00     0.000 C 
HETATM   29  C13 UNL     1     -11.010  15.358  34.973  1.00  0.00     0.000 C 
HETATM   30  C14 UNL     1     -10.552  16.788  35.239  1.00  0.00     0.000 C 
HETATM   31  C15 UNL     1      -9.459  17.122  34.275  1.00  0.00     0.005 C 
ENDBRANCH  25  26
ENDBRANCH   1  25
BRANCH   1  32
HETATM   32  C16 UNL     1     -10.437  16.819  29.987  1.00  0.00     0.264 C 
HETATM   33  O3  UNL     1     -11.155  17.876  29.978  1.00  0.00    -0.266 OA
HETATM   34  N3  UNL     1     -10.963  15.594  29.546  1.00  0.00    -0.342 N 
ATOM     35  H3  UNL     1     -10.383  14.756  29.560  1.00  0.00     0.163 HD
BRANCH  34  36
HETATM   36  C17 UNL     1     -12.327  15.518  29.071  1.00  0.00     0.180 C 
BRANCH  36  37
HETATM   37  C18 UNL     1     -13.223  14.930  30.094  1.00  0.00     0.241 C 
HETATM   38  O4  UNL     1     -14.491  15.013  29.950  1.00  0.00    -0.271 OA
HETATM   39  N4  UNL     1     -12.768  14.264  31.252  1.00  0.00    -0.351 N 
ATOM     40  H4  UNL     1     -11.760  14.196  31.391  1.00  0.00     0.163 HD
BRANCH  39  41
HETATM   41  C19 UNL     1     -13.613  13.678  32.246  1.00  0.00     0.022 C 
HETATM   42  C20 UNL     1     -12.844  12.825  33.234  1.00  0.00     0.037 C 
HETATM   43  C21 UNL     1     -14.689  12.785  31.656  1.00  0.00     0.037 C 
HETATM   44  C22 UNL     1     -14.320  14.774  33.040  1.00  0.00     0.037 C 
ENDBRANCH  39  41
ENDBRANCH  36  37
BRANCH  36  45
HETATM   45  C23 UNL     1     -12.446  14.812  27.746  1.00  0.00     0.009 C 
HETATM   46  C24 UNL     1     -11.661  15.540  26.663  1.00  0.00     0.012 C 
HETATM   47  C25 UNL     1     -12.090  13.362  27.786  1.00  0.00     0.012 C 
ENDBRANCH  36  45
ENDBRANCH  34  36
ENDBRANCH   1  32
TORSDOF 12
ENDMDL
MODEL 5
REMARK VINA RESULT: -9.736281420      1.861      4.698
REMARK  12 active torsions:
REMARK  status: ('A' for Active; 'I' for Inactive)
REMARK    1  A    between atoms: C4_4  and  C5_5 
REMARK    2  A    between atoms: C5_5  and  C6_7 
REMARK    3  A    between atoms: C6_7  and  N1_8 
REMARK    4  A    between atoms: C6_7  and  C7_12 
REMARK       I    between atoms: C7_12  and  N2_14 
REMARK    5  A    between atoms: N2_14  and  C8_16 
REMARK    6  A    between atoms: C8_16  and  C9_17 
REMARK    7  A    between atoms: C8_16  and  C16_24 
REMARK    8  A    between atoms: C9_17  and  C10_18 
REMARK       I    between atoms: C16_24  and  N3_26 
REMARK    9  A    between atoms: N3_26  and  C17_28 
REMARK   10  A    between atoms: C17_28  and  C18_29 
REMARK   11  A    between atoms: C17_28  and  C23_37 
REMARK       I    between atoms: C18_29  and  N4_31 
REMARK   12  A    between atoms: N4_31  and  C19_33 
ROOT
HETATM    1  C8  UNL     1      -9.912  15.333  27.027  1.00  0.00     0.080 C 
ENDROOT
BRANCH   1   2
HETATM    2  N2  UNL     1      -9.581  16.165  28.102  1.00  0.00    -0.324 N 
HETATM    3  C7  UNL     1      -8.640  16.010  29.142  1.00  0.00     0.260 C 
HETATM    4  O2  UNL     1      -7.909  14.992  29.199  1.00  0.00    -0.270 OA
ATOM      5  H2  UNL     1     -10.111  17.036  28.140  1.00  0.00     0.169 HD
BRANCH   3   6
HETATM    6  C6  UNL     1      -8.463  17.055  30.237  1.00  0.00     0.348 C 
BRANCH   6   7
HETATM    7  C5  UNL     1      -9.781  17.274  30.857  1.00  0.00     0.199 C 
HETATM    8  O1  UNL     1     -10.619  18.041  30.264  1.00  0.00    -0.289 OA
BRANCH   7   9
HETATM    9  C4  UNL     1     -10.234  16.692  32.103  1.00  0.00     0.013 A 
HETATM   10  C3  UNL     1      -9.702  16.893  33.337  1.00  0.00     0.022 A 
HETATM   11  C2  UNL     1     -10.137  16.278  34.513  1.00  0.00    -0.053 A 
HETATM   12  C1  UNL     1      -9.461  16.581  35.824  1.00  0.00     0.049 C 
HETATM   13  C28 UNL     1     -11.189  15.393  34.438  1.00  0.00    -0.038 A 
HETATM   14  C27 UNL     1     -11.762  15.158  33.212  1.00  0.00    -0.050 A 
HETATM   15  C29 UNL     1     -11.905  14.569  35.437  1.00  0.00    -0.019 C 
HETATM   16  C26 UNL     1     -11.308  15.783  32.066  1.00  0.00     0.023 A 
HETATM   17  C33 UNL     1     -12.878  14.180  33.348  1.00  0.00     0.040 C 
HETATM   18  C32 UNL     1     -13.283  14.394  34.790  1.00  0.00     0.018 C 
HETATM   19  C30 UNL     1     -12.110  15.247  36.752  1.00  0.00     0.020 C 
HETATM   20  C31 UNL     1     -11.238  13.216  35.559  1.00  0.00     0.020 C 
ENDBRANCH   7   9
ENDBRANCH   6   7
BRANCH   6  21
HETATM   21  N1  UNL     1      -7.884  18.236  29.693  1.00  0.00    -0.059 N 
ATOM     22  H13 UNL     1      -8.608  18.868  29.352  1.00  0.00     0.275 HD
ATOM     23  H12 UNL     1      -7.485  18.815  30.432  1.00  0.00     0.275 HD
ATOM     24  H11 UNL     1      -7.192  18.055  28.965  1.00  0.00     0.275 HD
ENDBRANCH   6  21
ENDBRANCH   3   6
ENDBRANCH   1   2
BRANCH   1  25
HETATM   25  C9  UNL     1     -11.315  15.161  26.680  1.00  0.00     0.067 C 
BRANCH  25  26
HETATM   26  C10 UNL     1     -12.266  14.516  27.631  1.00  0.00    -0.009 C 
HETATM   27  C11 UNL     1     -11.809  13.316  28.372  1.00  0.00     0.005 C 
HETATM   28  C12 UNL     1     -12.493  13.237  29.746  1.00  0.00     0.000 C 
HETATM   29  C13 UNL     1     -13.913  13.770  29.601  1.00  0.00     0.000 C 
HETATM   30  C14 UNL     1     -13.886  15.270  29.329  1.00  0.00     0.000 C 
HETATM   31  C15 UNL     1     -12.581  15.610  28.680  1.00  0.00     0.005 C 
ENDBRANCH  25  26
ENDBRANCH   1  25
BRANCH   1  32
HETATM   32  C16 UNL     1      -9.093  15.518  25.769  1.00  0.00     0.264 C 
HETATM   33  O3  UNL     1      -8.061  14.768  25.683  1.00  0.00    -0.266 OA
HETATM   34  N3  UNL     1      -9.398  16.431  24.747  1.00  0.00    -0.342 N 
ATOM     35  H3  UNL     1     -10.221  17.027  24.826  1.00  0.00     0.163 HD
BRANCH  34  36
HETATM   36  C17 UNL     1      -8.547  16.529  23.581  1.00  0.00     0.180 C 
BRANCH  36  37
HETATM   37  C18 UNL     1      -7.423  17.467  23.810  1.00  0.00     0.241 C 
HETATM   38  O4  UNL     1      -7.535  18.690  23.450  1.00  0.00    -0.271 OA
HETATM   39  N4  UNL     1      -6.202  17.103  24.415  1.00  0.00    -0.351 N 
ATOM     40  H4  UNL     1      -6.089  16.131  24.701  1.00  0.00     0.163 HD
BRANCH  39  41
HETATM   41  C19 UNL     1      -5.110  17.994  24.659  1.00  0.00     0.022 C 
HETATM   42  C20 UNL     1      -5.504  19.178  25.518  1.00  0.00     0.037 C 
HETATM   43  C21 UNL     1      -4.520  18.569  23.384  1.00  0.00     0.037 C 
HETATM   44  C22 UNL     1      -3.988  17.255  25.384  1.00  0.00     0.037 C 
ENDBRANCH  39  41
ENDBRANCH  36  37
BRANCH  36  45
HETATM   45  C23 UNL     1      -9.310  16.860  22.326  1.00  0.00     0.009 C 
HETATM   46  C24 UNL     1      -8.537  16.435  21.084  1.00  0.00     0.012 C 
HETATM   47  C25 UNL     1     -10.707  16.331  22.296  1.00  0.00     0.012 C 
ENDBRANCH  36  45
ENDBRANCH  34  36
ENDBRANCH   1  32
TORSDOF 12
ENDMDL
