MODEL 1
REMARK VINA RESULT: -9.520987158      0.000      0.000
REMARK  10 active torsions:
REMARK  status: ('A' for Active; 'I' for Inactive)
REMARK    1  A    between atoms: C2_2  and  C4_4 
REMARK    2  A    between atoms: C4_4  and  N1_5 
REMARK    3  A    between atoms: C4_4  and  C8_12 
REMARK       I    between atoms: N1_5  and  C5_7 
REMARK       I    between atoms: C5_7  and  N2_9 
REMARK       I    between atoms: C8_12  and  N3_14 
REMARK    4  A    between atoms: C12_18  and  C13_19 
REMARK    5  A    between atoms: C13_19  and  C14_20 
REMARK    6  A    between atoms: C20_26  and  C21_27 
REMARK       I    between atoms: C21_27  and  N4_29 
REMARK    7  A    between atoms: N4_29  and  C22_31 
REMARK    8  A    between atoms: C22_31  and  C23_32 
REMARK    9  A    between atoms: C22_31  and  C29_41 
REMARK   10  A    between atoms: C23_32  and  C24_33 
ROOT
HETATM    1  C8  UNL     1      -8.457  16.685  25.150  1.00  0.00     0.243 C 
HETATM    2  O2  UNL     1      -8.154  15.461  24.933  1.00  0.00    -0.271 OA
HETATM    3  N3  UNL     1      -8.019  17.248  26.393  1.00  0.00    -0.337 N 
HETATM    4  C9  UNL     1      -8.284  18.634  26.697  1.00  0.00     0.127 C 
HETATM    5  C10 UNL     1      -7.015  19.262  27.219  1.00  0.00     0.020 C 
HETATM    6  C11 UNL     1      -6.430  18.437  28.365  1.00  0.00     0.009 C 
HETATM    7  C12 UNL     1      -6.067  17.070  27.926  1.00  0.00     0.018 C 
HETATM    8  C20 UNL     1      -7.333  16.422  27.327  1.00  0.00     0.183 C 
ENDROOT
BRANCH   8   9
HETATM    9  C21 UNL     1      -8.177  15.815  28.366  1.00  0.00     0.241 C 
HETATM   10  O3  UNL     1      -7.880  14.684  28.817  1.00  0.00    -0.271 OA
HETATM   11  N4  UNL     1      -9.324  16.457  28.885  1.00  0.00    -0.348 N 
ATOM     12  H4  UNL     1      -9.579  17.378  28.526  1.00  0.00     0.163 HD
BRANCH  11  13
HETATM   13  C22 UNL     1     -10.159  15.844  29.922  1.00  0.00     0.152 C 
BRANCH  13  14
HETATM   14  C23 UNL     1     -10.064  16.599  31.215  1.00  0.00     0.037 C 
BRANCH  14  15
HETATM   15  C24 UNL     1      -8.971  16.160  32.129  1.00  0.00    -0.009 C 
HETATM   16  C25 UNL     1      -9.094  14.755  32.623  1.00  0.00     0.032 C 
HETATM   17  C26 UNL     1     -10.364  14.525  33.414  1.00  0.00     0.232 C 
HETATM   18  N5  UNL     1     -10.321  15.366  34.572  1.00  0.00    -0.075 N 
HETATM   19  C27 UNL     1     -10.228  16.757  34.209  1.00  0.00     0.232 C 
ATOM     20  H52 UNL     1     -11.114  15.193  35.190  1.00  0.00     0.277 HD
ATOM     21  H51 UNL     1      -9.567  15.093  35.204  1.00  0.00     0.277 HD
HETATM   22  C28 UNL     1      -9.024  17.065  33.356  1.00  0.00     0.032 C 
ENDBRANCH  14  15
ENDBRANCH  13  14
BRANCH  13  23
HETATM   23  C29 UNL     1     -11.583  15.831  29.492  1.00  0.00     0.104 A 
HETATM   24  N6  UNL     1     -12.496  14.945  29.893  1.00  0.00    -0.353 N 
HETATM   25  C30 UNL     1     -13.669  15.236  29.309  1.00  0.00     0.106 A 
ATOM     26  H6  UNL     1     -12.330  14.173  30.538  1.00  0.00     0.166 HD
HETATM   27  C31 UNL     1     -13.456  16.343  28.522  1.00  0.00     0.106 A 
HETATM   28  N7  UNL     1     -12.181  16.704  28.635  1.00  0.00    -0.353 N 
ATOM     29  H7  UNL     1     -11.733  17.491  28.166  1.00  0.00     0.166 HD
ENDBRANCH  13  23
ENDBRANCH  11  13
ENDBRANCH   8   9
BRANCH   7  30
HETATM   30  C13 UNL     1      -4.943  16.989  26.989  1.00  0.00     0.012 C 
BRANCH  30  31
HETATM   31  C14 UNL     1      -4.770  17.926  25.885  1.00  0.00    -0.014 C 
HETATM   32  C15 UNL     1      -5.156  17.600  24.510  1.00  0.00     0.005 C 
HETATM   33  C16 UNL     1      -4.264  18.323  23.471  1.00  0.00     0.000 C 
HETATM   34  C17 UNL     1      -2.873  17.738  23.506  1.00  0.00     0.000 C 
HETATM   35  C18 UNL     1      -2.497  17.460  24.947  1.00  0.00     0.000 C 
HETATM   36  C19 UNL     1      -3.283  18.353  25.886  1.00  0.00     0.005 C 
ENDBRANCH  30  31
ENDBRANCH   7  30
BRANCH   1  37
HETATM   37  C4  UNL     1      -9.213  17.393  24.116  1.00  0.00     0.181 C 
BRANCH  37  38
HETATM   38  C2  UNL     1     -10.681  16.946  24.059  1.00  0.00     0.009 C 
HETATM   39  C1  UNL     1     -10.916  16.008  22.918  1.00  0.00     0.012 C 
HETATM   40  C3  UNL     1     -11.020  16.173  25.333  1.00  0.00     0.012 C 
ENDBRANCH  37  38
BRANCH  37  41
HETATM   41  N1  UNL     1      -8.675  17.049  22.794  1.00  0.00    -0.329 N 
HETATM   42  C5  UNL     1      -7.871  17.915  22.023  1.00  0.00     0.318 C 
HETATM   43  O1  UNL     1      -7.591  19.056  22.487  1.00  0.00    -0.247 OA
HETATM   44  N2  UNL     1      -7.406  17.478  20.758  1.00  0.00    -0.343 N 
HETATM   45  C6  UNL     1      -7.738  16.177  20.246  1.00  0.00     0.154 C 
HETATM   46  C7  UNL     1      -6.579  18.387  19.992  1.00  0.00     0.154 C 
ATOM     47  H1  UNL     1      -8.895  16.129  22.411  1.00  0.00     0.165 HD
ENDBRANCH  37  41
ENDBRANCH   1  37
TORSDOF 10
ENDMDL
MODEL 2
REMARK VINA RESULT: -9.482172424      2.435      9.865
REMARK  10 active torsions:
REMARK  status: ('A' for Active; 'I' for Inactive)
REMARK    1  A    between atoms: C2_2  and  C4_4 
REMARK    2  A    between atoms: C4_4  and  N1_5 
REMARK    3  A    between atoms: C4_4  and  C8_12 
REMARK       I    between atoms: N1_5  and  C5_7 
REMARK       I    between atoms: C5_7  and  N2_9 
REMARK       I    between atoms: C8_12  and  N3_14 
REMARK    4  A    between atoms: C12_18  and  C13_19 
REMARK    5  A    between atoms: C13_19  and  C14_20 
REMARK    6  A    between atoms: C20_26  and  C21_27 
REMARK       I    between atoms: C21_27  and  N4_29 
REMARK    7  A    between atoms: N4_29  and  C22_31 
REMARK    8  A    between atoms: C22_31  and  C23_32 
REMARK    9  A    between atoms: C22_31  and  C29_41 
REMARK   10  A    between atoms: C23_32  and  C24_33 
ROOT
HETATM    1  C8  UNL     1     -10.311  15.507  30.874  1.00  0.00     0.243 C 
HETATM    2  O2  UNL     1      -9.434  14.619  31.157  1.00  0.00    -0.271 OA
HETATM    3  N3  UNL     1     -10.909  15.431  29.574  1.00  0.00    -0.337 N 
HETATM    4  C9  UNL     1     -11.936  16.370  29.191  1.00  0.00     0.127 C 
HETATM    5  C10 UNL     1     -13.075  15.607  28.562  1.00  0.00     0.020 C 
HETATM    6  C11 UNL     1     -12.568  14.694  27.445  1.00  0.00     0.009 C 
HETATM    7  C12 UNL     1     -11.619  13.679  27.957  1.00  0.00     0.018 C 
HETATM    8  C20 UNL     1     -10.471  14.429  28.664  1.00  0.00     0.183 C 
ENDROOT
BRANCH   8   9
HETATM    9  C21 UNL     1      -9.433  14.855  27.715  1.00  0.00     0.241 C 
HETATM   10  O3  UNL     1      -8.378  14.185  27.616  1.00  0.00    -0.271 OA
HETATM   11  N4  UNL     1      -9.573  16.000  26.899  1.00  0.00    -0.348 N 
ATOM     12  H4  UNL     1     -10.426  16.556  26.970  1.00  0.00     0.163 HD
BRANCH  11  13
HETATM   13  C22 UNL     1      -8.532  16.416  25.954  1.00  0.00     0.152 C 
BRANCH  13  14
HETATM   14  C23 UNL     1      -9.123  16.823  24.636  1.00  0.00     0.037 C 
BRANCH  14  15
HETATM   15  C24 UNL     1      -9.369  15.709  23.678  1.00  0.00    -0.009 C 
HETATM   16  C25 UNL     1      -8.143  15.166  23.020  1.00  0.00     0.032 C 
HETATM   17  C26 UNL     1      -7.410  16.210  22.204  1.00  0.00     0.232 C 
HETATM   18  N5  UNL     1      -8.282  16.644  21.155  1.00  0.00    -0.075 N 
HETATM   19  C27 UNL     1      -9.496  17.214  21.683  1.00  0.00     0.232 C 
ATOM     20  H52 UNL     1      -7.811  17.289  20.521  1.00  0.00     0.277 HD
ATOM     21  H51 UNL     1      -8.479  15.890  20.496  1.00  0.00     0.277 HD
HETATM   22  C28 UNL     1     -10.258  16.261  22.568  1.00  0.00     0.032 C 
ENDBRANCH  14  15
ENDBRANCH  13  14
BRANCH  13  23
HETATM   23  C29 UNL     1      -7.774  17.572  26.503  1.00  0.00     0.104 A 
HETATM   24  N6  UNL     1      -6.782  17.485  27.392  1.00  0.00    -0.353 N 
HETATM   25  C30 UNL     1      -6.329  18.720  27.659  1.00  0.00     0.106 A 
ATOM     26  H6  UNL     1      -6.426  16.621  27.801  1.00  0.00     0.166 HD
HETATM   27  C31 UNL     1      -7.078  19.589  26.901  1.00  0.00     0.106 A 
HETATM   28  N7  UNL     1      -7.960  18.885  26.197  1.00  0.00    -0.353 N 
ATOM     29  H7  UNL     1      -8.650  19.261  25.546  1.00  0.00     0.166 HD
ENDBRANCH  13  23
ENDBRANCH  11  13
ENDBRANCH   8   9
BRANCH   7  30
HETATM   30  C13 UNL     1     -12.202  12.661  28.837  1.00  0.00     0.012 C 
BRANCH  30  31
HETATM   31  C14 UNL     1     -13.197  12.979  29.854  1.00  0.00    -0.014 C 
HETATM   32  C15 UNL     1     -12.837  13.268  31.243  1.00  0.00     0.005 C 
HETATM   33  C16 UNL     1     -13.950  12.841  32.232  1.00  0.00     0.000 C 
HETATM   34  C17 UNL     1     -14.029  11.334  32.283  1.00  0.00     0.000 C 
HETATM   35  C18 UNL     1     -13.839  10.788  30.883  1.00  0.00     0.000 C 
HETATM   36  C19 UNL     1     -14.229  11.825  29.847  1.00  0.00     0.005 C 
ENDBRANCH  30  31
ENDBRANCH   7  30
BRANCH   1  37
HETATM   37  C4  UNL     1     -10.621  16.508  31.895  1.00  0.00     0.181 C 
BRANCH  37  38
HETATM   38  C2  UNL     1      -9.530  17.582  32.008  1.00  0.00     0.009 C 
HETATM   39  C1  UNL     1      -8.552  17.248  33.089  1.00  0.00     0.012 C 
HETATM   40  C3  UNL     1      -8.736  17.630  30.703  1.00  0.00     0.012 C 
ENDBRANCH  37  38
BRANCH  37  41
HETATM   41  N1  UNL     1     -10.640  15.868  33.217  1.00  0.00    -0.329 N 
HETATM   42  C5  UNL     1     -11.817  15.646  33.965  1.00  0.00     0.318 C 
HETATM   43  O1  UNL     1     -12.923  16.014  33.479  1.00  0.00    -0.247 OA
HETATM   44  N2  UNL     1     -11.717  15.020  35.232  1.00  0.00    -0.343 N 
HETATM   45  C6  UNL     1     -10.449  14.610  35.769  1.00  0.00     0.154 C 
HETATM   46  C7  UNL     1     -12.942  14.800  35.974  1.00  0.00     0.154 C 
ATOM     47  H1  UNL     1      -9.752  15.567  33.618  1.00  0.00     0.165 HD
ENDBRANCH  37  41
ENDBRANCH   1  37
TORSDOF 10
ENDMDL
MODEL 3
REMARK VINA RESULT: -9.366443281      2.427      9.818
REMARK  10 active torsions:
REMARK  status: ('A' for Active; 'I' for Inactive)
REMARK    1  A    between atoms: C2_2  and  C4_4 
REMARK    2  A    between atoms: C4_4  and  N1_5 
REMARK    3  A    between atoms: C4_4  and  C8_12 
REMARK       I    between atoms: N1_5  and  C5_7 
REMARK       I    between atoms: C5_7  and  N2_9 
REMARK       I    between atoms: C8_12  and  N3_14 
REMARK    4  A    between atoms: C12_18  and  C13_19 
REMARK    5  A    between atoms: C13_19  and  C14_20 
REMARK    6  A    between atoms: C20_26  and  C21_27 
REMARK       I    between atoms: C21_27  and  N4_29 
REMARK    7  A    between atoms: N4_29  and  C22_31 
REMARK    8  A    between atoms: C22_31  and  C23_32 
REMARK    9  A    between atoms: C22_31  and  C29_41 
REMARK   10  A    between atoms: C23_32  and  C24_33 
ROOT
HETATM    1  C8  UNL     1     -10.409  15.068  30.869  1.00  0.00     0.243 C 
HETATM    2  O2  UNL     1      -9.799  13.945  30.929  1.00  0.00    -0.271 OA
HETATM    3  N3  UNL     1     -10.891  15.472  29.582  1.00  0.00    -0.337 N 
HETATM    4  C9  UNL     1     -11.625  16.706  29.435  1.00  0.00     0.127 C 
HETATM    5  C10 UNL     1     -12.854  16.438  28.602  1.00  0.00     0.020 C 
HETATM    6  C11 UNL     1     -12.485  15.732  27.297  1.00  0.00     0.009 C 
HETATM    7  C12 UNL     1     -11.856  14.415  27.546  1.00  0.00     0.018 C 
HETATM    8  C20 UNL     1     -10.628  14.649  28.451  1.00  0.00     0.183 C 
ENDROOT
BRANCH   8   9
HETATM    9  C21 UNL     1      -9.439  15.018  27.670  1.00  0.00     0.241 C 
HETATM   10  O3  UNL     1      -8.361  14.410  27.866  1.00  0.00    -0.271 OA
HETATM   11  N4  UNL     1      -9.458  16.041  26.695  1.00  0.00    -0.348 N 
ATOM     12  H4  UNL     1     -10.328  16.546  26.526  1.00  0.00     0.163 HD
BRANCH  11  13
HETATM   13  C22 UNL     1      -8.267  16.401  25.920  1.00  0.00     0.152 C 
BRANCH  13  14
HETATM   14  C23 UNL     1      -8.627  16.799  24.519  1.00  0.00     0.037 C 
BRANCH  14  15
HETATM   15  C24 UNL     1      -9.124  15.694  23.652  1.00  0.00    -0.009 C 
HETATM   16  C25 UNL     1      -8.074  15.028  22.823  1.00  0.00     0.032 C 
HETATM   17  C26 UNL     1      -7.396  15.984  21.865  1.00  0.00     0.232 C 
HETATM   18  N5  UNL     1      -8.387  16.476  20.956  1.00  0.00    -0.075 N 
HETATM   19  C27 UNL     1      -9.444  17.165  21.653  1.00  0.00     0.232 C 
ATOM     20  H52 UNL     1      -7.973  17.063  20.232  1.00  0.00     0.277 HD
ATOM     21  H51 UNL     1      -8.754  15.731  20.364  1.00  0.00     0.277 HD
HETATM   22  C28 UNL     1     -10.131  16.303  22.682  1.00  0.00     0.032 C 
ENDBRANCH  14  15
ENDBRANCH  13  14
BRANCH  13  23
HETATM   23  C29 UNL     1      -7.562  17.543  26.564  1.00  0.00     0.104 A 
HETATM   24  N6  UNL     1      -6.799  17.455  27.655  1.00  0.00    -0.353 N 
HETATM   25  C30 UNL     1      -6.324  18.676  27.952  1.00  0.00     0.106 A 
ATOM     26  H6  UNL     1      -6.608  16.601  28.178  1.00  0.00     0.166 HD
HETATM   27  C31 UNL     1      -6.821  19.536  27.001  1.00  0.00     0.106 A 
HETATM   28  N7  UNL     1      -7.577  18.841  26.155  1.00  0.00    -0.353 N 
ATOM     29  H7  UNL     1      -8.077  19.213  25.347  1.00  0.00     0.166 HD
ENDBRANCH  13  23
ENDBRANCH  11  13
ENDBRANCH   8   9
BRANCH   7  30
HETATM   30  C13 UNL     1     -12.741  13.394  28.116  1.00  0.00     0.012 C 
BRANCH  30  31
HETATM   31  C14 UNL     1     -12.465  12.735  29.386  1.00  0.00    -0.014 C 
HETATM   32  C15 UNL     1     -12.377  11.278  29.513  1.00  0.00     0.005 C 
HETATM   33  C16 UNL     1     -12.823  10.791  30.914  1.00  0.00     0.000 C 
HETATM   34  C17 UNL     1     -14.313  10.985  31.065  1.00  0.00     0.000 C 
HETATM   35  C18 UNL     1     -14.700  12.303  30.428  1.00  0.00     0.000 C 
HETATM   36  C19 UNL     1     -13.516  13.250  30.398  1.00  0.00     0.005 C 
ENDBRANCH  30  31
ENDBRANCH   7  30
BRANCH   1  37
HETATM   37  C4  UNL     1     -10.557  15.830  32.109  1.00  0.00     0.181 C 
BRANCH  37  38
HETATM   38  C2  UNL     1      -9.241  16.484  32.554  1.00  0.00     0.009 C 
HETATM   39  C1  UNL     1      -8.911  17.668  31.703  1.00  0.00     0.012 C 
HETATM   40  C3  UNL     1      -9.396  17.003  33.982  1.00  0.00     0.012 C 
ENDBRANCH  37  38
BRANCH  37  41
HETATM   41  N1  UNL     1     -10.899  14.916  33.207  1.00  0.00    -0.329 N 
HETATM   42  C5  UNL     1     -12.216  14.687  33.658  1.00  0.00     0.318 C 
HETATM   43  O1  UNL     1     -13.166  15.299  33.092  1.00  0.00    -0.247 OA
HETATM   44  N2  UNL     1     -12.430  13.783  34.727  1.00  0.00    -0.343 N 
HETATM   45  C6  UNL     1     -11.336  13.098  35.360  1.00  0.00     0.154 C 
HETATM   46  C7  UNL     1     -13.793  13.564  35.165  1.00  0.00     0.154 C 
ATOM     47  H1  UNL     1     -10.139  14.417  33.669  1.00  0.00     0.165 HD
ENDBRANCH  37  41
ENDBRANCH   1  37
TORSDOF 10
ENDMDL
MODEL 4
REMARK VINA RESULT: -9.333568922      0.995      1.280
REMARK  10 active torsions:
REMARK  status: ('A' for Active; 'I' for Inactive)
REMARK    1  A    between atoms: C2_2  and  C4_4 
REMARK    2  A    between atoms: C4_4  and  N1_5 
REMARK    3  A    between atoms: C4_4  and  C8_12 
REMARK       I    between atoms: N1_5  and  C5_7 
REMARK       I    between atoms: C5_7  and  N2_9 
REMARK       I    between atoms: C8_12  and  N3_14 
REMARK    4  A    between atoms: C12_18  and  C13_19 
REMARK    5  A    between atoms: C13_19  and  C14_20 
REMARK    6  A    between atoms: C20_26  and  C21_27 
REMARK       I    between atoms: C21_27  and  N4_29 
REMARK    7  A    between atoms: N4_29  and  C22_31 
REMARK    8  A    between atoms: C22_31  and  C23_32 
REMARK    9  A    between atoms: C22_31  and  C29_41 
REMARK   10  A    between atoms: C23_32  and  C24_33 
ROOT
HETATM    1  C8  UNL     1      -8.126  16.807  25.091  1.00  0.00     0.243 C 
HETATM    2  O2  UNL     1      -7.444  15.793  24.711  1.00  0.00    -0.271 OA
HETATM    3  N3  UNL     1      -8.005  17.186  26.468  1.00  0.00    -0.337 N 
HETATM    4  C9  UNL     1      -8.709  18.342  26.968  1.00  0.00     0.127 C 
HETATM    5  C10 UNL     1      -7.751  19.172  27.786  1.00  0.00     0.020 C 
HETATM    6  C11 UNL     1      -7.055  18.316  28.844  1.00  0.00     0.009 C 
HETATM    7  C12 UNL     1      -6.250  17.235  28.232  1.00  0.00     0.018 C 
HETATM    8  C20 UNL     1      -7.192  16.404  27.336  1.00  0.00     0.183 C 
ENDROOT
BRANCH   8   9
HETATM    9  C21 UNL     1      -7.906  15.375  28.105  1.00  0.00     0.241 C 
HETATM   10  O3  UNL     1      -7.829  14.176  27.748  1.00  0.00    -0.271 OA
HETATM   11  N4  UNL     1      -8.687  15.681  29.242  1.00  0.00    -0.348 N 
ATOM     12  H4  UNL     1      -8.761  16.653  29.543  1.00  0.00     0.163 HD
BRANCH  11  13
HETATM   13  C22 UNL     1      -9.395  14.647  30.003  1.00  0.00     0.152 C 
BRANCH  13  14
HETATM   14  C23 UNL     1      -9.479  15.003  31.459  1.00  0.00     0.037 C 
BRANCH  14  15
HETATM   15  C24 UNL     1      -9.879  16.409  31.748  1.00  0.00    -0.009 C 
HETATM   16  C25 UNL     1      -9.113  17.064  32.850  1.00  0.00     0.032 C 
HETATM   17  C26 UNL     1      -9.270  16.347  34.174  1.00  0.00     0.232 C 
HETATM   18  N5  UNL     1     -10.652  16.402  34.545  1.00  0.00    -0.075 N 
HETATM   19  C27 UNL     1     -11.486  15.769  33.555  1.00  0.00     0.232 C 
ATOM     20  H52 UNL     1     -10.806  16.006  35.472  1.00  0.00     0.277 HD
ATOM     21  H51 UNL     1     -10.952  17.359  34.730  1.00  0.00     0.277 HD
HETATM   22  C28 UNL     1     -11.340  16.378  32.184  1.00  0.00     0.032 C 
ENDBRANCH  14  15
ENDBRANCH  13  14
BRANCH  13  23
HETATM   23  C29 UNL     1     -10.778  14.484  29.482  1.00  0.00     0.104 A 
HETATM   24  N6  UNL     1     -11.596  13.473  29.782  1.00  0.00    -0.353 N 
HETATM   25  C30 UNL     1     -12.760  13.649  29.137  1.00  0.00     0.106 A 
ATOM     26  H6  UNL     1     -11.373  12.693  30.401  1.00  0.00     0.166 HD
HETATM   27  C31 UNL     1     -12.641  14.815  28.417  1.00  0.00     0.106 A 
HETATM   28  N7  UNL     1     -11.430  15.322  28.629  1.00  0.00    -0.353 N 
ATOM     29  H7  UNL     1     -11.056  16.181  28.226  1.00  0.00     0.166 HD
ENDBRANCH  13  23
ENDBRANCH  11  13
ENDBRANCH   8   9
BRANCH   7  30
HETATM   30  C13 UNL     1      -5.070  17.678  27.483  1.00  0.00     0.012 C 
BRANCH  30  31
HETATM   31  C14 UNL     1      -4.911  17.442  26.054  1.00  0.00    -0.014 C 
HETATM   32  C15 UNL     1      -3.691  16.868  25.482  1.00  0.00     0.005 C 
HETATM   33  C16 UNL     1      -3.429  17.378  24.043  1.00  0.00     0.000 C 
HETATM   34  C17 UNL     1      -3.044  18.837  24.088  1.00  0.00     0.000 C 
HETATM   35  C18 UNL     1      -3.897  19.535  25.128  1.00  0.00     0.000 C 
HETATM   36  C19 UNL     1      -5.198  18.786  25.342  1.00  0.00     0.005 C 
ENDBRANCH  30  31
ENDBRANCH   7  30
BRANCH   1  37
HETATM   37  C4  UNL     1      -8.959  17.480  24.095  1.00  0.00     0.181 C 
BRANCH  37  38
HETATM   38  C2  UNL     1     -10.411  16.981  24.115  1.00  0.00     0.009 C 
HETATM   39  C1  UNL     1     -10.734  16.208  22.877  1.00  0.00     0.012 C 
HETATM   40  C3  UNL     1     -10.595  16.020  25.289  1.00  0.00     0.012 C 
ENDBRANCH  37  38
BRANCH  37  41
HETATM   41  N1  UNL     1      -8.478  17.146  22.749  1.00  0.00    -0.329 N 
HETATM   42  C5  UNL     1      -7.641  17.985  21.982  1.00  0.00     0.318 C 
HETATM   43  O1  UNL     1      -7.278  19.091  22.473  1.00  0.00    -0.247 OA
HETATM   44  N2  UNL     1      -7.237  17.560  20.692  1.00  0.00    -0.343 N 
HETATM   45  C6  UNL     1      -7.663  16.299  20.150  1.00  0.00     0.154 C 
HETATM   46  C7  UNL     1      -6.375  18.440  19.931  1.00  0.00     0.154 C 
ATOM     47  H1  UNL     1      -8.765  16.254  22.344  1.00  0.00     0.165 HD
ENDBRANCH  37  41
ENDBRANCH   1  37
TORSDOF 10
ENDMDL
MODEL 5
REMARK VINA RESULT: -9.328481458      2.388      9.775
REMARK  10 active torsions:
REMARK  status: ('A' for Active; 'I' for Inactive)
REMARK    1  A    between atoms: C2_2  and  C4_4 
REMARK    2  A    between atoms: C4_4  and  N1_5 
REMARK    3  A    between atoms: C4_4  and  C8_12 
REMARK       I    between atoms: N1_5  and  C5_7 
REMARK       I    between atoms: C5_7  and  N2_9 
REMARK       I    between atoms: C8_12  and  N3_14 
REMARK    4  A    between atoms: C12_18  and  C13_19 
REMARK    5  A    between atoms: C13_19  and  C14_20 
REMARK    6  A    between atoms: C20_26  and  C21_27 
REMARK       I    between atoms: C21_27  and  N4_29 
REMARK    7  A    between atoms: N4_29  and  C22_31 
REMARK    8  A    between atoms: C22_31  and  C23_32 
REMARK    9  A    between atoms: C22_31  and  C29_41 
REMARK   10  A    between atoms: C23_32  and  C24_33 
ROOT
HETATM    1  C8  UNL     1     -10.284  15.150  30.989  1.00  0.00     0.243 C 
HETATM    2  O2  UNL     1      -9.812  13.979  31.197  1.00  0.00    -0.271 OA
HETATM    3  N3  UNL     1     -10.659  15.465  29.642  1.00  0.00    -0.337 N 
HETATM    4  C9  UNL     1     -11.238  16.749  29.330  1.00  0.00     0.127 C 
HETATM    5  C10 UNL     1     -12.451  16.531  28.461  1.00  0.00     0.020 C 
HETATM    6  C11 UNL     1     -12.109  15.654  27.257  1.00  0.00     0.009 C 
HETATM    7  C12 UNL     1     -11.649  14.309  27.673  1.00  0.00     0.018 C 
HETATM    8  C20 UNL     1     -10.443  14.501  28.617  1.00  0.00     0.183 C 
ENDROOT
BRANCH   8   9
HETATM    9  C21 UNL     1      -9.186  14.651  27.871  1.00  0.00     0.241 C 
HETATM   10  O3  UNL     1      -8.191  13.963  28.199  1.00  0.00    -0.271 OA
HETATM   11  N4  UNL     1      -9.048  15.547  26.787  1.00  0.00    -0.348 N 
ATOM     12  H4  UNL     1      -9.849  16.115  26.510  1.00  0.00     0.163 HD
BRANCH  11  13
HETATM   13  C22 UNL     1      -7.790  15.688  26.048  1.00  0.00     0.152 C 
BRANCH  13  14
HETATM   14  C23 UNL     1      -8.038  15.891  24.582  1.00  0.00     0.037 C 
BRANCH  14  15
HETATM   15  C24 UNL     1      -9.012  16.969  24.245  1.00  0.00    -0.009 C 
HETATM   16  C25 UNL     1     -10.185  16.522  23.436  1.00  0.00     0.032 C 
HETATM   17  C26 UNL     1      -9.782  15.945  22.095  1.00  0.00     0.232 C 
HETATM   18  N5  UNL     1      -9.135  16.980  21.346  1.00  0.00    -0.075 N 
HETATM   19  C27 UNL     1      -7.964  17.469  22.029  1.00  0.00     0.232 C 
ATOM     20  H52 UNL     1      -8.914  16.673  20.399  1.00  0.00     0.277 HD
ATOM     21  H51 UNL     1      -9.780  17.738  21.120  1.00  0.00     0.277 HD
HETATM   22  C28 UNL     1      -8.265  18.001  23.407  1.00  0.00     0.032 C 
ENDBRANCH  14  15
ENDBRANCH  13  14
BRANCH  13  23
HETATM   23  C29 UNL     1      -7.024  16.857  26.558  1.00  0.00     0.104 A 
HETATM   24  N6  UNL     1      -5.812  17.223  26.136  1.00  0.00    -0.353 N 
HETATM   25  C30 UNL     1      -5.429  18.318  26.811  1.00  0.00     0.106 A 
ATOM     26  H6  UNL     1      -5.266  16.748  25.417  1.00  0.00     0.166 HD
HETATM   27  C31 UNL     1      -6.451  18.626  27.678  1.00  0.00     0.106 A 
HETATM   28  N7  UNL     1      -7.423  17.732  27.522  1.00  0.00    -0.353 N 
ATOM     29  H7  UNL     1      -8.307  17.707  28.030  1.00  0.00     0.166 HD
ENDBRANCH  13  23
ENDBRANCH  11  13
ENDBRANCH   8   9
BRANCH   7  30
HETATM   30  C13 UNL     1     -12.670  13.460  28.293  1.00  0.00     0.012 C 
BRANCH  30  31
HETATM   31  C14 UNL     1     -12.412  12.663  29.486  1.00  0.00    -0.014 C 
HETATM   32  C15 UNL     1     -12.473  11.199  29.482  1.00  0.00     0.005 C 
HETATM   33  C16 UNL     1     -12.909  10.634  30.857  1.00  0.00     0.000 C 
HETATM   34  C17 UNL     1     -14.362  10.964  31.100  1.00  0.00     0.000 C 
HETATM   35  C18 UNL     1     -14.635  12.367  30.599  1.00  0.00     0.000 C 
HETATM   36  C19 UNL     1     -13.360  13.188  30.590  1.00  0.00     0.005 C 
ENDBRANCH  30  31
ENDBRANCH   7  30
BRANCH   1  37
HETATM   37  C4  UNL     1     -10.399  16.052  32.135  1.00  0.00     0.181 C 
BRANCH  37  38
HETATM   38  C2  UNL     1      -9.070  16.746  32.466  1.00  0.00     0.009 C 
HETATM   39  C1  UNL     1      -8.813  17.893  31.541  1.00  0.00     0.012 C 
HETATM   40  C3  UNL     1      -9.147  17.333  33.875  1.00  0.00     0.012 C 
ENDBRANCH  37  38
BRANCH  37  41
HETATM   41  N1  UNL     1     -10.713  15.274  33.340  1.00  0.00    -0.329 N 
HETATM   42  C5  UNL     1     -12.025  15.027  33.797  1.00  0.00     0.318 C 
HETATM   43  O1  UNL     1     -12.995  15.497  33.137  1.00  0.00    -0.247 OA
HETATM   44  N2  UNL     1     -12.211  14.262  34.974  1.00  0.00    -0.343 N 
HETATM   45  C6  UNL     1     -11.095  13.737  35.712  1.00  0.00     0.154 C 
HETATM   46  C7  UNL     1     -13.570  14.021  35.415  1.00  0.00     0.154 C 
ATOM     47  H1  UNL     1      -9.937  14.889  33.879  1.00  0.00     0.165 HD
ENDBRANCH  37  41
ENDBRANCH   1  37
TORSDOF 10
ENDMDL
