MODEL 1
REMARK VINA RESULT: -10.104818542      0.000      0.000
REMARK  11 active torsions:
REMARK  status: ('A' for Active; 'I' for Inactive)
REMARK    1  A    between atoms: C2_2  and  C4_4 
REMARK    2  A    between atoms: C4_4  and  C5_5 
REMARK    3  A    between atoms: C5_5  and  C6_6 
REMARK    4  A    between atoms: C5_5  and  C13_20 
REMARK       I    between atoms: C6_6  and  N1_8 
REMARK    5  A    between atoms: N1_8  and  C7_10 
REMARK    6  A    between atoms: C12_15  and  N2_16 
REMARK    7  A    between atoms: C13_20  and  N3_21 
REMARK    8  A    between atoms: C13_20  and  C16_27 
REMARK       I    between atoms: N3_21  and  C14_22 
REMARK    9  A    between atoms: C14_22  and  C15_24 
REMARK   10  A    between atoms: C15_24  and  O3_25 
REMARK   11  A    between atoms: C16_27  and  C17_29 
ROOT
HETATM    1  C13 UNL     1      -9.119  17.213  26.153  1.00  0.00     0.172 C 
ENDROOT
BRANCH   1   2
HETATM    2  C5  UNL     1      -9.518  16.182  27.256  1.00  0.00     0.073 C 
BRANCH   2   3
HETATM    3  C4  UNL     1     -10.806  15.472  27.062  1.00  0.00    -0.002 C 
BRANCH   3   4
HETATM    4  C2  UNL     1     -11.706  15.014  28.110  1.00  0.00     0.001 C 
HETATM    5  C1  UNL     1     -12.287  13.592  27.938  1.00  0.00     0.013 C 
HETATM    6  C3  UNL     1     -13.019  15.827  28.237  1.00  0.00     0.013 C 
ENDBRANCH   3   4
ENDBRANCH   2   3
BRANCH   2   7
HETATM    7  C6  UNL     1      -8.907  16.052  28.595  1.00  0.00     0.255 C 
HETATM    8  O1  UNL     1      -8.187  15.401  29.077  1.00  0.00    -0.268 OA
HETATM    9  N1  UNL     1      -9.488  17.156  29.549  1.00  0.00    -0.350 N 
ATOM     10  H1  UNL     1     -10.002  17.992  29.273  1.00  0.00     0.163 HD
BRANCH   9  11
HETATM   11  C7  UNL     1      -9.155  16.757  30.879  1.00  0.00     0.115 C 
HETATM   12  C8  UNL     1      -8.393  17.539  31.819  1.00  0.00     0.027 C 
HETATM   13  C9  UNL     1      -8.749  17.249  33.286  1.00  0.00     0.002 C 
HETATM   14  C10 UNL     1      -8.811  15.770  33.595  1.00  0.00     0.002 C 
HETATM   15  C11 UNL     1      -9.327  14.907  32.495  1.00  0.00     0.035 C 
HETATM   16  C12 UNL     1     -10.115  15.715  31.479  1.00  0.00     0.206 C 
BRANCH  16  17
HETATM   17  N2  UNL     1     -11.312  16.313  32.010  1.00  0.00    -0.073 N 
ATOM     18  H23 UNL     1     -11.851  15.638  32.552  1.00  0.00     0.274 HD
ATOM     19  H22 UNL     1     -11.092  16.979  32.751  1.00  0.00     0.274 HD
ATOM     20  H21 UNL     1     -11.886  16.744  31.286  1.00  0.00     0.274 HD
ENDBRANCH  16  17
ENDBRANCH   9  11
ENDBRANCH   2   7
ENDBRANCH   1   2
BRANCH   1  21
HETATM   21  N3  UNL     1      -7.992  17.750  26.584  1.00  0.00    -0.361 NA
HETATM   22  C14 UNL     1      -6.805  18.430  27.029  1.00  0.00     0.338 C 
HETATM   23  O2  UNL     1      -6.911  19.657  26.888  1.00  0.00    -0.250 OA
BRANCH  22  24
HETATM   24  C15 UNL     1      -5.676  17.650  27.460  1.00  0.00     0.221 C 
BRANCH  24  25
HETATM   25  O3  UNL     1      -5.653  16.320  27.696  1.00  0.00    -0.366 OA
ATOM     26  H3  UNL     1      -4.906  15.803  27.974  1.00  0.00     0.216 HD
ENDBRANCH  24  25
ENDBRANCH  22  24
ENDBRANCH   1  21
BRANCH   1  27
HETATM   27  C16 UNL     1      -9.879  16.757  24.998  1.00  0.00     0.195 C 
HETATM   28  O4  UNL     1     -10.842  17.222  24.652  1.00  0.00    -0.289 OA
BRANCH  27  29
HETATM   29  C17 UNL     1      -9.322  15.595  24.195  1.00  0.00     0.068 C 
HETATM   30  C18 UNL     1     -10.276  14.796  23.375  1.00  0.00     0.013 C 
HETATM   31  C19 UNL     1     -10.758  15.633  22.177  1.00  0.00     0.006 C 
HETATM   32  C20 UNL     1      -9.934  16.822  22.305  1.00  0.00    -0.005 C 
HETATM   33  C21 UNL     1      -8.657  16.237  22.966  1.00  0.00     0.002 C 
HETATM   34  C24 UNL     1      -9.307  17.422  21.082  1.00  0.00    -0.005 C 
HETATM   35  C22 UNL     1      -7.911  17.462  23.084  1.00  0.00     0.011 C 
HETATM   36  C23 UNL     1      -7.980  17.893  21.600  1.00  0.00    -0.001 C 
HETATM   37  C32 UNL     1      -6.791  17.609  20.835  1.00  0.00    -0.033 C 
HETATM   38  C27 UNL     1      -7.053  17.768  19.345  1.00  0.00     0.020 C 
HETATM   39  C31 UNL     1      -6.169  16.256  20.969  1.00  0.00     0.018 C 
HETATM   40  C33 UNL     1      -5.731  18.640  21.218  1.00  0.00     0.016 C 
HETATM   41  C26 UNL     1      -8.203  16.905  18.887  1.00  0.00     0.010 C 
HETATM   42  C28 UNL     1      -5.872  17.519  18.538  1.00  0.00     0.029 C 
HETATM   43  C25 UNL     1      -9.189  16.491  19.937  1.00  0.00     0.006 C 
HETATM   44  C29 UNL     1      -4.672  16.801  19.022  1.00  0.00     0.146 C 
HETATM   45  O5  UNL     1      -3.726  16.635  18.397  1.00  0.00    -0.294 OA
HETATM   46  C30 UNL     1      -4.799  16.256  20.421  1.00  0.00     0.083 C 
ENDBRANCH  27  29
ENDBRANCH   1  27
TORSDOF 11
ENDMDL
MODEL 2
REMARK VINA RESULT: -10.063472205      2.921     10.852
REMARK  11 active torsions:
REMARK  status: ('A' for Active; 'I' for Inactive)
REMARK    1  A    between atoms: C2_2  and  C4_4 
REMARK    2  A    between atoms: C4_4  and  C5_5 
REMARK    3  A    between atoms: C5_5  and  C6_6 
REMARK    4  A    between atoms: C5_5  and  C13_20 
REMARK       I    between atoms: C6_6  and  N1_8 
REMARK    5  A    between atoms: N1_8  and  C7_10 
REMARK    6  A    between atoms: C12_15  and  N2_16 
REMARK    7  A    between atoms: C13_20  and  N3_21 
REMARK    8  A    between atoms: C13_20  and  C16_27 
REMARK       I    between atoms: N3_21  and  C14_22 
REMARK    9  A    between atoms: C14_22  and  C15_24 
REMARK   10  A    between atoms: C15_24  and  O3_25 
REMARK   11  A    between atoms: C16_27  and  C17_29 
ROOT
HETATM    1  C13 UNL     1      -9.665  16.751  28.968  1.00  0.00     0.172 C 
ENDROOT
BRANCH   1   2
HETATM    2  C5  UNL     1     -10.486  15.791  28.051  1.00  0.00     0.073 C 
BRANCH   2   3
HETATM    3  C4  UNL     1     -11.603  15.057  28.694  1.00  0.00    -0.002 C 
BRANCH   3   4
HETATM    4  C2  UNL     1     -11.731  13.613  28.821  1.00  0.00     0.001 C 
HETATM    5  C1  UNL     1     -12.699  12.923  27.833  1.00  0.00     0.013 C 
HETATM    6  C3  UNL     1     -12.330  13.132  30.165  1.00  0.00     0.013 C 
ENDBRANCH   3   4
ENDBRANCH   2   3
BRANCH   2   7
HETATM    7  C6  UNL     1     -10.096  15.317  26.706  1.00  0.00     0.255 C 
HETATM    8  O1  UNL     1      -9.554  14.476  26.289  1.00  0.00    -0.268 OA
HETATM    9  N1  UNL     1     -10.605  16.333  25.622  1.00  0.00    -0.350 N 
ATOM     10  H1  UNL     1     -11.303  17.065  25.752  1.00  0.00     0.163 HD
BRANCH   9  11
HETATM   11  C7  UNL     1      -9.898  16.029  24.420  1.00  0.00     0.115 C 
HETATM   12  C8  UNL     1     -10.504  15.745  23.143  1.00  0.00     0.027 C 
HETATM   13  C9  UNL     1      -9.618  16.129  21.947  1.00  0.00     0.002 C 
HETATM   14  C10 UNL     1      -8.192  15.649  22.092  1.00  0.00     0.002 C 
HETATM   15  C11 UNL     1      -7.651  15.658  23.481  1.00  0.00     0.035 C 
HETATM   16  C12 UNL     1      -8.459  16.573  24.385  1.00  0.00     0.206 C 
BRANCH  16  17
HETATM   17  N2  UNL     1      -8.406  17.961  24.008  1.00  0.00    -0.073 N 
ATOM     18  H23 UNL     1      -9.300  18.422  24.175  1.00  0.00     0.274 HD
ATOM     19  H22 UNL     1      -7.824  18.495  24.653  1.00  0.00     0.274 HD
ATOM     20  H21 UNL     1      -8.101  18.091  23.043  1.00  0.00     0.274 HD
ENDBRANCH  16  17
ENDBRANCH   9  11
ENDBRANCH   2   7
ENDBRANCH   1   2
BRANCH   1  21
HETATM   21  N3  UNL     1      -9.275  17.729  28.170  1.00  0.00    -0.361 NA
HETATM   22  C14 UNL     1      -8.948  18.789  27.254  1.00  0.00     0.338 C 
HETATM   23  O2  UNL     1      -9.900  19.044  26.503  1.00  0.00    -0.250 OA
BRANCH  22  24
HETATM   24  C15 UNL     1      -7.611  19.321  27.255  1.00  0.00     0.221 C 
BRANCH  24  25
HETATM   25  O3  UNL     1      -6.838  19.569  26.174  1.00  0.00    -0.366 OA
ATOM     26  H3  UNL     1      -6.485  20.410  25.908  1.00  0.00     0.216 HD
ENDBRANCH  24  25
ENDBRANCH  22  24
ENDBRANCH   1  21
BRANCH   1  27
HETATM   27  C16 UNL     1     -10.117  16.385  30.302  1.00  0.00     0.195 C 
HETATM   28  O4  UNL     1     -11.061  16.767  30.777  1.00  0.00    -0.289 OA
BRANCH  27  29
HETATM   29  C17 UNL     1      -9.271  15.404  31.094  1.00  0.00     0.068 C 
HETATM   30  C18 UNL     1      -7.986  15.896  31.666  1.00  0.00     0.013 C 
HETATM   31  C19 UNL     1      -8.272  16.869  32.823  1.00  0.00     0.006 C 
HETATM   32  C20 UNL     1      -9.716  16.764  32.939  1.00  0.00    -0.005 C 
HETATM   33  C21 UNL     1      -9.953  15.303  32.469  1.00  0.00     0.002 C 
HETATM   34  C24 UNL     1     -10.343  16.674  34.299  1.00  0.00    -0.005 C 
HETATM   35  C22 UNL     1     -11.387  15.284  32.585  1.00  0.00     0.011 C 
HETATM   36  C23 UNL     1     -11.485  15.729  34.062  1.00  0.00    -0.001 C 
HETATM   37  C32 UNL     1     -11.708  14.656  35.001  1.00  0.00    -0.033 C 
HETATM   38  C27 UNL     1     -11.477  15.127  36.428  1.00  0.00     0.020 C 
HETATM   39  C31 UNL     1     -10.881  13.418  34.870  1.00  0.00     0.018 C 
HETATM   40  C33 UNL     1     -13.175  14.242  34.895  1.00  0.00     0.016 C 
HETATM   41  C26 UNL     1     -10.098  15.713  36.605  1.00  0.00     0.010 C 
HETATM   42  C28 UNL     1     -11.720  14.083  37.409  1.00  0.00     0.029 C 
HETATM   43  C25 UNL     1      -9.424  16.223  35.368  1.00  0.00     0.006 C 
HETATM   44  C29 UNL     1     -11.777  12.640  37.088  1.00  0.00     0.146 C 
HETATM   45  O5  UNL     1     -12.004  11.819  37.855  1.00  0.00    -0.294 OA
HETATM   46  C30 UNL     1     -11.472  12.313  35.649  1.00  0.00     0.083 C 
ENDBRANCH  27  29
ENDBRANCH   1  27
TORSDOF 11
ENDMDL
MODEL 3
REMARK VINA RESULT: -10.062641048      1.394      3.175
REMARK  11 active torsions:
REMARK  status: ('A' for Active; 'I' for Inactive)
REMARK    1  A    between atoms: C2_2  and  C4_4 
REMARK    2  A    between atoms: C4_4  and  C5_5 
REMARK    3  A    between atoms: C5_5  and  C6_6 
REMARK    4  A    between atoms: C5_5  and  C13_20 
REMARK       I    between atoms: C6_6  and  N1_8 
REMARK    5  A    between atoms: N1_8  and  C7_10 
REMARK    6  A    between atoms: C12_15  and  N2_16 
REMARK    7  A    between atoms: C13_20  and  N3_21 
REMARK    8  A    between atoms: C13_20  and  C16_27 
REMARK       I    between atoms: N3_21  and  C14_22 
REMARK    9  A    between atoms: C14_22  and  C15_24 
REMARK   10  A    between atoms: C15_24  and  O3_25 
REMARK   11  A    between atoms: C16_27  and  C17_29 
ROOT
HETATM    1  C13 UNL     1      -9.484  16.714  26.484  1.00  0.00     0.172 C 
ENDROOT
BRANCH   1   2
HETATM    2  C5  UNL     1      -8.241  16.982  27.390  1.00  0.00     0.073 C 
BRANCH   2   3
HETATM    3  C4  UNL     1      -7.037  17.526  26.716  1.00  0.00    -0.002 C 
BRANCH   3   4
HETATM    4  C2  UNL     1      -6.184  18.600  27.203  1.00  0.00     0.001 C 
HETATM    5  C1  UNL     1      -5.799  19.688  26.175  1.00  0.00     0.013 C 
HETATM    6  C3  UNL     1      -4.773  18.150  27.658  1.00  0.00     0.013 C 
ENDBRANCH   3   4
ENDBRANCH   2   3
BRANCH   2   7
HETATM    7  C6  UNL     1      -8.038  16.488  28.768  1.00  0.00     0.255 C 
HETATM    8  O1  UNL     1      -7.573  15.631  29.241  1.00  0.00    -0.268 OA
HETATM    9  N1  UNL     1      -8.692  17.487  29.788  1.00  0.00    -0.350 N 
ATOM     10  H1  UNL     1      -8.990  18.444  29.600  1.00  0.00     0.163 HD
BRANCH   9  11
HETATM   11  C7  UNL     1      -8.789  16.789  31.030  1.00  0.00     0.115 C 
HETATM   12  C8  UNL     1      -8.192  17.210  32.273  1.00  0.00     0.027 C 
HETATM   13  C9  UNL     1      -8.965  16.735  33.514  1.00  0.00     0.002 C 
HETATM   14  C10 UNL     1      -9.335  15.271  33.452  1.00  0.00     0.002 C 
HETATM   15  C11 UNL     1      -9.667  14.750  32.096  1.00  0.00     0.035 C 
HETATM   16  C12 UNL     1     -10.023  15.877  31.142  1.00  0.00     0.206 C 
BRANCH  16  17
HETATM   17  N2  UNL     1     -11.210  16.602  31.511  1.00  0.00    -0.073 N 
ATOM     18  H23 UNL     1     -11.461  16.426  32.484  1.00  0.00     0.274 HD
ATOM     19  H22 UNL     1     -11.027  17.604  31.568  1.00  0.00     0.274 HD
ATOM     20  H21 UNL     1     -11.995  16.406  30.890  1.00  0.00     0.274 HD
ENDBRANCH  16  17
ENDBRANCH   9  11
ENDBRANCH   2   7
ENDBRANCH   1   2
BRANCH   1  21
HETATM   21  N3  UNL     1     -10.522  16.820  27.295  1.00  0.00    -0.361 NA
HETATM   22  C14 UNL     1     -11.610  17.029  28.213  1.00  0.00     0.338 C 
HETATM   23  O2  UNL     1     -11.472  18.089  28.839  1.00  0.00    -0.250 OA
BRANCH  22  24
HETATM   24  C15 UNL     1     -12.607  16.002  28.355  1.00  0.00     0.221 C 
BRANCH  24  25
HETATM   25  O3  UNL     1     -13.423  15.807  29.414  1.00  0.00    -0.366 OA
ATOM     26  H3  UNL     1     -14.219  15.289  29.432  1.00  0.00     0.216 HD
ENDBRANCH  24  25
ENDBRANCH  22  24
ENDBRANCH   1  21
BRANCH   1  27
HETATM   27  C16 UNL     1      -8.964  16.953  25.147  1.00  0.00     0.195 C 
HETATM   28  O4  UNL     1      -8.803  17.974  24.704  1.00  0.00    -0.289 OA
BRANCH  27  29
HETATM   29  C17 UNL     1      -8.590  15.747  24.304  1.00  0.00     0.068 C 
HETATM   30  C18 UNL     1      -9.690  14.998  23.633  1.00  0.00     0.013 C 
HETATM   31  C19 UNL     1     -10.273  15.848  22.490  1.00  0.00     0.006 C 
HETATM   32  C20 UNL     1      -9.369  16.984  22.483  1.00  0.00    -0.005 C 
HETATM   33  C21 UNL     1      -8.054  16.328  22.985  1.00  0.00     0.002 C 
HETATM   34  C24 UNL     1      -8.872  17.525  21.175  1.00  0.00    -0.005 C 
HETATM   35  C22 UNL     1      -7.225  17.505  22.977  1.00  0.00     0.011 C 
HETATM   36  C23 UNL     1      -7.462  17.919  21.506  1.00  0.00    -0.001 C 
HETATM   37  C32 UNL     1      -6.404  17.549  20.598  1.00  0.00    -0.033 C 
HETATM   38  C27 UNL     1      -6.849  17.704  19.153  1.00  0.00     0.020 C 
HETATM   39  C31 UNL     1      -5.854  16.161  20.680  1.00  0.00     0.018 C 
HETATM   40  C33 UNL     1      -5.242  18.517  20.817  1.00  0.00     0.016 C 
HETATM   41  C26 UNL     1      -8.100  16.909  18.868  1.00  0.00     0.010 C 
HETATM   42  C28 UNL     1      -5.802  17.369  18.204  1.00  0.00     0.029 C 
HETATM   43  C25 UNL     1      -8.963  16.574  20.046  1.00  0.00     0.006 C 
HETATM   44  C29 UNL     1      -4.595  16.584  18.543  1.00  0.00     0.146 C 
HETATM   45  O5  UNL     1      -3.751  16.349  17.804  1.00  0.00    -0.294 OA
HETATM   46  C30 UNL     1      -4.570  16.067  19.958  1.00  0.00     0.083 C 
ENDBRANCH  27  29
ENDBRANCH   1  27
TORSDOF 11
ENDMDL
MODEL 4
REMARK VINA RESULT: -9.967653897      2.887     11.189
REMARK  11 active torsions:
REMARK  status: ('A' for Active; 'I' for Inactive)
REMARK    1  A    between atoms: C2_2  and  C4_4 
REMARK    2  A    between atoms: C4_4  and  C5_5 
REMARK    3  A    between atoms: C5_5  and  C6_6 
REMARK    4  A    between atoms: C5_5  and  C13_20 
REMARK       I    between atoms: C6_6  and  N1_8 
REMARK    5  A    between atoms: N1_8  and  C7_10 
REMARK    6  A    between atoms: C12_15  and  N2_16 
REMARK    7  A    between atoms: C13_20  and  N3_21 
REMARK    8  A    between atoms: C13_20  and  C16_27 
REMARK       I    between atoms: N3_21  and  C14_22 
REMARK    9  A    between atoms: C14_22  and  C15_24 
REMARK   10  A    between atoms: C15_24  and  O3_25 
REMARK   11  A    between atoms: C16_27  and  C17_29 
ROOT
HETATM    1  C13 UNL     1     -10.099  16.772  29.460  1.00  0.00     0.172 C 
ENDROOT
BRANCH   1   2
HETATM    2  C5  UNL     1      -9.000  16.671  28.355  1.00  0.00     0.073 C 
BRANCH   2   3
HETATM    3  C4  UNL     1      -7.811  17.542  28.524  1.00  0.00    -0.002 C 
BRANCH   3   4
HETATM    4  C2  UNL     1      -6.680  17.647  27.614  1.00  0.00     0.001 C 
HETATM    5  C1  UNL     1      -5.277  17.531  28.252  1.00  0.00     0.013 C 
HETATM    6  C3  UNL     1      -6.541  19.019  26.908  1.00  0.00     0.013 C 
ENDBRANCH   3   4
ENDBRANCH   2   3
BRANCH   2   7
HETATM    7  C6  UNL     1      -9.145  16.030  27.031  1.00  0.00     0.255 C 
HETATM    8  O1  UNL     1      -8.953  15.056  26.598  1.00  0.00    -0.268 OA
HETATM    9  N1  UNL     1      -9.717  17.070  26.003  1.00  0.00    -0.350 N 
ATOM     10  H1  UNL     1     -10.165  17.960  26.220  1.00  0.00     0.163 HD
BRANCH   9  11
HETATM   11  C7  UNL     1      -9.487  16.522  24.704  1.00  0.00     0.115 C 
HETATM   12  C8  UNL     1     -10.510  16.195  23.742  1.00  0.00     0.027 C 
HETATM   13  C9  UNL     1     -10.033  16.295  22.285  1.00  0.00     0.002 C 
HETATM   14  C10 UNL     1      -8.704  15.613  22.053  1.00  0.00     0.002 C 
HETATM   15  C11 UNL     1      -7.736  15.693  23.184  1.00  0.00     0.035 C 
HETATM   16  C12 UNL     1      -8.090  16.822  24.136  1.00  0.00     0.206 C 
BRANCH  16  17
HETATM   17  N2  UNL     1      -8.006  18.132  23.545  1.00  0.00    -0.073 N 
ATOM     18  H23 UNL     1      -7.845  18.073  22.540  1.00  0.00     0.274 HD
ATOM     19  H22 UNL     1      -8.918  18.590  23.538  1.00  0.00     0.274 HD
ATOM     20  H21 UNL     1      -7.304  18.718  23.996  1.00  0.00     0.274 HD
ENDBRANCH  16  17
ENDBRANCH   9  11
ENDBRANCH   2   7
ENDBRANCH   1   2
BRANCH   1  21
HETATM   21  N3  UNL     1     -11.128  16.102  28.973  1.00  0.00    -0.361 NA
HETATM   22  C14 UNL     1     -12.310  15.457  28.466  1.00  0.00     0.338 C 
HETATM   23  O2  UNL     1     -13.299  16.199  28.554  1.00  0.00    -0.250 OA
BRANCH  22  24
HETATM   24  C15 UNL     1     -12.227  14.086  28.040  1.00  0.00     0.221 C 
BRANCH  24  25
HETATM   25  O3  UNL     1     -11.120  13.311  28.017  1.00  0.00    -0.366 OA
ATOM     26  H3  UNL     1     -10.590  13.097  27.258  1.00  0.00     0.216 HD
ENDBRANCH  24  25
ENDBRANCH  22  24
ENDBRANCH   1  21
BRANCH   1  27
HETATM   27  C16 UNL     1      -9.330  17.117  30.646  1.00  0.00     0.195 C 
HETATM   28  O4  UNL     1      -9.244  18.158  31.062  1.00  0.00    -0.289 OA
BRANCH  27  29
HETATM   29  C17 UNL     1      -8.620  15.996  31.383  1.00  0.00     0.068 C 
HETATM   30  C18 UNL     1      -7.375  16.333  32.129  1.00  0.00     0.013 C 
HETATM   31  C19 UNL     1      -7.725  17.176  33.368  1.00  0.00     0.006 C 
HETATM   32  C20 UNL     1      -9.177  17.150  33.335  1.00  0.00    -0.005 C 
HETATM   33  C21 UNL     1      -9.441  15.774  32.665  1.00  0.00     0.002 C 
HETATM   34  C24 UNL     1      -9.941  16.936  34.608  1.00  0.00    -0.005 C 
HETATM   35  C22 UNL     1     -10.879  15.833  32.643  1.00  0.00     0.011 C 
HETATM   36  C23 UNL     1     -11.100  16.102  34.150  1.00  0.00    -0.001 C 
HETATM   37  C32 UNL     1     -11.471  14.940  34.920  1.00  0.00    -0.033 C 
HETATM   38  C27 UNL     1     -11.361  15.219  36.411  1.00  0.00     0.020 C 
HETATM   39  C31 UNL     1     -10.701  13.676  34.711  1.00  0.00     0.018 C 
HETATM   40  C33 UNL     1     -12.940  14.635  34.627  1.00  0.00     0.016 C 
HETATM   41  C26 UNL     1      -9.978  15.691  36.787  1.00  0.00     0.010 C 
HETATM   42  C28 UNL     1     -11.754  14.082  37.225  1.00  0.00     0.029 C 
HETATM   43  C25 UNL     1      -9.158  16.303  35.693  1.00  0.00     0.006 C 
HETATM   44  C29 UNL     1     -11.854  12.695  36.721  1.00  0.00     0.146 C 
HETATM   45  O5  UNL     1     -12.198  11.804  37.354  1.00  0.00    -0.294 OA
HETATM   46  C30 UNL     1     -11.423  12.525  35.287  1.00  0.00     0.083 C 
ENDBRANCH  27  29
ENDBRANCH   1  27
TORSDOF 11
ENDMDL
MODEL 5
REMARK VINA RESULT: -9.947818734      1.560      3.265
REMARK  11 active torsions:
REMARK  status: ('A' for Active; 'I' for Inactive)
REMARK    1  A    between atoms: C2_2  and  C4_4 
REMARK    2  A    between atoms: C4_4  and  C5_5 
REMARK    3  A    between atoms: C5_5  and  C6_6 
REMARK    4  A    between atoms: C5_5  and  C13_20 
REMARK       I    between atoms: C6_6  and  N1_8 
REMARK    5  A    between atoms: N1_8  and  C7_10 
REMARK    6  A    between atoms: C12_15  and  N2_16 
REMARK    7  A    between atoms: C13_20  and  N3_21 
REMARK    8  A    between atoms: C13_20  and  C16_27 
REMARK       I    between atoms: N3_21  and  C14_22 
REMARK    9  A    between atoms: C14_22  and  C15_24 
REMARK   10  A    between atoms: C15_24  and  O3_25 
REMARK   11  A    between atoms: C16_27  and  C17_29 
ROOT
HETATM    1  C13 UNL     1      -7.503  17.971  25.717  1.00  0.00     0.172 C 
ENDROOT
BRANCH   1   2
HETATM    2  C5  UNL     1      -6.696  17.024  26.660  1.00  0.00     0.073 C 
BRANCH   2   3
HETATM    3  C4  UNL     1      -5.417  16.494  26.129  1.00  0.00    -0.002 C 
BRANCH   3   4
HETATM    4  C2  UNL     1      -4.082  16.804  26.620  1.00  0.00     0.001 C 
HETATM    5  C1  UNL     1      -3.993  17.887  27.720  1.00  0.00     0.013 C 
HETATM    6  C3  UNL     1      -3.129  17.416  25.563  1.00  0.00     0.013 C 
ENDBRANCH   3   4
ENDBRANCH   2   3
BRANCH   2   7
HETATM    7  C6  UNL     1      -7.200  16.374  27.889  1.00  0.00     0.255 C 
HETATM    8  O1  UNL     1      -7.369  15.361  28.236  1.00  0.00    -0.268 OA
HETATM    9  N1  UNL     1      -7.598  17.470  28.939  1.00  0.00    -0.350 N 
ATOM     10  H1  UNL     1      -7.335  18.456  28.923  1.00  0.00     0.163 HD
BRANCH   9  11
HETATM   11  C7  UNL     1      -8.401  16.816  29.922  1.00  0.00     0.115 C 
HETATM   12  C8  UNL     1      -8.066  16.677  31.317  1.00  0.00     0.027 C 
HETATM   13  C9  UNL     1      -9.296  16.587  32.235  1.00  0.00     0.002 C 
HETATM   14  C10 UNL     1     -10.334  15.611  31.733  1.00  0.00     0.002 C 
HETATM   15  C11 UNL     1     -10.476  15.530  30.252  1.00  0.00     0.035 C 
HETATM   16  C12 UNL     1      -9.898  16.760  29.573  1.00  0.00     0.206 C 
BRANCH  16  17
HETATM   17  N2  UNL     1     -10.584  17.983  29.898  1.00  0.00    -0.073 N 
ATOM     18  H23 UNL     1     -11.013  18.395  29.069  1.00  0.00     0.274 HD
ATOM     19  H22 UNL     1     -11.425  17.798  30.444  1.00  0.00     0.274 HD
ATOM     20  H21 UNL     1      -9.979  18.655  30.370  1.00  0.00     0.274 HD
ENDBRANCH  16  17
ENDBRANCH   9  11
ENDBRANCH   2   7
ENDBRANCH   1   2
BRANCH   1  21
HETATM   21  N3  UNL     1      -6.660  18.942  25.413  1.00  0.00    -0.361 NA
HETATM   22  C14 UNL     1      -5.737  20.021  25.187  1.00  0.00     0.338 C 
HETATM   23  O2  UNL     1      -5.407  20.561  26.252  1.00  0.00    -0.250 OA
BRANCH  22  24
HETATM   24  C15 UNL     1      -5.408  20.384  23.834  1.00  0.00     0.221 C 
BRANCH  24  25
HETATM   25  O3  UNL     1      -5.826  21.481  23.165  1.00  0.00    -0.366 OA
ATOM     26  H3  UNL     1      -6.609  21.559  22.633  1.00  0.00     0.216 HD
ENDBRANCH  24  25
ENDBRANCH  22  24
ENDBRANCH   1  21
BRANCH   1  27
HETATM   27  C16 UNL     1      -8.583  17.114  25.249  1.00  0.00     0.195 C 
HETATM   28  O4  UNL     1      -9.673  17.317  25.430  1.00  0.00    -0.289 OA
BRANCH  27  29
HETATM   29  C17 UNL     1      -8.213  15.881  24.445  1.00  0.00     0.068 C 
HETATM   30  C18 UNL     1      -9.322  15.036  23.918  1.00  0.00     0.013 C 
HETATM   31  C19 UNL     1     -10.050  15.783  22.786  1.00  0.00     0.006 C 
HETATM   32  C20 UNL     1      -9.217  16.964  22.635  1.00  0.00    -0.005 C 
HETATM   33  C21 UNL     1      -7.827  16.409  23.053  1.00  0.00     0.002 C 
HETATM   34  C24 UNL     1      -8.867  17.450  21.261  1.00  0.00    -0.005 C 
HETATM   35  C22 UNL     1      -7.072  17.626  22.906  1.00  0.00     0.011 C 
HETATM   36  C23 UNL     1      -7.459  17.937  21.442  1.00  0.00    -0.001 C 
HETATM   37  C32 UNL     1      -6.463  17.570  20.464  1.00  0.00    -0.033 C 
HETATM   38  C27 UNL     1      -7.040  17.614  19.058  1.00  0.00     0.020 C 
HETATM   39  C31 UNL     1      -5.828  16.221  20.574  1.00  0.00     0.018 C 
HETATM   40  C33 UNL     1      -5.345  18.609  20.525  1.00  0.00     0.016 C 
HETATM   41  C26 UNL     1      -8.262  16.738  18.931  1.00  0.00     0.010 C 
HETATM   42  C28 UNL     1      -6.061  17.278  18.039  1.00  0.00     0.029 C 
HETATM   43  C25 UNL     1      -9.000  16.429  20.198  1.00  0.00     0.006 C 
HETATM   44  C29 UNL     1      -4.785  16.580  18.312  1.00  0.00     0.146 C 
HETATM   45  O5  UNL     1      -3.996  16.346  17.515  1.00  0.00    -0.294 OA
HETATM   46  C30 UNL     1      -4.608  16.151  19.746  1.00  0.00     0.083 C 
ENDBRANCH  27  29
ENDBRANCH   1  27
TORSDOF 11
ENDMDL
