MODEL 1
REMARK VINA RESULT: -8.816655047      0.000      0.000
REMARK  13 active torsions:
REMARK  status: ('A' for Active; 'I' for Inactive)
REMARK    1  A    between atoms: C7_7  and  N1_8 
REMARK    2  A    between atoms: N1_8  and  C8_11 
REMARK    3  A    between atoms: C8_11  and  C9_12 
REMARK    4  A    between atoms: C9_12  and  O1_13 
REMARK    5  A    between atoms: C10_15  and  N2_16 
REMARK    6  A    between atoms: C10_15  and  C17_24 
REMARK    7  A    between atoms: N2_16  and  C11_18 
REMARK    8  A    between atoms: C17_24  and  C18_25 
REMARK    9  A    between atoms: C17_24  and  N4_41 
REMARK   10  A    between atoms: C18_25  and  C19_26 
REMARK   11  A    between atoms: C19_26  and  C20_27 
REMARK   12  A    between atoms: C20_27  and  O2_28 
REMARK   13  A    between atoms: C20_27  and  N3_30 
REMARK       I    between atoms: N4_41  and  C30_43 
REMARK       I    between atoms: C30_43  and  N5_45 
ROOT
HETATM    1  C17 UNL     1      -8.451  17.433  26.637  1.00  0.00     0.140 C 
ENDROOT
BRANCH   1   2
HETATM    2  C10 UNL     1      -9.593  17.570  27.736  1.00  0.00     0.063 C 
HETATM    3  C9  UNL     1      -9.134  17.473  29.096  1.00  0.00     0.093 C 
BRANCH   3   4
HETATM    4  C8  UNL     1     -10.027  17.412  30.281  1.00  0.00     0.298 C 
BRANCH   4   5
HETATM    5  N1  UNL     1      -9.193  16.994  31.455  1.00  0.00    -0.065 N 
ATOM      6  H12 UNL     1      -9.053  17.735  32.143  1.00  0.00     0.278 HD
ATOM      7  H11 UNL     1      -8.208  16.854  31.230  1.00  0.00     0.278 HD
BRANCH   5   8
HETATM    8  C7  UNL     1      -9.838  15.823  31.988  1.00  0.00     0.190 C 
HETATM    9  C2  UNL     1      -9.019  15.397  33.197  1.00  0.00     0.012 C 
HETATM   10  C1  UNL     1      -8.810  16.617  34.053  1.00  0.00     0.012 C 
HETATM   11  C3  UNL     1      -9.714  14.271  33.896  1.00  0.00     0.006 C 
HETATM   12  C4  UNL     1     -11.006  14.750  34.485  1.00  0.00     0.000 C 
HETATM   13  C5  UNL     1     -11.639  15.883  33.753  1.00  0.00     0.002 C 
HETATM   14  C6  UNL     1     -11.281  15.971  32.291  1.00  0.00     0.033 C 
ENDBRANCH   5   8
ENDBRANCH   4   5
ENDBRANCH   3   4
BRANCH   3  15
HETATM   15  O1  UNL     1      -8.095  18.347  29.448  1.00  0.00    -0.361 OA
ATOM     16  H1  UNL     1      -8.296  19.171  29.019  1.00  0.00     0.217 HD
ENDBRANCH   3  15
BRANCH   2  17
HETATM   17  N2  UNL     1     -10.723  16.918  27.253  1.00  0.00    -0.363 N 
ATOM     18  H2  UNL     1     -11.133  17.322  26.411  1.00  0.00     0.165 HD
BRANCH  17  19
HETATM   19  C11 UNL     1     -11.366  15.812  27.746  1.00  0.00    -0.013 C 
HETATM   20  C12 UNL     1     -12.864  16.037  28.062  1.00  0.00     0.052 C 
HETATM   21  C13 UNL     1     -13.170  15.270  29.321  1.00  0.00     0.006 C 
HETATM   22  C14 UNL     1     -12.285  14.096  29.528  1.00  0.00     0.001 C 
HETATM   23  C15 UNL     1     -11.759  13.423  28.310  1.00  0.00     0.006 C 
HETATM   24  C16 UNL     1     -11.276  14.435  27.239  1.00  0.00     0.052 C 
ENDBRANCH  17  19
ENDBRANCH   2  17
ENDBRANCH   1   2
BRANCH   1  25
HETATM   25  C18 UNL     1      -7.635  18.608  26.581  1.00  0.00     0.049 C 
BRANCH  25  26
HETATM   26  C19 UNL     1      -6.269  18.601  26.013  1.00  0.00     0.027 C 
HETATM   27  C25 UNL     1      -5.762  17.162  25.818  1.00  0.00     0.018 C 
HETATM   28  C26 UNL     1      -4.262  17.163  25.800  1.00  0.00     0.001 C 
HETATM   29  C27 UNL     1      -3.690  17.261  27.206  1.00  0.00     0.000 C 
HETATM   30  C28 UNL     1      -4.722  18.102  27.962  1.00  0.00     0.001 C 
HETATM   31  C29 UNL     1      -5.299  19.176  27.071  1.00  0.00     0.018 C 
BRANCH  26  32
HETATM   32  C20 UNL     1      -6.065  19.354  24.786  1.00  0.00     0.122 C 
BRANCH  32  33
HETATM   33  O2  UNL     1      -5.716  20.614  24.872  1.00  0.00    -0.349 OA
ATOM     34  H2  UNL     1      -5.876  21.183  24.128  1.00  0.00     0.219 HD
ENDBRANCH  32  33
BRANCH  32  35
HETATM   35  N3  UNL     1      -6.199  18.919  23.440  1.00  0.00    -0.361 N 
HETATM   36  C21 UNL     1      -4.982  18.947  22.618  1.00  0.00     0.151 C 
HETATM   37  C22 UNL     1      -4.913  17.732  21.763  1.00  0.00     0.187 C 
HETATM   38  O3  UNL     1      -6.110  17.289  21.236  1.00  0.00    -0.388 OA
HETATM   39  C23 UNL     1      -7.064  18.307  21.300  1.00  0.00     0.187 C 
HETATM   40  C24 UNL     1      -7.383  18.457  22.802  1.00  0.00     0.151 C 
ENDBRANCH  32  35
ENDBRANCH  26  32
ENDBRANCH  25  26
ENDBRANCH   1  25
BRANCH   1  41
HETATM   41  N4  UNL     1      -9.248  17.144  25.477  1.00  0.00    -0.333 N 
HETATM   42  C30 UNL     1      -9.093  15.950  24.716  1.00  0.00     0.318 C 
HETATM   43  O4  UNL     1      -8.168  15.166  25.055  1.00  0.00    -0.247 OA
HETATM   44  N5  UNL     1      -9.904  15.578  23.621  1.00  0.00    -0.343 N 
HETATM   45  C31 UNL     1      -9.597  14.398  22.849  1.00  0.00     0.154 C 
HETATM   46  C32 UNL     1     -11.108  16.311  23.298  1.00  0.00     0.154 C 
ATOM     47  H4  UNL     1      -9.954  17.820  25.188  1.00  0.00     0.165 HD
ENDBRANCH   1  41
TORSDOF 13
ENDMDL
MODEL 2
REMARK VINA RESULT: -8.620594718      6.541     12.805
REMARK  13 active torsions:
REMARK  status: ('A' for Active; 'I' for Inactive)
REMARK    1  A    between atoms: C7_7  and  N1_8 
REMARK    2  A    between atoms: N1_8  and  C8_11 
REMARK    3  A    between atoms: C8_11  and  C9_12 
REMARK    4  A    between atoms: C9_12  and  O1_13 
REMARK    5  A    between atoms: C10_15  and  N2_16 
REMARK    6  A    between atoms: C10_15  and  C17_24 
REMARK    7  A    between atoms: N2_16  and  C11_18 
REMARK    8  A    between atoms: C17_24  and  C18_25 
REMARK    9  A    between atoms: C17_24  and  N4_41 
REMARK   10  A    between atoms: C18_25  and  C19_26 
REMARK   11  A    between atoms: C19_26  and  C20_27 
REMARK   12  A    between atoms: C20_27  and  O2_28 
REMARK   13  A    between atoms: C20_27  and  N3_30 
REMARK       I    between atoms: N4_41  and  C30_43 
REMARK       I    between atoms: C30_43  and  N5_45 
ROOT
HETATM    1  C17 UNL     1     -12.895  11.495  35.139  1.00  0.00     0.140 C 
ENDROOT
BRANCH   1   2
HETATM    2  C10 UNL     1     -12.723  12.742  34.166  1.00  0.00     0.063 C 
HETATM    3  C9  UNL     1     -13.422  12.628  32.913  1.00  0.00     0.093 C 
BRANCH   3   4
HETATM    4  C8  UNL     1     -13.286  13.586  31.787  1.00  0.00     0.298 C 
BRANCH   4   5
HETATM    5  N1  UNL     1     -12.363  12.970  30.778  1.00  0.00    -0.065 N 
ATOM      6  H12 UNL     1     -12.816  12.286  30.171  1.00  0.00     0.278 HD
ATOM      7  H11 UNL     1     -11.678  12.333  31.185  1.00  0.00     0.278 HD
BRANCH   5   8
HETATM    8  C7  UNL     1     -11.776  14.076  30.068  1.00  0.00     0.190 C 
HETATM    9  C2  UNL     1     -11.428  13.557  28.682  1.00  0.00     0.012 C 
HETATM   10  C1  UNL     1     -12.646  12.856  28.143  1.00  0.00     0.012 C 
HETATM   11  C3  UNL     1     -10.949  14.692  27.832  1.00  0.00     0.006 C 
HETATM   12  C4  UNL     1     -12.068  15.658  27.586  1.00  0.00     0.000 C 
HETATM   13  C5  UNL     1     -13.090  15.712  28.669  1.00  0.00     0.002 C 
HETATM   14  C6  UNL     1     -12.587  15.316  30.034  1.00  0.00     0.033 C 
ENDBRANCH   5   8
ENDBRANCH   4   5
ENDBRANCH   3   4
BRANCH   3  15
HETATM   15  O1  UNL     1     -14.792  12.345  33.008  1.00  0.00    -0.361 OA
ATOM     16  H1  UNL     1     -14.910  11.922  33.851  1.00  0.00     0.217 HD
ENDBRANCH   3  15
BRANCH   2  17
HETATM   17  N2  UNL     1     -11.411  13.190  34.282  1.00  0.00    -0.363 N 
ATOM     18  H2  UNL     1     -10.701  12.458  34.303  1.00  0.00     0.165 HD
BRANCH  17  19
HETATM   19  C11 UNL     1     -10.935  14.473  34.370  1.00  0.00    -0.013 C 
HETATM   20  C12 UNL     1     -10.119  14.932  33.139  1.00  0.00     0.052 C 
HETATM   21  C13 UNL     1      -8.979  15.771  33.652  1.00  0.00     0.006 C 
HETATM   22  C14 UNL     1      -9.274  16.441  34.944  1.00  0.00     0.001 C 
HETATM   23  C15 UNL     1     -10.693  16.799  35.211  1.00  0.00     0.006 C 
HETATM   24  C16 UNL     1     -11.672  15.664  34.816  1.00  0.00     0.052 C 
ENDBRANCH  17  19
ENDBRANCH   2  17
ENDBRANCH   1   2
BRANCH   1  25
HETATM   25  C18 UNL     1     -11.943  11.531  36.207  1.00  0.00     0.049 C 
BRANCH  25  26
HETATM   26  C19 UNL     1     -12.343  11.684  37.624  1.00  0.00     0.027 C 
HETATM   27  C25 UNL     1     -13.873  11.631  37.772  1.00  0.00     0.018 C 
HETATM   28  C26 UNL     1     -14.272  12.330  39.038  1.00  0.00     0.001 C 
HETATM   29  C27 UNL     1     -14.258  13.842  38.865  1.00  0.00     0.000 C 
HETATM   30  C28 UNL     1     -13.135  14.084  37.854  1.00  0.00     0.001 C 
HETATM   31  C29 UNL     1     -11.993  13.121  38.076  1.00  0.00     0.018 C 
BRANCH  26  32
HETATM   32  C20 UNL     1     -11.734  10.771  38.580  1.00  0.00     0.122 C 
BRANCH  32  33
HETATM   33  O2  UNL     1     -10.824  11.235  39.400  1.00  0.00    -0.349 OA
ATOM     34  H2  UNL     1     -10.287  10.616  39.882  1.00  0.00     0.219 HD
ENDBRANCH  32  33
BRANCH  32  35
HETATM   35  N3  UNL     1     -11.978   9.384  38.767  1.00  0.00    -0.361 N 
HETATM   36  C21 UNL     1     -12.659   9.001  40.011  1.00  0.00     0.151 C 
HETATM   37  C22 UNL     1     -13.662   7.938  39.740  1.00  0.00     0.187 C 
HETATM   38  O3  UNL     1     -13.300   6.982  38.811  1.00  0.00    -0.388 OA
HETATM   39  C23 UNL     1     -11.916   7.002  38.622  1.00  0.00     0.187 C 
HETATM   40  C24 UNL     1     -11.637   8.326  37.881  1.00  0.00     0.151 C 
ENDBRANCH  32  35
ENDBRANCH  26  32
ENDBRANCH  25  26
ENDBRANCH   1  25
BRANCH   1  41
HETATM   41  N4  UNL     1     -12.769  10.418  34.196  1.00  0.00    -0.333 N 
HETATM   42  C30 UNL     1     -13.425   9.166  34.368  1.00  0.00     0.318 C 
HETATM   43  O4  UNL     1     -14.081   8.998  35.430  1.00  0.00    -0.247 OA
HETATM   44  N5  UNL     1     -13.403   8.107  33.433  1.00  0.00    -0.343 N 
HETATM   45  C31 UNL     1     -14.013   6.838  33.749  1.00  0.00     0.154 C 
HETATM   46  C32 UNL     1     -12.853   8.289  32.108  1.00  0.00     0.154 C 
ATOM     47  H4  UNL     1     -12.187  10.557  33.370  1.00  0.00     0.165 HD
ENDBRANCH   1  41
TORSDOF 13
ENDMDL
MODEL 3
REMARK VINA RESULT: -8.609037039      6.501     12.624
REMARK  13 active torsions:
REMARK  status: ('A' for Active; 'I' for Inactive)
REMARK    1  A    between atoms: C7_7  and  N1_8 
REMARK    2  A    between atoms: N1_8  and  C8_11 
REMARK    3  A    between atoms: C8_11  and  C9_12 
REMARK    4  A    between atoms: C9_12  and  O1_13 
REMARK    5  A    between atoms: C10_15  and  N2_16 
REMARK    6  A    between atoms: C10_15  and  C17_24 
REMARK    7  A    between atoms: N2_16  and  C11_18 
REMARK    8  A    between atoms: C17_24  and  C18_25 
REMARK    9  A    between atoms: C17_24  and  N4_41 
REMARK   10  A    between atoms: C18_25  and  C19_26 
REMARK   11  A    between atoms: C19_26  and  C20_27 
REMARK   12  A    between atoms: C20_27  and  O2_28 
REMARK   13  A    between atoms: C20_27  and  N3_30 
REMARK       I    between atoms: N4_41  and  C30_43 
REMARK       I    between atoms: C30_43  and  N5_45 
ROOT
HETATM    1  C17 UNL     1     -12.998  11.889  35.331  1.00  0.00     0.140 C 
ENDROOT
BRANCH   1   2
HETATM    2  C10 UNL     1     -12.635  13.064  34.323  1.00  0.00     0.063 C 
HETATM    3  C9  UNL     1     -13.395  13.065  33.100  1.00  0.00     0.093 C 
BRANCH   3   4
HETATM    4  C8  UNL     1     -13.128  13.961  31.947  1.00  0.00     0.298 C 
BRANCH   4   5
HETATM    5  N1  UNL     1     -12.236  13.221  30.996  1.00  0.00    -0.065 N 
ATOM      6  H12 UNL     1     -12.717  12.494  30.465  1.00  0.00     0.278 HD
ATOM      7  H11 UNL     1     -11.565  12.607  31.457  1.00  0.00     0.278 HD
BRANCH   5   8
HETATM    8  C7  UNL     1     -11.627  14.232  30.173  1.00  0.00     0.190 C 
HETATM    9  C2  UNL     1     -11.321  13.571  28.838  1.00  0.00     0.012 C 
HETATM   10  C1  UNL     1     -12.571  12.863  28.389  1.00  0.00     0.012 C 
HETATM   11  C3  UNL     1     -10.822  14.602  27.876  1.00  0.00     0.006 C 
HETATM   12  C4  UNL     1     -11.913  15.577  27.553  1.00  0.00     0.000 C 
HETATM   13  C5  UNL     1     -12.913  15.770  28.642  1.00  0.00     0.002 C 
HETATM   14  C6  UNL     1     -12.398  15.490  30.031  1.00  0.00     0.033 C 
ENDBRANCH   5   8
ENDBRANCH   4   5
ENDBRANCH   3   4
BRANCH   3  15
HETATM   15  O1  UNL     1     -14.789  13.050  33.255  1.00  0.00    -0.361 OA
ATOM     16  H1  UNL     1     -14.976  13.654  33.964  1.00  0.00     0.217 HD
ENDBRANCH   3  15
BRANCH   2  17
HETATM   17  N2  UNL     1     -11.258  13.256  34.377  1.00  0.00    -0.363 N 
ATOM     18  H2  UNL     1     -10.701  12.404  34.428  1.00  0.00     0.165 HD
BRANCH  17  19
HETATM   19  C11 UNL     1     -10.543  14.426  34.371  1.00  0.00    -0.013 C 
HETATM   20  C12 UNL     1     -10.108  14.910  35.775  1.00  0.00     0.052 C 
HETATM   21  C13 UNL     1     -10.234  16.410  35.784  1.00  0.00     0.006 C 
HETATM   22  C14 UNL     1     -10.083  17.024  34.441  1.00  0.00     0.001 C 
HETATM   23  C15 UNL     1      -9.205  16.317  33.470  1.00  0.00     0.006 C 
HETATM   24  C16 UNL     1      -9.434  14.784  33.475  1.00  0.00     0.052 C 
ENDBRANCH  17  19
ENDBRANCH   2  17
ENDBRANCH   1   2
BRANCH   1  25
HETATM   25  C18 UNL     1     -12.128  11.887  36.467  1.00  0.00     0.049 C 
BRANCH  25  26
HETATM   26  C19 UNL     1     -12.576  12.310  37.813  1.00  0.00     0.027 C 
HETATM   27  C25 UNL     1     -11.394  12.836  38.645  1.00  0.00     0.018 C 
HETATM   28  C26 UNL     1     -11.723  12.717  40.103  1.00  0.00     0.001 C 
HETATM   29  C27 UNL     1     -11.542  11.290  40.598  1.00  0.00     0.000 C 
HETATM   30  C28 UNL     1     -11.895  10.433  39.379  1.00  0.00     0.001 C 
HETATM   31  C29 UNL     1     -13.025  11.053  38.593  1.00  0.00     0.018 C 
BRANCH  26  32
HETATM   32  C20 UNL     1     -13.670  13.267  37.870  1.00  0.00     0.122 C 
BRANCH  32  33
HETATM   33  O2  UNL     1     -13.418  14.525  37.609  1.00  0.00    -0.349 OA
ATOM     34  H2  UNL     1     -13.302  15.127  38.335  1.00  0.00     0.219 HD
ENDBRANCH  32  33
BRANCH  32  35
HETATM   35  N3  UNL     1     -15.036  13.041  38.189  1.00  0.00    -0.361 N 
HETATM   36  C21 UNL     1     -15.497  13.547  39.488  1.00  0.00     0.151 C 
HETATM   37  C22 UNL     1     -16.850  14.150  39.353  1.00  0.00     0.187 C 
HETATM   38  O3  UNL     1     -17.721  13.505  38.498  1.00  0.00    -0.388 OA
HETATM   39  C23 UNL     1     -17.271  12.206  38.251  1.00  0.00     0.187 C 
HETATM   40  C24 UNL     1     -16.007  12.382  37.386  1.00  0.00     0.151 C 
ENDBRANCH  32  35
ENDBRANCH  26  32
ENDBRANCH  25  26
ENDBRANCH   1  25
BRANCH   1  41
HETATM   41  N4  UNL     1     -12.909  10.760  34.446  1.00  0.00    -0.333 N 
HETATM   42  C30 UNL     1     -13.815   9.662  34.508  1.00  0.00     0.318 C 
HETATM   43  O4  UNL     1     -14.676   9.675  35.426  1.00  0.00    -0.247 OA
HETATM   44  N5  UNL     1     -13.824   8.571  33.612  1.00  0.00    -0.343 N 
HETATM   45  C31 UNL     1     -14.714   7.455  33.824  1.00  0.00     0.154 C 
HETATM   46  C32 UNL     1     -13.012   8.578  32.415  1.00  0.00     0.154 C 
ATOM     47  H4  UNL     1     -12.168  10.744  33.746  1.00  0.00     0.165 HD
ENDBRANCH   1  41
TORSDOF 13
ENDMDL
MODEL 4
REMARK VINA RESULT: -8.598739498      1.717      3.864
REMARK  13 active torsions:
REMARK  status: ('A' for Active; 'I' for Inactive)
REMARK    1  A    between atoms: C7_7  and  N1_8 
REMARK    2  A    between atoms: N1_8  and  C8_11 
REMARK    3  A    between atoms: C8_11  and  C9_12 
REMARK    4  A    between atoms: C9_12  and  O1_13 
REMARK    5  A    between atoms: C10_15  and  N2_16 
REMARK    6  A    between atoms: C10_15  and  C17_24 
REMARK    7  A    between atoms: N2_16  and  C11_18 
REMARK    8  A    between atoms: C17_24  and  C18_25 
REMARK    9  A    between atoms: C17_24  and  N4_41 
REMARK   10  A    between atoms: C18_25  and  C19_26 
REMARK   11  A    between atoms: C19_26  and  C20_27 
REMARK   12  A    between atoms: C20_27  and  O2_28 
REMARK   13  A    between atoms: C20_27  and  N3_30 
REMARK       I    between atoms: N4_41  and  C30_43 
REMARK       I    between atoms: C30_43  and  N5_45 
ROOT
HETATM    1  C17 UNL     1      -9.029  16.987  27.755  1.00  0.00     0.140 C 
ENDROOT
BRANCH   1   2
HETATM    2  C10 UNL     1      -9.314  16.277  29.149  1.00  0.00     0.063 C 
HETATM    3  C9  UNL     1      -8.488  16.730  30.237  1.00  0.00     0.093 C 
BRANCH   3   4
HETATM    4  C8  UNL     1      -8.460  16.109  31.585  1.00  0.00     0.298 C 
BRANCH   4   5
HETATM    5  N1  UNL     1      -9.672  16.586  32.329  1.00  0.00    -0.065 N 
ATOM      6  H12 UNL     1     -10.553  16.298  31.903  1.00  0.00     0.278 HD
ATOM      7  H11 UNL     1      -9.827  17.591  32.257  1.00  0.00     0.278 HD
BRANCH   5   8
HETATM    8  C7  UNL     1      -9.501  16.121  33.680  1.00  0.00     0.190 C 
HETATM    9  C2  UNL     1     -10.773  16.497  34.425  1.00  0.00     0.012 C 
HETATM   10  C1  UNL     1     -11.938  16.034  33.592  1.00  0.00     0.012 C 
HETATM   11  C3  UNL     1     -10.733  15.912  35.802  1.00  0.00     0.006 C 
HETATM   12  C4  UNL     1     -10.789  14.417  35.728  1.00  0.00     0.000 C 
HETATM   13  C5  UNL     1     -10.205  13.836  34.485  1.00  0.00     0.002 C 
HETATM   14  C6  UNL     1      -9.152  14.687  33.823  1.00  0.00     0.033 C 
ENDBRANCH   5   8
ENDBRANCH   4   5
ENDBRANCH   3   4
BRANCH   3  15
HETATM   15  O1  UNL     1      -8.484  18.115  30.456  1.00  0.00    -0.361 OA
ATOM     16  H1  UNL     1      -9.397  18.377  30.468  1.00  0.00     0.217 HD
ENDBRANCH   3  15
BRANCH   2  17
HETATM   17  N2  UNL     1      -9.586  14.937  28.892  1.00  0.00    -0.363 N 
ATOM     18  H2  UNL     1      -8.796  14.390  28.547  1.00  0.00     0.165 HD
BRANCH  17  19
HETATM   19  C11 UNL     1     -10.760  14.244  29.035  1.00  0.00    -0.013 C 
HETATM   20  C12 UNL     1     -11.765  14.896  30.015  1.00  0.00     0.052 C 
HETATM   21  C13 UNL     1     -12.431  13.778  30.773  1.00  0.00     0.006 C 
HETATM   22  C14 UNL     1     -12.478  12.500  30.019  1.00  0.00     0.001 C 
HETATM   23  C15 UNL     1     -12.548  12.591  28.536  1.00  0.00     0.006 C 
HETATM   24  C16 UNL     1     -11.582  13.660  27.965  1.00  0.00     0.052 C 
ENDBRANCH  17  19
ENDBRANCH   2  17
ENDBRANCH   1   2
BRANCH   1  25
HETATM   25  C18 UNL     1      -9.784  16.388  26.698  1.00  0.00     0.049 C 
BRANCH  25  26
HETATM   26  C19 UNL     1      -9.552  16.710  25.272  1.00  0.00     0.027 C 
HETATM   27  C25 UNL     1     -10.864  16.641  24.473  1.00  0.00     0.018 C 
HETATM   28  C26 UNL     1     -10.551  16.403  23.026  1.00  0.00     0.001 C 
HETATM   29  C27 UNL     1     -10.219  14.942  22.763  1.00  0.00     0.000 C 
HETATM   30  C28 UNL     1      -9.552  14.479  24.061  1.00  0.00     0.001 C 
HETATM   31  C29 UNL     1      -8.701  15.578  24.651  1.00  0.00     0.018 C 
BRANCH  26  32
HETATM   32  C20 UNL     1      -8.877  17.965  24.985  1.00  0.00     0.122 C 
BRANCH  32  33
HETATM   33  O2  UNL     1      -9.238  19.038  25.643  1.00  0.00    -0.349 OA
ATOM     34  H2  UNL     1      -9.463  19.821  25.153  1.00  0.00     0.219 HD
ENDBRANCH  32  33
BRANCH  32  35
HETATM   35  N3  UNL     1      -7.841  18.227  24.047  1.00  0.00    -0.361 N 
HETATM   36  C21 UNL     1      -6.538  18.613  24.604  1.00  0.00     0.151 C 
HETATM   37  C22 UNL     1      -5.441  17.949  23.849  1.00  0.00     0.187 C 
HETATM   38  O3  UNL     1      -5.622  17.840  22.484  1.00  0.00    -0.388 OA
HETATM   39  C23 UNL     1      -6.614  18.728  22.062  1.00  0.00     0.187 C 
HETATM   40  C24 UNL     1      -7.928  18.152  22.631  1.00  0.00     0.151 C 
ENDBRANCH  32  35
ENDBRANCH  26  32
ENDBRANCH  25  26
ENDBRANCH   1  25
BRANCH   1  41
HETATM   41  N4  UNL     1      -7.600  16.850  27.688  1.00  0.00    -0.333 N 
HETATM   42  C30 UNL     1      -6.716  17.964  27.765  1.00  0.00     0.318 C 
HETATM   43  O4  UNL     1      -7.235  19.110  27.826  1.00  0.00    -0.247 OA
HETATM   44  N5  UNL     1      -5.307  17.878  27.788  1.00  0.00    -0.343 N 
HETATM   45  C31 UNL     1      -4.498  19.073  27.760  1.00  0.00     0.154 C 
HETATM   46  C32 UNL     1      -4.637  16.604  27.930  1.00  0.00     0.154 C 
ATOM     47  H4  UNL     1      -7.203  15.917  27.581  1.00  0.00     0.165 HD
ENDBRANCH   1  41
TORSDOF 13
ENDMDL
MODEL 5
REMARK VINA RESULT: -8.510044587      4.357      8.429
REMARK  13 active torsions:
REMARK  status: ('A' for Active; 'I' for Inactive)
REMARK    1  A    between atoms: C7_7  and  N1_8 
REMARK    2  A    between atoms: N1_8  and  C8_11 
REMARK    3  A    between atoms: C8_11  and  C9_12 
REMARK    4  A    between atoms: C9_12  and  O1_13 
REMARK    5  A    between atoms: C10_15  and  N2_16 
REMARK    6  A    between atoms: C10_15  and  C17_24 
REMARK    7  A    between atoms: N2_16  and  C11_18 
REMARK    8  A    between atoms: C17_24  and  C18_25 
REMARK    9  A    between atoms: C17_24  and  N4_41 
REMARK   10  A    between atoms: C18_25  and  C19_26 
REMARK   11  A    between atoms: C19_26  and  C20_27 
REMARK   12  A    between atoms: C20_27  and  O2_28 
REMARK   13  A    between atoms: C20_27  and  N3_30 
REMARK       I    between atoms: N4_41  and  C30_43 
REMARK       I    between atoms: C30_43  and  N5_45 
ROOT
HETATM    1  C17 UNL     1      -3.828  17.340  20.757  1.00  0.00     0.140 C 
ENDROOT
BRANCH   1   2
HETATM    2  C10 UNL     1      -5.132  17.773  21.557  1.00  0.00     0.063 C 
HETATM    3  C9  UNL     1      -4.915  18.777  22.565  1.00  0.00     0.093 C 
BRANCH   3   4
HETATM    4  C8  UNL     1      -5.941  19.223  23.541  1.00  0.00     0.298 C 
BRANCH   4   5
HETATM    5  N1  UNL     1      -5.622  18.579  24.858  1.00  0.00    -0.065 N 
ATOM      6  H12 UNL     1      -5.499  19.246  25.620  1.00  0.00     0.278 HD
ATOM      7  H11 UNL     1      -4.687  18.174  24.901  1.00  0.00     0.278 HD
BRANCH   5   8
HETATM    8  C7  UNL     1      -6.677  17.627  25.086  1.00  0.00     0.190 C 
HETATM    9  C2  UNL     1      -6.454  17.068  26.483  1.00  0.00     0.012 C 
HETATM   10  C1  UNL     1      -6.259  18.237  27.410  1.00  0.00     0.012 C 
HETATM   11  C3  UNL     1      -7.600  16.179  26.851  1.00  0.00     0.006 C 
HETATM   12  C4  UNL     1      -8.856  16.985  26.981  1.00  0.00     0.000 C 
HETATM   13  C5  UNL     1      -8.901  18.205  26.126  1.00  0.00     0.002 C 
HETATM   14  C6  UNL     1      -8.054  18.137  24.881  1.00  0.00     0.033 C 
ENDBRANCH   5   8
ENDBRANCH   4   5
ENDBRANCH   3   4
BRANCH   3  15
HETATM   15  O1  UNL     1      -4.275  19.945  22.127  1.00  0.00    -0.361 OA
ATOM     16  H1  UNL     1      -3.373  19.869  22.415  1.00  0.00     0.217 HD
ENDBRANCH   3  15
BRANCH   2  17
HETATM   17  N2  UNL     1      -5.903  16.632  21.757  1.00  0.00    -0.363 N 
ATOM     18  H2  UNL     1      -5.385  15.801  22.046  1.00  0.00     0.165 HD
BRANCH  17  19
HETATM   19  C11 UNL     1      -7.257  16.462  21.622  1.00  0.00    -0.013 C 
HETATM   20  C12 UNL     1      -7.749  16.428  20.156  1.00  0.00     0.052 C 
HETATM   21  C13 UNL     1      -9.065  17.157  20.114  1.00  0.00     0.006 C 
HETATM   22  C14 UNL     1      -9.804  17.117  21.402  1.00  0.00     0.001 C 
HETATM   23  C15 UNL     1      -9.597  15.922  22.263  1.00  0.00     0.006 C 
HETATM   24  C16 UNL     1      -8.107  15.502  22.341  1.00  0.00     0.052 C 
ENDBRANCH  17  19
ENDBRANCH   2  17
ENDBRANCH   1   2
BRANCH   1  25
HETATM   25  C18 UNL     1      -4.141  16.427  19.700  1.00  0.00     0.049 C 
BRANCH  25  26
HETATM   26  C19 UNL     1      -3.865  16.730  18.278  1.00  0.00     0.027 C 
HETATM   27  C25 UNL     1      -2.997  17.992  18.145  1.00  0.00     0.018 C 
HETATM   28  C26 UNL     1      -3.200  18.591  16.785  1.00  0.00     0.001 C 
HETATM   29  C27 UNL     1      -4.500  19.378  16.713  1.00  0.00     0.000 C 
HETATM   30  C28 UNL     1      -5.433  18.631  17.670  1.00  0.00     0.001 C 
HETATM   31  C29 UNL     1      -5.193  17.141  17.602  1.00  0.00     0.018 C 
BRANCH  26  32
HETATM   32  C20 UNL     1      -3.287  15.661  17.480  1.00  0.00     0.122 C 
BRANCH  32  33
HETATM   33  O2  UNL     1      -4.015  15.118  16.535  1.00  0.00    -0.349 OA
ATOM     34  H2  UNL     1      -4.509  14.331  16.734  1.00  0.00     0.219 HD
ENDBRANCH  32  33
BRANCH  32  35
HETATM   35  N3  UNL     1      -1.996  15.076  17.573  1.00  0.00    -0.361 N 
HETATM   36  C21 UNL     1      -1.663  14.424  18.847  1.00  0.00     0.151 C 
HETATM   37  C22 UNL     1      -0.926  13.157  18.597  1.00  0.00     0.187 C 
HETATM   38  O3  UNL     1      -0.019  13.175  17.556  1.00  0.00    -0.388 OA
HETATM   39  C23 UNL     1       0.292  14.495  17.218  1.00  0.00     0.187 C 
HETATM   40  C24 UNL     1      -0.991  15.050  16.567  1.00  0.00     0.151 C 
ENDBRANCH  32  35
ENDBRANCH  26  32
ENDBRANCH  25  26
ENDBRANCH   1  25
BRANCH   1  41
HETATM   41  N4  UNL     1      -3.026  16.831  21.835  1.00  0.00    -0.333 N 
HETATM   42  C30 UNL     1      -1.849  17.489  22.294  1.00  0.00     0.318 C 
HETATM   43  O4  UNL     1      -1.482  18.519  21.670  1.00  0.00    -0.247 OA
HETATM   44  N5  UNL     1      -1.073  17.079  23.401  1.00  0.00    -0.343 N 
HETATM   45  C31 UNL     1       0.162  17.753  23.720  1.00  0.00     0.154 C 
HETATM   46  C32 UNL     1      -1.533  16.038  24.293  1.00  0.00     0.154 C 
ATOM     47  H4  UNL     1      -3.311  15.964  22.290  1.00  0.00     0.165 HD
ENDBRANCH   1  41
TORSDOF 13
ENDMDL
