MODEL 1
REMARK VINA RESULT: -9.732276737      0.000      0.000
REMARK  13 active torsions:
REMARK  status: ('A' for Active; 'I' for Inactive)
REMARK    1  A    between atoms: N1_2  and  C2_5 
REMARK    2  A    between atoms: C2_5  and  C4_7 
REMARK       I    between atoms: C4_7  and  N2_9 
REMARK    3  A    between atoms: N2_9  and  C5_11 
REMARK    4  A    between atoms: C5_11  and  C6_12 
REMARK    5  A    between atoms: C5_11  and  C13_19 
REMARK    6  A    between atoms: C6_12  and  C7_13 
REMARK       I    between atoms: C13_19  and  N3_21 
REMARK    7  A    between atoms: N3_21  and  C14_23 
REMARK    8  A    between atoms: C14_23  and  C15_24 
REMARK    9  A    between atoms: C14_23  and  C22_31 
REMARK   10  A    between atoms: C15_24  and  C16_25 
REMARK   11  A    between atoms: C22_31  and  O3_32 
REMARK   12  A    between atoms: C22_31  and  N4_34 
REMARK   13  A    between atoms: N5_36  and  C24_37 
ROOT
HETATM    1  N4  UNL     1      -6.369  17.164  26.545  1.00  0.00    -0.330 N 
HETATM    2  C23 UNL     1      -5.369  17.093  25.506  1.00  0.00     0.247 C 
HETATM    3  N5  UNL     1      -5.358  18.364  24.813  1.00  0.00    -0.392 N 
HETATM    4  C29 UNL     1      -5.109  19.505  25.602  1.00  0.00     0.122 C 
HETATM    5  C30 UNL     1      -6.150  19.585  26.737  1.00  0.00     0.060 C 
HETATM    6  C31 UNL     1      -6.194  18.279  27.484  1.00  0.00     0.196 C 
HETATM    7  C32 UNL     1      -4.946  18.084  28.226  1.00  0.00     0.085 C 
HETATM    8  N6  UNL     1      -3.968  17.950  28.802  1.00  0.00    -0.195 NA
ENDROOT
BRANCH   1   9
HETATM    9  C22 UNL     1      -7.407  16.239  26.674  1.00  0.00     0.139 C 
BRANCH   9  10
HETATM   10  C14 UNL     1      -8.702  16.263  26.009  1.00  0.00     0.159 C 
BRANCH  10  11
HETATM   11  N3  UNL     1      -9.722  16.243  27.049  1.00  0.00    -0.347 N 
HETATM   12  C13 UNL     1     -10.426  17.216  27.695  1.00  0.00     0.241 C 
HETATM   13  O2  UNL     1     -10.328  18.467  27.466  1.00  0.00    -0.271 OA
ATOM     14  H3  UNL     1      -9.960  15.301  27.360  1.00  0.00     0.163 HD
BRANCH  12  15
HETATM   15  C5  UNL     1     -11.437  16.874  28.790  1.00  0.00     0.177 C 
BRANCH  15  16
HETATM   16  N2  UNL     1     -11.406  15.433  28.838  1.00  0.00    -0.346 N 
HETATM   17  C4  UNL     1     -12.304  14.632  29.583  1.00  0.00     0.248 C 
HETATM   18  O1  UNL     1     -13.223  15.151  30.258  1.00  0.00    -0.271 OA
ATOM     19  H2  UNL     1     -10.686  14.956  28.296  1.00  0.00     0.163 HD
BRANCH  17  20
HETATM   20  C2  UNL     1     -12.169  13.161  29.572  1.00  0.00     0.272 C 
HETATM   21  C3  UNL     1     -12.677  12.508  28.336  1.00  0.00     0.050 C 
BRANCH  20  22
HETATM   22  N1  UNL     1     -12.625  12.537  30.816  1.00  0.00    -0.067 N 
HETATM   23  C1  UNL     1     -13.066  11.167  30.543  1.00  0.00     0.267 C 
ATOM     24  H12 UNL     1     -13.346  13.088  31.282  1.00  0.00     0.277 HD
ATOM     25  H11 UNL     1     -11.916  12.575  31.548  1.00  0.00     0.277 HD
ENDBRANCH  20  22
ENDBRANCH  17  20
ENDBRANCH  15  16
BRANCH  15  26
HETATM   26  C6  UNL     1     -11.062  17.567  30.018  1.00  0.00     0.039 C 
BRANCH  26  27
HETATM   27  C7  UNL     1      -9.974  16.939  30.860  1.00  0.00    -0.012 C 
HETATM   28  C8  UNL     1     -10.434  16.422  32.199  1.00  0.00     0.005 C 
HETATM   29  C9  UNL     1      -9.337  15.406  32.619  1.00  0.00     0.000 C 
HETATM   30  C10 UNL     1      -7.975  16.000  32.247  1.00  0.00     0.000 C 
HETATM   31  C11 UNL     1      -8.064  17.501  32.283  1.00  0.00     0.000 C 
HETATM   32  C12 UNL     1      -8.828  17.929  31.051  1.00  0.00     0.005 C 
ENDBRANCH  26  27
ENDBRANCH  15  26
ENDBRANCH  12  15
ENDBRANCH  10  11
BRANCH  10  33
HETATM   33  C15 UNL     1      -8.929  14.905  25.274  1.00  0.00     0.038 C 
BRANCH  33  34
HETATM   34  C16 UNL     1      -8.551  14.905  23.839  1.00  0.00    -0.012 C 
HETATM   35  C17 UNL     1      -9.875  14.632  23.071  1.00  0.00     0.005 C 
HETATM   36  C18 UNL     1     -10.621  15.918  22.955  1.00  0.00     0.000 C 
HETATM   37  C19 UNL     1      -9.953  16.768  21.875  1.00  0.00     0.000 C 
HETATM   38  C20 UNL     1      -8.485  16.464  21.894  1.00  0.00     0.000 C 
HETATM   39  C21 UNL     1      -7.979  16.185  23.309  1.00  0.00     0.005 C 
ENDBRANCH  33  34
ENDBRANCH  10  33
ENDBRANCH   9  10
BRANCH   9  40
HETATM   40  O3  UNL     1      -7.138  15.258  27.501  1.00  0.00    -0.348 OA
ATOM     41  H3  UNL     1      -6.347  15.303  28.025  1.00  0.00     0.219 HD
ENDBRANCH   9  40
ENDBRANCH   1   9
BRANCH   3  42
HETATM   42  C24 UNL     1      -4.711  18.299  23.533  1.00  0.00     0.080 C 
HETATM   43  C25 UNL     1      -3.341  17.725  23.594  1.00  0.00     0.025 C 
HETATM   44  C26 UNL     1      -2.737  18.093  22.253  1.00  0.00     0.002 C 
HETATM   45  C27 UNL     1      -3.431  19.341  21.829  1.00  0.00     0.002 C 
HETATM   46  C28 UNL     1      -4.588  19.569  22.799  1.00  0.00     0.025 C 
ENDBRANCH   3  42
TORSDOF 13
ENDMDL
MODEL 2
REMARK VINA RESULT: -9.337421481      2.062      4.537
REMARK  13 active torsions:
REMARK  status: ('A' for Active; 'I' for Inactive)
REMARK    1  A    between atoms: N1_2  and  C2_5 
REMARK    2  A    between atoms: C2_5  and  C4_7 
REMARK       I    between atoms: C4_7  and  N2_9 
REMARK    3  A    between atoms: N2_9  and  C5_11 
REMARK    4  A    between atoms: C5_11  and  C6_12 
REMARK    5  A    between atoms: C5_11  and  C13_19 
REMARK    6  A    between atoms: C6_12  and  C7_13 
REMARK       I    between atoms: C13_19  and  N3_21 
REMARK    7  A    between atoms: N3_21  and  C14_23 
REMARK    8  A    between atoms: C14_23  and  C15_24 
REMARK    9  A    between atoms: C14_23  and  C22_31 
REMARK   10  A    between atoms: C15_24  and  C16_25 
REMARK   11  A    between atoms: C22_31  and  O3_32 
REMARK   12  A    between atoms: C22_31  and  N4_34 
REMARK   13  A    between atoms: N5_36  and  C24_37 
ROOT
HETATM    1  N4  UNL     1      -8.609  17.412  24.600  1.00  0.00    -0.330 N 
HETATM    2  C23 UNL     1      -8.179  17.990  23.349  1.00  0.00     0.247 C 
HETATM    3  N5  UNL     1      -7.150  17.135  22.795  1.00  0.00    -0.392 N 
HETATM    4  C29 UNL     1      -7.508  15.790  22.571  1.00  0.00     0.122 C 
HETATM    5  C30 UNL     1      -7.998  15.160  23.892  1.00  0.00     0.060 C 
HETATM    6  C31 UNL     1      -9.070  16.022  24.502  1.00  0.00     0.196 C 
HETATM    7  C32 UNL     1     -10.279  15.979  23.675  1.00  0.00     0.085 C 
HETATM    8  N6  UNL     1     -11.214  15.932  23.020  1.00  0.00    -0.195 NA
ENDROOT
BRANCH   1   9
HETATM    9  C22 UNL     1      -8.616  18.115  25.806  1.00  0.00     0.139 C 
BRANCH   9  10
HETATM   10  C14 UNL     1      -7.637  18.039  26.881  1.00  0.00     0.159 C 
BRANCH  10  11
HETATM   11  N3  UNL     1      -8.374  18.063  28.138  1.00  0.00    -0.347 N 
HETATM   12  C13 UNL     1      -8.380  17.258  29.240  1.00  0.00     0.241 C 
HETATM   13  O2  UNL     1      -7.642  16.232  29.404  1.00  0.00    -0.271 OA
ATOM     14  H3  UNL     1      -9.022  18.847  28.209  1.00  0.00     0.163 HD
BRANCH  12  15
HETATM   15  C5  UNL     1      -9.310  17.536  30.422  1.00  0.00     0.177 C 
BRANCH  15  16
HETATM   16  N2  UNL     1     -10.484  16.755  30.118  1.00  0.00    -0.346 N 
HETATM   17  C4  UNL     1     -11.474  17.121  29.176  1.00  0.00     0.248 C 
HETATM   18  O1  UNL     1     -11.374  18.181  28.515  1.00  0.00    -0.271 OA
ATOM     19  H2  UNL     1     -10.610  15.876  30.619  1.00  0.00     0.163 HD
BRANCH  17  20
HETATM   20  C2  UNL     1     -12.647  16.250  28.957  1.00  0.00     0.272 C 
HETATM   21  C3  UNL     1     -12.818  15.184  29.978  1.00  0.00     0.050 C 
BRANCH  20  22
HETATM   22  N1  UNL     1     -12.762  15.785  27.573  1.00  0.00    -0.067 N 
HETATM   23  C1  UNL     1     -11.608  14.945  27.241  1.00  0.00     0.267 C 
ATOM     24  H12 UNL     1     -12.878  16.557  26.916  1.00  0.00     0.277 HD
ATOM     25  H11 UNL     1     -13.647  15.310  27.398  1.00  0.00     0.277 HD
ENDBRANCH  20  22
ENDBRANCH  17  20
ENDBRANCH  15  16
BRANCH  15  26
HETATM   26  C6  UNL     1      -8.618  17.201  31.662  1.00  0.00     0.039 C 
BRANCH  26  27
HETATM   27  C7  UNL     1      -9.439  16.564  32.760  1.00  0.00    -0.012 C 
HETATM   28  C8  UNL     1      -9.101  17.033  34.152  1.00  0.00     0.005 C 
HETATM   29  C9  UNL     1     -10.354  16.674  34.996  1.00  0.00     0.000 C 
HETATM   30  C10 UNL     1     -10.843  15.292  34.552  1.00  0.00     0.000 C 
HETATM   31  C11 UNL     1      -9.674  14.494  34.043  1.00  0.00     0.000 C 
HETATM   32  C12 UNL     1      -9.321  15.044  32.681  1.00  0.00     0.005 C 
ENDBRANCH  26  27
ENDBRANCH  15  26
ENDBRANCH  12  15
ENDBRANCH  10  11
BRANCH  10  33
HETATM   33  C15 UNL     1      -6.822  19.369  26.932  1.00  0.00     0.038 C 
BRANCH  33  34
HETATM   34  C16 UNL     1      -5.414  19.251  26.474  1.00  0.00    -0.012 C 
HETATM   35  C17 UNL     1      -4.615  18.814  27.734  1.00  0.00     0.005 C 
HETATM   36  C18 UNL     1      -4.767  17.339  27.896  1.00  0.00     0.000 C 
HETATM   37  C19 UNL     1      -3.879  16.646  26.863  1.00  0.00     0.000 C 
HETATM   38  C20 UNL     1      -3.828  17.517  25.643  1.00  0.00     0.000 C 
HETATM   39  C21 UNL     1      -5.154  18.238  25.402  1.00  0.00     0.005 C 
ENDBRANCH  33  34
ENDBRANCH  10  33
ENDBRANCH   9  10
BRANCH   9  40
HETATM   40  O3  UNL     1      -9.641  18.921  25.940  1.00  0.00    -0.348 OA
ATOM     41  H3  UNL     1     -10.346  18.877  25.304  1.00  0.00     0.219 HD
ENDBRANCH   9  40
ENDBRANCH   1   9
BRANCH   3  42
HETATM   42  C24 UNL     1      -6.370  17.782  21.778  1.00  0.00     0.080 C 
HETATM   43  C25 UNL     1      -6.606  17.235  20.417  1.00  0.00     0.025 C 
HETATM   44  C26 UNL     1      -5.450  17.782  19.604  1.00  0.00     0.002 C 
HETATM   45  C27 UNL     1      -4.337  17.983  20.573  1.00  0.00     0.002 C 
HETATM   46  C28 UNL     1      -4.911  17.775  21.973  1.00  0.00     0.025 C 
ENDBRANCH   3  42
TORSDOF 13
ENDMDL
MODEL 3
REMARK VINA RESULT: -9.152740105      1.802      5.513
REMARK  13 active torsions:
REMARK  status: ('A' for Active; 'I' for Inactive)
REMARK    1  A    between atoms: N1_2  and  C2_5 
REMARK    2  A    between atoms: C2_5  and  C4_7 
REMARK       I    between atoms: C4_7  and  N2_9 
REMARK    3  A    between atoms: N2_9  and  C5_11 
REMARK    4  A    between atoms: C5_11  and  C6_12 
REMARK    5  A    between atoms: C5_11  and  C13_19 
REMARK    6  A    between atoms: C6_12  and  C7_13 
REMARK       I    between atoms: C13_19  and  N3_21 
REMARK    7  A    between atoms: N3_21  and  C14_23 
REMARK    8  A    between atoms: C14_23  and  C15_24 
REMARK    9  A    between atoms: C14_23  and  C22_31 
REMARK   10  A    between atoms: C15_24  and  C16_25 
REMARK   11  A    between atoms: C22_31  and  O3_32 
REMARK   12  A    between atoms: C22_31  and  N4_34 
REMARK   13  A    between atoms: N5_36  and  C24_37 
ROOT
HETATM    1  N4  UNL     1      -6.572  18.051  26.621  1.00  0.00    -0.330 N 
HETATM    2  C23 UNL     1      -6.798  17.340  25.385  1.00  0.00     0.247 C 
HETATM    3  N5  UNL     1      -6.825  18.312  24.312  1.00  0.00    -0.392 N 
HETATM    4  C29 UNL     1      -5.677  19.115  24.167  1.00  0.00     0.122 C 
HETATM    5  C30 UNL     1      -5.400  19.863  25.487  1.00  0.00     0.060 C 
HETATM    6  C31 UNL     1      -5.365  18.886  26.631  1.00  0.00     0.196 C 
HETATM    7  C32 UNL     1      -4.187  18.022  26.516  1.00  0.00     0.085 C 
HETATM    8  N6  UNL     1      -3.262  17.359  26.413  1.00  0.00    -0.195 NA
ENDROOT
BRANCH   1   9
HETATM    9  C22 UNL     1      -7.409  17.941  27.733  1.00  0.00     0.139 C 
BRANCH   9  10
HETATM   10  C14 UNL     1      -7.547  16.800  28.628  1.00  0.00     0.159 C 
BRANCH  10  11
HETATM   11  N3  UNL     1      -8.756  16.088  28.235  1.00  0.00    -0.347 N 
HETATM   12  C13 UNL     1      -9.029  14.780  27.957  1.00  0.00     0.241 C 
HETATM   13  O2  UNL     1      -8.185  13.825  28.020  1.00  0.00    -0.271 OA
ATOM     14  H3  UNL     1      -9.571  16.695  28.149  1.00  0.00     0.163 HD
BRANCH  12  15
HETATM   15  C5  UNL     1     -10.428  14.332  27.535  1.00  0.00     0.177 C 
BRANCH  15  16
HETATM   16  N2  UNL     1     -11.034  13.905  28.772  1.00  0.00    -0.346 N 
HETATM   17  C4  UNL     1     -12.193  13.100  28.866  1.00  0.00     0.248 C 
HETATM   18  O1  UNL     1     -12.773  12.683  27.837  1.00  0.00    -0.271 OA
ATOM     19  H2  UNL     1     -10.595  14.206  29.642  1.00  0.00     0.163 HD
BRANCH  17  20
HETATM   20  C2  UNL     1     -12.737  12.736  30.190  1.00  0.00     0.272 C 
HETATM   21  C3  UNL     1     -12.346  13.658  31.289  1.00  0.00     0.050 C 
BRANCH  20  22
HETATM   22  N1  UNL     1     -12.570  11.315  30.505  1.00  0.00    -0.067 N 
HETATM   23  C1  UNL     1     -13.688  10.864  31.338  1.00  0.00     0.267 C 
ATOM     24  H12 UNL     1     -11.666  11.120  30.935  1.00  0.00     0.277 HD
ATOM     25  H11 UNL     1     -12.460  10.745  29.667  1.00  0.00     0.277 HD
ENDBRANCH  20  22
ENDBRANCH  17  20
ENDBRANCH  15  16
BRANCH  15  26
HETATM   26  C6  UNL     1     -11.090  15.430  26.839  1.00  0.00     0.039 C 
BRANCH  26  27
HETATM   27  C7  UNL     1     -10.903  15.510  25.340  1.00  0.00    -0.012 C 
HETATM   28  C8  UNL     1      -9.593  14.957  24.839  1.00  0.00     0.005 C 
HETATM   29  C9  UNL     1      -9.845  14.670  23.334  1.00  0.00     0.000 C 
HETATM   30  C10 UNL     1     -10.669  15.828  22.763  1.00  0.00     0.000 C 
HETATM   31  C11 UNL     1     -10.368  17.079  23.541  1.00  0.00     0.000 C 
HETATM   32  C12 UNL     1     -11.070  16.953  24.872  1.00  0.00     0.005 C 
ENDBRANCH  26  27
ENDBRANCH  15  26
ENDBRANCH  12  15
ENDBRANCH  10  11
BRANCH  10  33
HETATM   33  C15 UNL     1      -7.895  17.309  30.062  1.00  0.00     0.038 C 
BRANCH  33  34
HETATM   34  C16 UNL     1      -7.859  16.265  31.116  1.00  0.00    -0.012 C 
HETATM   35  C17 UNL     1      -7.347  16.995  32.390  1.00  0.00     0.005 C 
HETATM   36  C18 UNL     1      -8.500  17.700  33.019  1.00  0.00     0.000 C 
HETATM   37  C19 UNL     1      -9.368  16.665  33.735  1.00  0.00     0.000 C 
HETATM   38  C20 UNL     1      -9.282  15.383  32.963  1.00  0.00     0.000 C 
HETATM   39  C21 UNL     1      -9.172  15.629  31.458  1.00  0.00     0.005 C 
ENDBRANCH  33  34
ENDBRANCH  10  33
ENDBRANCH   9  10
BRANCH   9  40
HETATM   40  O3  UNL     1      -8.135  19.010  27.954  1.00  0.00    -0.348 OA
ATOM     41  H3  UNL     1      -8.126  19.400  28.821  1.00  0.00     0.219 HD
ENDBRANCH   9  40
ENDBRANCH   1   9
BRANCH   3  42
HETATM   42  C24 UNL     1      -7.426  17.805  23.111  1.00  0.00     0.080 C 
HETATM   43  C25 UNL     1      -6.861  16.501  22.675  1.00  0.00     0.025 C 
HETATM   44  C26 UNL     1      -7.352  16.354  21.250  1.00  0.00     0.002 C 
HETATM   45  C27 UNL     1      -7.532  17.743  20.742  1.00  0.00     0.002 C 
HETATM   46  C28 UNL     1      -7.372  18.686  21.933  1.00  0.00     0.025 C 
ENDBRANCH   3  42
TORSDOF 13
ENDMDL
MODEL 4
REMARK VINA RESULT: -9.119431672      2.529      9.011
REMARK  13 active torsions:
REMARK  status: ('A' for Active; 'I' for Inactive)
REMARK    1  A    between atoms: N1_2  and  C2_5 
REMARK    2  A    between atoms: C2_5  and  C4_7 
REMARK       I    between atoms: C4_7  and  N2_9 
REMARK    3  A    between atoms: N2_9  and  C5_11 
REMARK    4  A    between atoms: C5_11  and  C6_12 
REMARK    5  A    between atoms: C5_11  and  C13_19 
REMARK    6  A    between atoms: C6_12  and  C7_13 
REMARK       I    between atoms: C13_19  and  N3_21 
REMARK    7  A    between atoms: N3_21  and  C14_23 
REMARK    8  A    between atoms: C14_23  and  C15_24 
REMARK    9  A    between atoms: C14_23  and  C22_31 
REMARK   10  A    between atoms: C15_24  and  C16_25 
REMARK   11  A    between atoms: C22_31  and  O3_32 
REMARK   12  A    between atoms: C22_31  and  N4_34 
REMARK   13  A    between atoms: N5_36  and  C24_37 
ROOT
HETATM    1  N4  UNL     1      -9.481  16.351  32.176  1.00  0.00    -0.330 N 
HETATM    2  C23 UNL     1     -10.912  16.280  32.348  1.00  0.00     0.247 C 
HETATM    3  N5  UNL     1     -11.253  14.912  32.680  1.00  0.00    -0.392 N 
HETATM    4  C29 UNL     1     -10.634  14.374  33.826  1.00  0.00     0.122 C 
HETATM    5  C30 UNL     1      -9.101  14.466  33.676  1.00  0.00     0.060 C 
HETATM    6  C31 UNL     1      -8.705  15.875  33.328  1.00  0.00     0.196 C 
HETATM    7  C32 UNL     1      -8.955  16.762  34.468  1.00  0.00     0.085 C 
HETATM    8  N6  UNL     1      -9.153  17.438  35.367  1.00  0.00    -0.195 NA
ENDROOT
BRANCH   1   9
HETATM    9  C22 UNL     1      -8.871  16.853  31.025  1.00  0.00     0.139 C 
BRANCH   9  10
HETATM   10  C14 UNL     1      -8.212  16.096  29.970  1.00  0.00     0.159 C 
BRANCH  10  11
HETATM   11  N3  UNL     1      -8.046  16.993  28.835  1.00  0.00    -0.347 N 
HETATM   12  C13 UNL     1      -7.126  17.080  27.830  1.00  0.00     0.241 C 
HETATM   13  O2  UNL     1      -6.142  16.285  27.666  1.00  0.00    -0.271 OA
ATOM     14  H3  UNL     1      -8.770  17.709  28.779  1.00  0.00     0.163 HD
BRANCH  12  15
HETATM   15  C5  UNL     1      -7.207  18.179  26.771  1.00  0.00     0.177 C 
BRANCH  15  16
HETATM   16  N2  UNL     1      -6.137  17.850  25.861  1.00  0.00    -0.346 N 
HETATM   17  C4  UNL     1      -5.349  18.797  25.168  1.00  0.00     0.248 C 
HETATM   18  O1  UNL     1      -5.533  20.027  25.323  1.00  0.00    -0.271 OA
ATOM     19  H2  UNL     1      -5.935  16.862  25.706  1.00  0.00     0.163 HD
BRANCH  17  20
HETATM   20  C2  UNL     1      -4.287  18.346  24.245  1.00  0.00     0.272 C 
HETATM   21  C3  UNL     1      -4.648  18.432  22.805  1.00  0.00     0.050 C 
BRANCH  20  22
HETATM   22  N1  UNL     1      -3.690  17.069  24.643  1.00  0.00    -0.067 N 
HETATM   23  C1  UNL     1      -2.268  17.063  24.291  1.00  0.00     0.267 C 
ATOM     24  H12 UNL     1      -4.188  16.271  24.249  1.00  0.00     0.277 HD
ATOM     25  H11 UNL     1      -3.843  16.863  25.630  1.00  0.00     0.277 HD
ENDBRANCH  20  22
ENDBRANCH  17  20
ENDBRANCH  15  16
BRANCH  15  26
HETATM   26  C6  UNL     1      -8.551  18.197  26.204  1.00  0.00     0.039 C 
BRANCH  26  27
HETATM   27  C7  UNL     1      -8.925  17.062  25.277  1.00  0.00    -0.012 C 
HETATM   28  C8  UNL     1      -8.313  17.145  23.902  1.00  0.00     0.005 C 
HETATM   29  C9  UNL     1      -8.395  15.694  23.354  1.00  0.00     0.000 C 
HETATM   30  C10 UNL     1      -9.754  15.113  23.757  1.00  0.00     0.000 C 
HETATM   31  C11 UNL     1     -10.753  16.230  23.879  1.00  0.00     0.000 C 
HETATM   32  C12 UNL     1     -10.444  16.962  25.165  1.00  0.00     0.005 C 
ENDBRANCH  26  27
ENDBRANCH  15  26
ENDBRANCH  12  15
ENDBRANCH  10  11
BRANCH  10  33
HETATM   33  C15 UNL     1      -9.195  15.017  29.418  1.00  0.00     0.038 C 
BRANCH  33  34
HETATM   34  C16 UNL     1     -10.153  15.514  28.399  1.00  0.00    -0.012 C 
HETATM   35  C17 UNL     1     -10.456  14.285  27.496  1.00  0.00     0.005 C 
HETATM   36  C18 UNL     1     -11.489  13.451  28.174  1.00  0.00     0.000 C 
HETATM   37  C19 UNL     1     -12.846  14.137  28.014  1.00  0.00     0.000 C 
HETATM   38  C20 UNL     1     -12.611  15.618  27.998  1.00  0.00     0.000 C 
HETATM   39  C21 UNL     1     -11.462  16.023  28.921  1.00  0.00     0.005 C 
ENDBRANCH  33  34
ENDBRANCH  10  33
ENDBRANCH   9  10
BRANCH   9  40
HETATM   40  O3  UNL     1      -8.923  18.159  30.929  1.00  0.00    -0.348 OA
ATOM     41  H3  UNL     1      -8.817  18.682  31.716  1.00  0.00     0.219 HD
ENDBRANCH   9  40
ENDBRANCH   1   9
BRANCH   3  42
HETATM   42  C24 UNL     1     -12.645  14.618  32.489  1.00  0.00     0.080 C 
HETATM   43  C25 UNL     1     -13.501  15.058  33.622  1.00  0.00     0.025 C 
HETATM   44  C26 UNL     1     -14.811  14.336  33.384  1.00  0.00     0.002 C 
HETATM   45  C27 UNL     1     -14.457  13.095  32.641  1.00  0.00     0.002 C 
HETATM   46  C28 UNL     1     -12.986  13.207  32.245  1.00  0.00     0.025 C 
ENDBRANCH   3  42
TORSDOF 13
ENDMDL
MODEL 5
REMARK VINA RESULT: -8.981530302      1.591      2.456
REMARK  13 active torsions:
REMARK  status: ('A' for Active; 'I' for Inactive)
REMARK    1  A    between atoms: N1_2  and  C2_5 
REMARK    2  A    between atoms: C2_5  and  C4_7 
REMARK       I    between atoms: C4_7  and  N2_9 
REMARK    3  A    between atoms: N2_9  and  C5_11 
REMARK    4  A    between atoms: C5_11  and  C6_12 
REMARK    5  A    between atoms: C5_11  and  C13_19 
REMARK    6  A    between atoms: C6_12  and  C7_13 
REMARK       I    between atoms: C13_19  and  N3_21 
REMARK    7  A    between atoms: N3_21  and  C14_23 
REMARK    8  A    between atoms: C14_23  and  C15_24 
REMARK    9  A    between atoms: C14_23  and  C22_31 
REMARK   10  A    between atoms: C15_24  and  C16_25 
REMARK   11  A    between atoms: C22_31  and  O3_32 
REMARK   12  A    between atoms: C22_31  and  N4_34 
REMARK   13  A    between atoms: N5_36  and  C24_37 
ROOT
HETATM    1  N4  UNL     1      -5.315  17.842  24.889  1.00  0.00    -0.330 N 
HETATM    2  C23 UNL     1      -3.913  17.850  25.235  1.00  0.00     0.247 C 
HETATM    3  N5  UNL     1      -3.166  17.409  24.075  1.00  0.00    -0.392 N 
HETATM    4  C29 UNL     1      -3.344  18.158  22.895  1.00  0.00     0.122 C 
HETATM    5  C30 UNL     1      -4.840  18.187  22.522  1.00  0.00     0.060 C 
HETATM    6  C31 UNL     1      -5.653  18.640  23.704  1.00  0.00     0.196 C 
HETATM    7  C32 UNL     1      -5.381  20.052  23.989  1.00  0.00     0.085 C 
HETATM    8  N6  UNL     1      -5.160  21.154  24.193  1.00  0.00    -0.195 NA
ENDROOT
BRANCH   1   9
HETATM    9  C22 UNL     1      -6.283  17.158  25.627  1.00  0.00     0.139 C 
BRANCH   9  10
HETATM   10  C14 UNL     1      -7.682  16.959  25.280  1.00  0.00     0.159 C 
BRANCH  10  11
HETATM   11  N3  UNL     1      -8.427  16.865  26.529  1.00  0.00    -0.347 N 
HETATM   12  C13 UNL     1      -9.752  16.950  26.843  1.00  0.00     0.241 C 
HETATM   13  O2  UNL     1     -10.695  17.124  26.002  1.00  0.00    -0.271 OA
ATOM     14  H3  UNL     1      -7.831  16.702  27.341  1.00  0.00     0.163 HD
BRANCH  12  15
HETATM   15  C5  UNL     1     -10.236  16.835  28.288  1.00  0.00     0.177 C 
BRANCH  15  16
HETATM   16  N2  UNL     1     -10.475  15.422  28.453  1.00  0.00    -0.346 N 
HETATM   17  C4  UNL     1     -11.665  14.862  28.973  1.00  0.00     0.248 C 
HETATM   18  O1  UNL     1     -12.623  15.592  29.321  1.00  0.00    -0.271 OA
ATOM     19  H2  UNL     1      -9.733  14.781  28.173  1.00  0.00     0.163 HD
BRANCH  17  20
HETATM   20  C2  UNL     1     -11.796  13.398  29.112  1.00  0.00     0.272 C 
HETATM   21  C3  UNL     1     -12.650  12.757  28.078  1.00  0.00     0.050 C 
BRANCH  20  22
HETATM   22  N1  UNL     1     -12.091  12.978  30.484  1.00  0.00    -0.067 N 
HETATM   23  C1  UNL     1     -12.971  11.807  30.460  1.00  0.00     0.267 C 
ATOM     24  H12 UNL     1     -12.477  13.738  31.045  1.00  0.00     0.277 HD
ATOM     25  H11 UNL     1     -11.244  12.812  31.027  1.00  0.00     0.277 HD
ENDBRANCH  20  22
ENDBRANCH  17  20
ENDBRANCH  15  16
BRANCH  15  26
HETATM   26  C6  UNL     1      -9.237  17.426  29.173  1.00  0.00     0.039 C 
BRANCH  26  27
HETATM   27  C7  UNL     1      -9.002  16.742  30.502  1.00  0.00    -0.012 C 
HETATM   28  C8  UNL     1     -10.090  16.957  31.522  1.00  0.00     0.005 C 
HETATM   29  C9  UNL     1      -9.904  15.796  32.537  1.00  0.00     0.000 C 
HETATM   30  C10 UNL     1      -8.402  15.612  32.774  1.00  0.00     0.000 C 
HETATM   31  C11 UNL     1      -7.704  16.928  32.568  1.00  0.00     0.000 C 
HETATM   32  C12 UNL     1      -7.657  17.176  31.078  1.00  0.00     0.005 C 
ENDBRANCH  26  27
ENDBRANCH  15  26
ENDBRANCH  12  15
ENDBRANCH  10  11
BRANCH  10  33
HETATM   33  C15 UNL     1      -7.863  15.537  24.661  1.00  0.00     0.038 C 
BRANCH  33  34
HETATM   34  C16 UNL     1      -8.102  15.524  23.196  1.00  0.00    -0.012 C 
HETATM   35  C17 UNL     1      -9.359  14.629  23.000  1.00  0.00     0.005 C 
HETATM   36  C18 UNL     1     -10.569  15.458  23.269  1.00  0.00     0.000 C 
HETATM   37  C19 UNL     1     -10.804  16.374  22.068  1.00  0.00     0.000 C 
HETATM   38  C20 UNL     1      -9.466  16.719  21.486  1.00  0.00     0.000 C 
HETATM   39  C21 UNL     1      -8.391  16.852  22.565  1.00  0.00     0.005 C 
ENDBRANCH  33  34
ENDBRANCH  10  33
ENDBRANCH   9  10
BRANCH   9  40
HETATM   40  O3  UNL     1      -5.832  16.659  26.752  1.00  0.00    -0.348 OA
ATOM     41  H3  UNL     1      -4.934  16.839  27.007  1.00  0.00     0.219 HD
ENDBRANCH   9  40
ENDBRANCH   1   9
BRANCH   3  42
HETATM   42  C24 UNL     1      -1.829  16.994  24.393  1.00  0.00     0.080 C 
HETATM   43  C25 UNL     1      -0.790  17.697  23.597  1.00  0.00     0.025 C 
HETATM   44  C26 UNL     1       0.457  16.865  23.818  1.00  0.00     0.002 C 
HETATM   45  C27 UNL     1      -0.027  15.483  24.092  1.00  0.00     0.002 C 
HETATM   46  C28 UNL     1      -1.542  15.557  24.259  1.00  0.00     0.025 C 
ENDBRANCH   3  42
TORSDOF 13
ENDMDL
