MODEL 1
REMARK VINA RESULT: -9.907453253      0.000      0.000
REMARK  11 active torsions:
REMARK  status: ('A' for Active; 'I' for Inactive)
REMARK    1  A    between atoms: C2_2  and  C4_4 
REMARK    2  A    between atoms: C4_4  and  C5_5 
REMARK    3  A    between atoms: C5_5  and  N1_6 
REMARK    4  A    between atoms: C5_5  and  C27_31 
REMARK       I    between atoms: N1_6  and  C6_8 
REMARK    5  A    between atoms: C6_8  and  C7_10 
REMARK       I    between atoms: C27_31  and  N2_33 
REMARK    6  A    between atoms: N2_33  and  C28_35 
REMARK    7  A    between atoms: C28_35  and  C30_37 
REMARK    8  A    between atoms: C30_37  and  O4_38 
REMARK    9  A    between atoms: C30_37  and  C31_40 
REMARK   10  A    between atoms: C31_40  and  N3_41 
REMARK   11  A    between atoms: N3_41  and  C32_44 
ROOT
HETATM    1  N1  UNL     1      -9.178  15.042  25.862  1.00  0.00    -0.347 N 
ATOM      2  H1  UNL     1     -10.110  15.270  25.517  1.00  0.00     0.163 HD
HETATM    3  C6  UNL     1      -9.085  14.438  27.120  1.00  0.00     0.222 C 
HETATM    4  O1  UNL     1      -7.937  14.132  27.591  1.00  0.00    -0.273 OA
ENDROOT
BRANCH   1   5
HETATM    5  C5  UNL     1      -8.059  15.367  25.013  1.00  0.00     0.177 C 
BRANCH   5   6
HETATM    6  C4  UNL     1      -8.284  15.128  23.571  1.00  0.00     0.038 C 
BRANCH   6   7
HETATM    7  C2  UNL     1      -9.449  15.775  22.933  1.00  0.00    -0.020 C 
HETATM    8  C1  UNL     1     -10.505  14.675  22.727  1.00  0.00     0.009 C 
HETATM    9  C3  UNL     1      -9.232  16.388  21.596  1.00  0.00     0.009 C 
ENDBRANCH   6   7
ENDBRANCH   5   6
BRANCH   5  10
HETATM   10  C27 UNL     1      -7.532  16.704  25.367  1.00  0.00     0.240 C 
HETATM   11  O3  UNL     1      -7.779  17.727  24.667  1.00  0.00    -0.271 OA
HETATM   12  N2  UNL     1      -6.719  16.907  26.511  1.00  0.00    -0.353 N 
ATOM     13  H2  UNL     1      -6.501  16.100  27.096  1.00  0.00     0.163 HD
BRANCH  12  14
HETATM   14  C28 UNL     1      -6.186  18.190  26.894  1.00  0.00     0.110 C 
HETATM   15  C29 UNL     1      -4.886  18.057  27.656  1.00  0.00     0.035 C 
BRANCH  14  16
HETATM   16  C30 UNL     1      -7.188  18.863  27.803  1.00  0.00     0.166 C 
BRANCH  16  17
HETATM   17  O4  UNL     1      -8.031  19.698  27.070  1.00  0.00    -0.392 OA
ATOM     18  H4  UNL     1      -7.699  20.588  27.067  1.00  0.00     0.210 HD
ENDBRANCH  16  17
BRANCH  16  19
HETATM   19  C31 UNL     1      -8.029  17.888  28.561  1.00  0.00     0.266 C 
BRANCH  19  20
HETATM   20  N3  UNL     1      -8.163  18.367  29.922  1.00  0.00    -0.068 N 
ATOM     21  H32 UNL     1      -7.344  18.910  30.198  1.00  0.00     0.277 HD
ATOM     22  H31 UNL     1      -8.876  19.094  29.982  1.00  0.00     0.277 HD
BRANCH  20  23
HETATM   23  C32 UNL     1      -8.422  17.322  30.870  1.00  0.00     0.186 A 
HETATM   24  C33 UNL     1      -8.581  17.684  32.321  1.00  0.00     0.035 A 
HETATM   25  C34 UNL     1      -7.300  17.070  31.891  1.00  0.00     0.035 A 
ENDBRANCH  20  23
ENDBRANCH  19  20
ENDBRANCH  16  19
ENDBRANCH  14  16
ENDBRANCH  12  14
ENDBRANCH   5  10
ENDBRANCH   1   5
BRANCH   3  26
HETATM   26  C7  UNL     1     -10.295  14.137  27.932  1.00  0.00     0.078 C 
HETATM   27  C8  UNL     1     -11.300  15.225  27.618  1.00  0.00     0.015 C 
HETATM   28  C9  UNL     1     -12.638  15.006  28.234  1.00  0.00     0.010 C 
HETATM   29  C10 UNL     1     -12.475  14.461  29.656  1.00  0.00    -0.040 C 
HETATM   30  C11 UNL     1     -12.616  12.979  29.574  1.00  0.00     0.015 C 
HETATM   31  C12 UNL     1     -13.519  15.130  30.494  1.00  0.00     0.010 C 
HETATM   32  C25 UNL     1     -11.124  14.915  30.147  1.00  0.00    -0.001 C 
HETATM   33  C13 UNL     1     -13.449  14.732  31.947  1.00  0.00     0.006 C 
HETATM   34  C14 UNL     1     -12.101  14.269  32.384  1.00  0.00    -0.001 C 
HETATM   35  C15 UNL     1     -10.957  14.882  31.622  1.00  0.00    -0.005 C 
HETATM   36  C23 UNL     1     -11.943  14.639  33.849  1.00  0.00    -0.025 C 
HETATM   37  C16 UNL     1      -9.704  14.114  32.066  1.00  0.00     0.006 C 
HETATM   38  C17 UNL     1      -9.448  14.503  33.485  1.00  0.00     0.018 C 
HETATM   39  C18 UNL     1     -10.601  14.338  34.411  1.00  0.00     0.024 C 
HETATM   40  C19 UNL     1     -10.587  12.992  35.109  1.00  0.00     0.024 C 
HETATM   41  C20 UNL     1     -10.474  15.363  35.511  1.00  0.00     0.136 C 
HETATM   42  O2  UNL     1      -9.865  15.268  36.550  1.00  0.00    -0.297 OA
HETATM   43  C21 UNL     1     -11.242  16.566  35.114  1.00  0.00     0.080 C 
HETATM   44  C22 UNL     1     -12.271  16.076  34.112  1.00  0.00     0.018 C 
HETATM   45  C24 UNL     1     -12.989  13.802  34.599  1.00  0.00     0.016 C 
HETATM   46  C26 UNL     1      -9.998  14.207  29.414  1.00  0.00     0.020 C 
ENDBRANCH   3  26
TORSDOF 11
ENDMDL
MODEL 2
REMARK VINA RESULT: -8.872331666      2.470      9.796
REMARK  11 active torsions:
REMARK  status: ('A' for Active; 'I' for Inactive)
REMARK    1  A    between atoms: C2_2  and  C4_4 
REMARK    2  A    between atoms: C4_4  and  C5_5 
REMARK    3  A    between atoms: C5_5  and  N1_6 
REMARK    4  A    between atoms: C5_5  and  C27_31 
REMARK       I    between atoms: N1_6  and  C6_8 
REMARK    5  A    between atoms: C6_8  and  C7_10 
REMARK       I    between atoms: C27_31  and  N2_33 
REMARK    6  A    between atoms: N2_33  and  C28_35 
REMARK    7  A    between atoms: C28_35  and  C30_37 
REMARK    8  A    between atoms: C30_37  and  O4_38 
REMARK    9  A    between atoms: C30_37  and  C31_40 
REMARK   10  A    between atoms: C31_40  and  N3_41 
REMARK   11  A    between atoms: N3_41  and  C32_44 
ROOT
HETATM    1  N1  UNL     1      -7.818  16.610  30.137  1.00  0.00    -0.347 N 
ATOM      2  H1  UNL     1      -7.427  17.528  30.348  1.00  0.00     0.163 HD
HETATM    3  C6  UNL     1      -7.490  16.037  28.903  1.00  0.00     0.222 C 
HETATM    4  O1  UNL     1      -7.956  14.887  28.597  1.00  0.00    -0.273 OA
ENDROOT
BRANCH   1   5
HETATM    5  C5  UNL     1      -8.665  16.005  31.133  1.00  0.00     0.177 C 
BRANCH   5   6
HETATM    6  C4  UNL     1      -8.572  16.611  32.478  1.00  0.00     0.038 C 
BRANCH   6   7
HETATM    7  C2  UNL     1      -9.569  16.212  33.492  1.00  0.00    -0.020 C 
HETATM    8  C1  UNL     1      -9.275  17.046  34.751  1.00  0.00     0.009 C 
HETATM    9  C3  UNL     1      -9.553  14.791  33.932  1.00  0.00     0.009 C 
ENDBRANCH   6   7
ENDBRANCH   5   6
BRANCH   5  10
HETATM   10  C27 UNL     1     -10.036  15.843  30.596  1.00  0.00     0.240 C 
HETATM   11  O3  UNL     1     -10.746  16.835  30.266  1.00  0.00    -0.271 OA
HETATM   12  N2  UNL     1     -10.624  14.565  30.425  1.00  0.00    -0.353 N 
ATOM     13  H2  UNL     1     -10.077  13.743  30.684  1.00  0.00     0.163 HD
BRANCH  12  14
HETATM   14  C28 UNL     1     -11.953  14.361  29.906  1.00  0.00     0.110 C 
HETATM   15  C29 UNL     1     -12.646  13.192  30.571  1.00  0.00     0.035 C 
BRANCH  14  16
HETATM   16  C30 UNL     1     -11.839  14.053  28.431  1.00  0.00     0.166 C 
BRANCH  16  17
HETATM   17  O4  UNL     1     -12.159  12.719  28.184  1.00  0.00    -0.392 OA
ATOM     18  H4  UNL     1     -11.515  12.142  28.577  1.00  0.00     0.210 HD
ENDBRANCH  16  17
BRANCH  16  19
HETATM   19  C31 UNL     1     -12.721  14.916  27.589  1.00  0.00     0.266 C 
BRANCH  19  20
HETATM   20  N3  UNL     1     -12.145  16.245  27.543  1.00  0.00    -0.068 N 
ATOM     21  H32 UNL     1     -12.779  16.899  27.082  1.00  0.00     0.277 HD
ATOM     22  H31 UNL     1     -12.120  16.662  28.474  1.00  0.00     0.277 HD
BRANCH  20  23
HETATM   23  C32 UNL     1     -10.847  16.283  26.934  1.00  0.00     0.186 A 
HETATM   24  C33 UNL     1     -10.249  17.617  26.584  1.00  0.00     0.035 A 
HETATM   25  C34 UNL     1     -10.817  16.797  25.485  1.00  0.00     0.035 A 
ENDBRANCH  20  23
ENDBRANCH  19  20
ENDBRANCH  16  19
ENDBRANCH  14  16
ENDBRANCH  12  14
ENDBRANCH   5  10
ENDBRANCH   1   5
BRANCH   3  26
HETATM   26  C7  UNL     1      -6.606  16.734  27.930  1.00  0.00     0.078 C 
HETATM   27  C8  UNL     1      -6.854  18.216  28.114  1.00  0.00     0.015 C 
HETATM   28  C9  UNL     1      -5.942  19.082  27.318  1.00  0.00     0.010 C 
HETATM   29  C10 UNL     1      -5.730  18.479  25.927  1.00  0.00    -0.040 C 
HETATM   30  C11 UNL     1      -4.451  17.712  25.975  1.00  0.00     0.015 C 
HETATM   31  C12 UNL     1      -5.722  19.621  24.960  1.00  0.00     0.010 C 
HETATM   32  C25 UNL     1      -6.937  17.627  25.630  1.00  0.00    -0.001 C 
HETATM   33  C13 UNL     1      -5.575  19.176  23.526  1.00  0.00     0.006 C 
HETATM   34  C14 UNL     1      -6.041  17.783  23.274  1.00  0.00    -0.001 C 
HETATM   35  C15 UNL     1      -7.141  17.320  24.192  1.00  0.00    -0.005 C 
HETATM   36  C23 UNL     1      -6.563  17.726  21.848  1.00  0.00    -0.025 C 
HETATM   37  C16 UNL     1      -7.308  15.819  23.916  1.00  0.00     0.006 C 
HETATM   38  C17 UNL     1      -7.898  15.701  22.550  1.00  0.00     0.018 C 
HETATM   39  C18 UNL     1      -7.167  16.421  21.472  1.00  0.00     0.024 C 
HETATM   40  C19 UNL     1      -6.159  15.532  20.771  1.00  0.00     0.024 C 
HETATM   41  C20 UNL     1      -8.161  16.819  20.410  1.00  0.00     0.136 C 
HETATM   42  O2  UNL     1      -8.539  16.171  19.464  1.00  0.00    -0.297 OA
HETATM   43  C21 UNL     1      -8.635  18.191  20.710  1.00  0.00     0.080 C 
HETATM   44  C22 UNL     1      -7.543  18.820  21.556  1.00  0.00     0.018 C 
HETATM   45  C24 UNL     1      -5.340  17.978  20.954  1.00  0.00     0.016 C 
HETATM   46  C26 UNL     1      -6.970  16.385  26.504  1.00  0.00     0.020 C 
ENDBRANCH   3  26
TORSDOF 11
ENDMDL
MODEL 3
REMARK VINA RESULT: -8.803605822      2.524      5.338
REMARK  11 active torsions:
REMARK  status: ('A' for Active; 'I' for Inactive)
REMARK    1  A    between atoms: C2_2  and  C4_4 
REMARK    2  A    between atoms: C4_4  and  C5_5 
REMARK    3  A    between atoms: C5_5  and  N1_6 
REMARK    4  A    between atoms: C5_5  and  C27_31 
REMARK       I    between atoms: N1_6  and  C6_8 
REMARK    5  A    between atoms: C6_8  and  C7_10 
REMARK       I    between atoms: C27_31  and  N2_33 
REMARK    6  A    between atoms: N2_33  and  C28_35 
REMARK    7  A    between atoms: C28_35  and  C30_37 
REMARK    8  A    between atoms: C30_37  and  O4_38 
REMARK    9  A    between atoms: C30_37  and  C31_40 
REMARK   10  A    between atoms: C31_40  and  N3_41 
REMARK   11  A    between atoms: N3_41  and  C32_44 
ROOT
HETATM    1  N1  UNL     1      -7.763  17.023  26.277  1.00  0.00    -0.347 N 
ATOM      2  H1  UNL     1      -7.391  17.946  26.504  1.00  0.00     0.163 HD
HETATM    3  C6  UNL     1      -8.357  16.294  27.313  1.00  0.00     0.222 C 
HETATM    4  O1  UNL     1      -8.838  15.134  27.074  1.00  0.00    -0.273 OA
ENDROOT
BRANCH   1   5
HETATM    5  C5  UNL     1      -7.634  16.574  24.914  1.00  0.00     0.177 C 
BRANCH   5   6
HETATM    6  C4  UNL     1      -8.798  16.870  24.051  1.00  0.00     0.038 C 
BRANCH   6   7
HETATM    7  C2  UNL     1      -9.760  15.781  23.783  1.00  0.00    -0.020 C 
HETATM    8  C1  UNL     1      -8.958  14.634  23.145  1.00  0.00     0.009 C 
HETATM    9  C3  UNL     1     -10.870  16.078  22.838  1.00  0.00     0.009 C 
ENDBRANCH   6   7
ENDBRANCH   5   6
BRANCH   5  10
HETATM   10  C27 UNL     1      -6.316  16.978  24.374  1.00  0.00     0.240 C 
HETATM   11  O3  UNL     1      -5.298  17.097  25.114  1.00  0.00    -0.271 OA
HETATM   12  N2  UNL     1      -6.126  17.253  22.996  1.00  0.00    -0.353 N 
ATOM     13  H2  UNL     1      -6.929  17.167  22.373  1.00  0.00     0.163 HD
BRANCH  12  14
HETATM   14  C28 UNL     1      -4.862  17.648  22.428  1.00  0.00     0.110 C 
HETATM   15  C29 UNL     1      -4.692  19.151  22.419  1.00  0.00     0.035 C 
BRANCH  14  16
HETATM   16  C30 UNL     1      -4.822  17.171  20.995  1.00  0.00     0.166 C 
BRANCH  16  17
HETATM   17  O4  UNL     1      -5.262  15.851  20.906  1.00  0.00    -0.392 OA
ATOM     18  H4  UNL     1      -6.143  15.815  20.553  1.00  0.00     0.210 HD
ENDBRANCH  16  17
BRANCH  16  19
HETATM   19  C31 UNL     1      -5.656  18.010  20.081  1.00  0.00     0.266 C 
BRANCH  19  20
HETATM   20  N3  UNL     1      -6.533  17.132  19.332  1.00  0.00    -0.068 N 
ATOM     21  H32 UNL     1      -6.151  16.943  18.405  1.00  0.00     0.277 HD
ATOM     22  H31 UNL     1      -6.515  16.187  19.718  1.00  0.00     0.277 HD
BRANCH  20  23
HETATM   23  C32 UNL     1      -7.879  17.617  19.238  1.00  0.00     0.186 A 
HETATM   24  C33 UNL     1      -8.675  17.791  20.501  1.00  0.00     0.035 A 
HETATM   25  C34 UNL     1      -8.968  16.612  19.649  1.00  0.00     0.035 A 
ENDBRANCH  20  23
ENDBRANCH  19  20
ENDBRANCH  16  19
ENDBRANCH  14  16
ENDBRANCH  12  14
ENDBRANCH   5  10
ENDBRANCH   1   5
BRANCH   3  26
HETATM   26  C7  UNL     1      -8.448  16.836  28.696  1.00  0.00     0.078 C 
HETATM   27  C8  UNL     1      -7.114  16.552  29.353  1.00  0.00     0.015 C 
HETATM   28  C9  UNL     1      -6.968  17.158  30.705  1.00  0.00     0.010 C 
HETATM   29  C10 UNL     1      -8.280  17.024  31.482  1.00  0.00    -0.040 C 
HETATM   30  C11 UNL     1      -9.012  18.314  31.326  1.00  0.00     0.015 C 
HETATM   31  C12 UNL     1      -7.912  16.696  32.895  1.00  0.00     0.010 C 
HETATM   32  C25 UNL     1      -9.011  15.839  30.906  1.00  0.00    -0.001 C 
HETATM   33  C13 UNL     1      -9.113  16.478  33.780  1.00  0.00     0.006 C 
HETATM   34  C14 UNL     1     -10.338  16.051  33.045  1.00  0.00    -0.001 C 
HETATM   35  C15 UNL     1     -10.066  15.273  31.785  1.00  0.00    -0.005 C 
HETATM   36  C23 UNL     1     -11.148  15.168  33.978  1.00  0.00    -0.025 C 
HETATM   37  C16 UNL     1     -11.423  15.134  31.082  1.00  0.00     0.006 C 
HETATM   38  C17 UNL     1     -12.241  14.205  31.916  1.00  0.00     0.018 C 
HETATM   39  C18 UNL     1     -12.356  14.570  33.354  1.00  0.00     0.024 C 
HETATM   40  C19 UNL     1     -13.590  15.405  33.636  1.00  0.00     0.024 C 
HETATM   41  C20 UNL     1     -12.538  13.302  34.151  1.00  0.00     0.136 C 
HETATM   42  O2  UNL     1     -13.567  12.725  34.407  1.00  0.00    -0.297 OA
HETATM   43  C21 UNL     1     -11.202  12.840  34.597  1.00  0.00     0.080 C 
HETATM   44  C22 UNL     1     -10.323  14.077  34.589  1.00  0.00     0.018 C 
HETATM   45  C24 UNL     1     -11.590  16.084  35.128  1.00  0.00     0.016 C 
HETATM   46  C26 UNL     1      -9.512  16.123  29.500  1.00  0.00     0.020 C 
ENDBRANCH   3  26
TORSDOF 11
ENDMDL
MODEL 4
REMARK VINA RESULT: -8.788223125      1.649      4.228
REMARK  11 active torsions:
REMARK  status: ('A' for Active; 'I' for Inactive)
REMARK    1  A    between atoms: C2_2  and  C4_4 
REMARK    2  A    between atoms: C4_4  and  C5_5 
REMARK    3  A    between atoms: C5_5  and  N1_6 
REMARK    4  A    between atoms: C5_5  and  C27_31 
REMARK       I    between atoms: N1_6  and  C6_8 
REMARK    5  A    between atoms: C6_8  and  C7_10 
REMARK       I    between atoms: C27_31  and  N2_33 
REMARK    6  A    between atoms: N2_33  and  C28_35 
REMARK    7  A    between atoms: C28_35  and  C30_37 
REMARK    8  A    between atoms: C30_37  and  O4_38 
REMARK    9  A    between atoms: C30_37  and  C31_40 
REMARK   10  A    between atoms: C31_40  and  N3_41 
REMARK   11  A    between atoms: N3_41  and  C32_44 
ROOT
HETATM    1  N1  UNL     1      -8.126  16.170  26.962  1.00  0.00    -0.347 N 
ATOM      2  H1  UNL     1      -7.934  15.185  27.144  1.00  0.00     0.163 HD
HETATM    3  C6  UNL     1      -9.365  16.673  27.375  1.00  0.00     0.222 C 
HETATM    4  O1  UNL     1      -9.649  17.902  27.170  1.00  0.00    -0.273 OA
ENDROOT
BRANCH   1   5
HETATM    5  C5  UNL     1      -7.100  16.935  26.299  1.00  0.00     0.177 C 
BRANCH   5   6
HETATM    6  C4  UNL     1      -5.789  16.939  26.983  1.00  0.00     0.038 C 
BRANCH   6   7
HETATM    7  C2  UNL     1      -4.946  18.146  26.863  1.00  0.00    -0.020 C 
HETATM    8  C1  UNL     1      -4.071  18.197  28.127  1.00  0.00     0.009 C 
HETATM    9  C3  UNL     1      -5.648  19.456  26.799  1.00  0.00     0.009 C 
ENDBRANCH   6   7
ENDBRANCH   5   6
BRANCH   5  10
HETATM   10  C27 UNL     1      -7.071  16.594  24.858  1.00  0.00     0.240 C 
HETATM   11  O3  UNL     1      -7.293  15.421  24.444  1.00  0.00    -0.271 OA
HETATM   12  N2  UNL     1      -6.792  17.567  23.866  1.00  0.00    -0.353 N 
ATOM     13  H2  UNL     1      -6.607  18.524  24.168  1.00  0.00     0.163 HD
BRANCH  12  14
HETATM   14  C28 UNL     1      -6.754  17.280  22.454  1.00  0.00     0.110 C 
HETATM   15  C29 UNL     1      -5.498  17.816  21.803  1.00  0.00     0.035 C 
BRANCH  14  16
HETATM   16  C30 UNL     1      -7.937  17.959  21.805  1.00  0.00     0.166 C 
BRANCH  16  17
HETATM   17  O4  UNL     1      -7.511  18.863  20.833  1.00  0.00    -0.392 OA
ATOM     18  H4  UNL     1      -6.599  19.092  20.967  1.00  0.00     0.210 HD
ENDBRANCH  16  17
BRANCH  16  19
HETATM   19  C31 UNL     1      -8.884  16.993  21.171  1.00  0.00     0.266 C 
BRANCH  19  20
HETATM   20  N3  UNL     1      -9.106  15.900  22.097  1.00  0.00    -0.068 N 
ATOM     21  H32 UNL     1      -8.933  15.002  21.645  1.00  0.00     0.277 HD
ATOM     22  H31 UNL     1      -8.376  15.875  22.809  1.00  0.00     0.277 HD
BRANCH  20  23
HETATM   23  C32 UNL     1     -10.406  15.923  22.703  1.00  0.00     0.186 A 
HETATM   24  C33 UNL     1     -10.597  16.695  23.979  1.00  0.00     0.035 A 
HETATM   25  C34 UNL     1     -10.507  15.215  24.065  1.00  0.00     0.035 A 
ENDBRANCH  20  23
ENDBRANCH  19  20
ENDBRANCH  16  19
ENDBRANCH  14  16
ENDBRANCH  12  14
ENDBRANCH   5  10
ENDBRANCH   1   5
BRANCH   3  26
HETATM   26  C7  UNL     1     -10.368  15.810  28.055  1.00  0.00     0.078 C 
HETATM   27  C8  UNL     1     -11.697  16.526  27.936  1.00  0.00     0.015 C 
HETATM   28  C9  UNL     1     -12.855  15.736  28.437  1.00  0.00     0.010 C 
HETATM   29  C10 UNL     1     -12.465  14.992  29.718  1.00  0.00    -0.040 C 
HETATM   30  C11 UNL     1     -12.090  13.605  29.319  1.00  0.00     0.015 C 
HETATM   31  C12 UNL     1     -13.645  15.067  30.635  1.00  0.00     0.010 C 
HETATM   32  C25 UNL     1     -11.337  15.767  30.348  1.00  0.00    -0.001 C 
HETATM   33  C13 UNL     1     -13.392  14.420  31.973  1.00  0.00     0.006 C 
HETATM   34  C14 UNL     1     -11.953  14.367  32.357  1.00  0.00    -0.001 C 
HETATM   35  C15 UNL     1     -11.116  15.482  31.789  1.00  0.00    -0.005 C 
HETATM   36  C23 UNL     1     -11.881  14.450  33.873  1.00  0.00    -0.025 C 
HETATM   37  C16 UNL     1      -9.661  15.116  32.113  1.00  0.00     0.006 C 
HETATM   38  C17 UNL     1      -9.506  15.259  33.590  1.00  0.00     0.018 C 
HETATM   39  C18 UNL     1     -10.498  14.516  34.413  1.00  0.00     0.024 C 
HETATM   40  C19 UNL     1      -9.997  13.142  34.811  1.00  0.00     0.024 C 
HETATM   41  C20 UNL     1     -10.693  15.264  35.709  1.00  0.00     0.136 C 
HETATM   42  O2  UNL     1     -10.053  15.167  36.728  1.00  0.00    -0.297 OA
HETATM   43  C21 UNL     1     -11.842  16.186  35.543  1.00  0.00     0.080 C 
HETATM   44  C22 UNL     1     -12.674  15.596  34.419  1.00  0.00     0.018 C 
HETATM   45  C24 UNL     1     -12.548  13.165  34.386  1.00  0.00     0.016 C 
HETATM   46  C26 UNL     1     -10.062  15.661  29.529  1.00  0.00     0.020 C 
ENDBRANCH   3  26
TORSDOF 11
ENDMDL
MODEL 5
REMARK VINA RESULT: -8.772430081      1.998      3.794
REMARK  11 active torsions:
REMARK  status: ('A' for Active; 'I' for Inactive)
REMARK    1  A    between atoms: C2_2  and  C4_4 
REMARK    2  A    between atoms: C4_4  and  C5_5 
REMARK    3  A    between atoms: C5_5  and  N1_6 
REMARK    4  A    between atoms: C5_5  and  C27_31 
REMARK       I    between atoms: N1_6  and  C6_8 
REMARK    5  A    between atoms: C6_8  and  C7_10 
REMARK       I    between atoms: C27_31  and  N2_33 
REMARK    6  A    between atoms: N2_33  and  C28_35 
REMARK    7  A    between atoms: C28_35  and  C30_37 
REMARK    8  A    between atoms: C30_37  and  O4_38 
REMARK    9  A    between atoms: C30_37  and  C31_40 
REMARK   10  A    between atoms: C31_40  and  N3_41 
REMARK   11  A    between atoms: N3_41  and  C32_44 
ROOT
HETATM    1  N1  UNL     1      -8.101  16.107  25.695  1.00  0.00    -0.347 N 
ATOM      2  H1  UNL     1      -7.794  17.078  25.739  1.00  0.00     0.163 HD
HETATM    3  C6  UNL     1      -8.520  15.509  26.889  1.00  0.00     0.222 C 
HETATM    4  O1  UNL     1      -8.916  14.294  26.882  1.00  0.00    -0.273 OA
ENDROOT
BRANCH   1   5
HETATM    5  C5  UNL     1      -8.071  15.458  24.409  1.00  0.00     0.177 C 
BRANCH   5   6
HETATM    6  C4  UNL     1      -9.400  15.132  23.848  1.00  0.00     0.038 C 
BRANCH   6   7
HETATM    7  C2  UNL     1     -10.279  16.249  23.447  1.00  0.00    -0.020 C 
HETATM    8  C1  UNL     1     -11.142  16.591  24.674  1.00  0.00     0.009 C 
HETATM    9  C3  UNL     1     -11.234  15.993  22.335  1.00  0.00     0.009 C 
ENDBRANCH   6   7
ENDBRANCH   5   6
BRANCH   5  10
HETATM   10  C27 UNL     1      -7.153  16.184  23.502  1.00  0.00     0.240 C 
HETATM   11  O3  UNL     1      -7.255  16.107  22.245  1.00  0.00    -0.271 OA
HETATM   12  N2  UNL     1      -6.109  17.005  23.998  1.00  0.00    -0.353 N 
ATOM     13  H2  UNL     1      -5.999  17.087  25.009  1.00  0.00     0.163 HD
BRANCH  12  14
HETATM   14  C28 UNL     1      -5.193  17.729  23.153  1.00  0.00     0.110 C 
HETATM   15  C29 UNL     1      -3.792  17.747  23.723  1.00  0.00     0.035 C 
BRANCH  14  16
HETATM   16  C30 UNL     1      -5.672  19.159  23.059  1.00  0.00     0.166 C 
BRANCH  16  17
HETATM   17  O4  UNL     1      -7.058  19.221  23.192  1.00  0.00    -0.392 OA
ATOM     18  H4  UNL     1      -7.402  18.390  23.498  1.00  0.00     0.210 HD
ENDBRANCH  16  17
BRANCH  16  19
HETATM   19  C31 UNL     1      -5.057  20.045  24.094  1.00  0.00     0.266 C 
BRANCH  19  20
HETATM   20  N3  UNL     1      -6.083  20.400  25.055  1.00  0.00    -0.068 N 
ATOM     21  H32 UNL     1      -6.336  21.385  24.967  1.00  0.00     0.277 HD
ATOM     22  H31 UNL     1      -6.976  19.973  24.806  1.00  0.00     0.277 HD
BRANCH  20  23
HETATM   23  C32 UNL     1      -5.729  20.086  26.409  1.00  0.00     0.186 A 
HETATM   24  C33 UNL     1      -5.577  18.642  26.800  1.00  0.00     0.035 A 
HETATM   25  C34 UNL     1      -6.812  19.352  27.216  1.00  0.00     0.035 A 
ENDBRANCH  20  23
ENDBRANCH  19  20
ENDBRANCH  16  19
ENDBRANCH  14  16
ENDBRANCH  12  14
ENDBRANCH   5  10
ENDBRANCH   1   5
BRANCH   3  26
HETATM   26  C7  UNL     1      -8.519  16.254  28.177  1.00  0.00     0.078 C 
HETATM   27  C8  UNL     1      -7.139  16.072  28.773  1.00  0.00     0.015 C 
HETATM   28  C9  UNL     1      -6.905  16.875  30.005  1.00  0.00     0.010 C 
HETATM   29  C10 UNL     1      -8.158  16.862  30.884  1.00  0.00    -0.040 C 
HETATM   30  C11 UNL     1      -8.912  18.114  30.587  1.00  0.00     0.015 C 
HETATM   31  C12 UNL     1      -7.689  16.752  32.301  1.00  0.00     0.010 C 
HETATM   32  C25 UNL     1      -8.916  15.604  30.546  1.00  0.00    -0.001 C 
HETATM   33  C13 UNL     1      -8.823  16.671  33.291  1.00  0.00     0.006 C 
HETATM   34  C14 UNL     1     -10.092  16.139  32.717  1.00  0.00    -0.001 C 
HETATM   35  C15 UNL     1      -9.901  15.178  31.573  1.00  0.00    -0.005 C 
HETATM   36  C23 UNL     1     -10.826  15.408  33.828  1.00  0.00    -0.025 C 
HETATM   37  C16 UNL     1     -11.303  14.936  30.997  1.00  0.00     0.006 C 
HETATM   38  C17 UNL     1     -12.052  14.145  32.018  1.00  0.00     0.018 C 
HETATM   39  C18 UNL     1     -12.069  14.724  33.389  1.00  0.00     0.024 C 
HETATM   40  C19 UNL     1     -13.288  15.593  33.628  1.00  0.00     0.024 C 
HETATM   41  C20 UNL     1     -12.182  13.591  34.379  1.00  0.00     0.136 C 
HETATM   42  O2  UNL     1     -13.185  13.060  34.792  1.00  0.00    -0.297 OA
HETATM   43  C21 UNL     1     -10.814  13.201  34.794  1.00  0.00     0.080 C 
HETATM   44  C22 UNL     1      -9.950  14.422  34.537  1.00  0.00     0.018 C 
HETATM   45  C24 UNL     1     -11.196  16.488  34.855  1.00  0.00     0.016 C 
HETATM   46  C26 UNL     1      -9.517  15.672  29.153  1.00  0.00     0.020 C 
ENDBRANCH   3  26
TORSDOF 11
ENDMDL
