MODEL 1
REMARK VINA RESULT: -9.933395607      0.000      0.000
REMARK  13 active torsions:
REMARK  status: ('A' for Active; 'I' for Inactive)
REMARK    1  A    between atoms: C2_2  and  C3_3 
REMARK    2  A    between atoms: C8_8  and  C9_9 
REMARK       I    between atoms: C9_9  and  N1_11 
REMARK    3  A    between atoms: N1_11  and  C10_13 
REMARK    4  A    between atoms: C10_13  and  C11_14 
REMARK    5  A    between atoms: C10_13  and  C15_19 
REMARK    6  A    between atoms: C11_14  and  C12_16 
REMARK    7  A    between atoms: C19_23  and  N2_24 
REMARK    8  A    between atoms: N2_24  and  C20_26 
REMARK    9  A    between atoms: C20_26  and  O3_27 
REMARK   10  A    between atoms: C20_26  and  C21_29 
REMARK   11  A    between atoms: C21_29  and  N3_30 
REMARK   12  A    between atoms: C21_29  and  C26_41 
REMARK       I    between atoms: N3_30  and  C22_32 
REMARK   13  A    between atoms: C22_32  and  C23_34 
ROOT
HETATM    1  C3  UNL     1     -11.653  14.300  28.208  1.00  0.00    -0.005 C 
HETATM    2  C4  UNL     1     -10.598  14.588  27.218  1.00  0.00    -0.005 C 
HETATM    3  C5  UNL     1      -9.287  14.137  27.903  1.00  0.00     0.006 C 
HETATM    4  C6  UNL     1      -9.569  14.402  29.337  1.00  0.00     0.006 C 
HETATM    5  C7  UNL     1     -10.992  14.796  29.487  1.00  0.00     0.009 C 
HETATM    6  C8  UNL     1     -11.219  16.317  29.463  1.00  0.00     0.128 C 
HETATM    7  C19 UNL     1     -11.149  16.891  28.180  1.00  0.00     0.002 C 
HETATM    8  C32 UNL     1     -10.480  16.078  27.063  1.00  0.00     0.058 C 
ENDROOT
BRANCH   7   9
HETATM    9  N2  UNL     1     -10.745  18.252  27.860  1.00  0.00    -0.345 N 
ATOM     10  H2  UNL     1     -11.091  19.019  28.436  1.00  0.00     0.167 HD
BRANCH   9  11
HETATM   11  C20 UNL     1      -9.887  18.539  26.770  1.00  0.00     0.139 C 
BRANCH  11  12
HETATM   12  O3  UNL     1     -10.455  19.322  25.895  1.00  0.00    -0.348 OA
ATOM     13  H3  UNL     1     -11.262  18.951  25.557  1.00  0.00     0.219 HD
ENDBRANCH  11  12
BRANCH  11  14
HETATM   14  C21 UNL     1      -8.550  18.108  26.484  1.00  0.00     0.163 C 
BRANCH  14  15
HETATM   15  N3  UNL     1      -8.221  18.347  25.068  1.00  0.00    -0.343 N 
HETATM   16  C22 UNL     1      -8.367  17.424  24.035  1.00  0.00     0.270 C 
HETATM   17  O4  UNL     1      -8.810  16.278  24.119  1.00  0.00    -0.266 OA
ATOM     18  H3  UNL     1      -7.854  19.266  24.824  1.00  0.00     0.163 HD
BRANCH  16  19
HETATM   19  C23 UNL     1      -7.937  17.821  22.656  1.00  0.00     0.117 A 
HETATM   20  C24 UNL     1      -6.722  18.387  22.359  1.00  0.00     0.124 A 
HETATM   21  N4  UNL     1      -6.604  18.570  21.048  1.00  0.00    -0.360 N 
HETATM   22  C25 UNL     1      -7.778  18.103  20.500  1.00  0.00     0.180 A 
ATOM     23  H4  UNL     1      -5.810  18.973  20.551  1.00  0.00     0.166 HD
HETATM   24  N5  UNL     1      -8.552  17.666  21.503  1.00  0.00    -0.347 N 
ATOM     25  H5  UNL     1      -9.485  17.269  21.389  1.00  0.00     0.167 HD
ENDBRANCH  16  19
ENDBRANCH  14  15
BRANCH  14  26
HETATM   26  C26 UNL     1      -7.399  18.457  27.359  1.00  0.00     0.016 C 
HETATM   27  C27 UNL     1      -6.892  17.405  28.296  1.00  0.00     0.007 C 
HETATM   28  C28 UNL     1      -5.619  16.737  27.731  1.00  0.00     0.000 C 
HETATM   29  C29 UNL     1      -4.503  17.746  27.779  1.00  0.00     0.000 C 
HETATM   30  C30 UNL     1      -5.023  19.107  27.344  1.00  0.00     0.000 C 
HETATM   31  C31 UNL     1      -6.227  18.947  26.498  1.00  0.00     0.007 C 
ENDBRANCH  14  26
ENDBRANCH  11  14
ENDBRANCH   9  11
ENDBRANCH   7   9
BRANCH   6  32
HETATM   32  C9  UNL     1     -10.507  16.834  30.680  1.00  0.00     0.232 C 
HETATM   33  O1  UNL     1      -9.695  17.754  30.718  1.00  0.00    -0.272 OA
HETATM   34  N1  UNL     1     -10.843  16.159  31.865  1.00  0.00    -0.326 N 
ATOM     35  H1  UNL     1     -11.526  15.422  31.695  1.00  0.00     0.168 HD
BRANCH  34  36
HETATM   36  C10 UNL     1     -10.486  16.229  33.231  1.00  0.00     0.066 C 
BRANCH  36  37
HETATM   37  C11 UNL     1     -11.445  15.494  34.100  1.00  0.00     0.175 C 
HETATM   38  O2  UNL     1     -12.208  16.225  34.785  1.00  0.00    -0.291 OA
BRANCH  37  39
HETATM   39  C12 UNL     1     -11.635  14.043  34.210  1.00  0.00     0.053 C 
HETATM   40  C13 UNL     1     -11.580  13.296  35.457  1.00  0.00     0.018 C 
HETATM   41  C14 UNL     1     -13.032  13.709  33.591  1.00  0.00     0.018 C 
ENDBRANCH  37  39
ENDBRANCH  36  37
BRANCH  36  42
HETATM   42  C15 UNL     1      -9.117  16.412  33.696  1.00  0.00    -0.005 C 
HETATM   43  C16 UNL     1      -7.986  15.793  32.982  1.00  0.00     0.021 C 
HETATM   44  C17 UNL     1      -8.899  17.973  33.751  1.00  0.00     0.021 C 
HETATM   45  C18 UNL     1      -9.056  16.081  35.188  1.00  0.00     0.021 C 
ENDBRANCH  36  42
ENDBRANCH  34  36
ENDBRANCH   6  32
BRANCH   1  46
HETATM   46  C2  UNL     1     -12.221  12.957  28.320  1.00  0.00     0.001 C 
HETATM   47  C1  UNL     1     -12.598  12.405  29.634  1.00  0.00     0.005 C 
ENDBRANCH   1  46
TORSDOF 13
ENDMDL
MODEL 2
REMARK VINA RESULT: -9.291500070      1.892      9.628
REMARK  13 active torsions:
REMARK  status: ('A' for Active; 'I' for Inactive)
REMARK    1  A    between atoms: C2_2  and  C3_3 
REMARK    2  A    between atoms: C8_8  and  C9_9 
REMARK       I    between atoms: C9_9  and  N1_11 
REMARK    3  A    between atoms: N1_11  and  C10_13 
REMARK    4  A    between atoms: C10_13  and  C11_14 
REMARK    5  A    between atoms: C10_13  and  C15_19 
REMARK    6  A    between atoms: C11_14  and  C12_16 
REMARK    7  A    between atoms: C19_23  and  N2_24 
REMARK    8  A    between atoms: N2_24  and  C20_26 
REMARK    9  A    between atoms: C20_26  and  O3_27 
REMARK   10  A    between atoms: C20_26  and  C21_29 
REMARK   11  A    between atoms: C21_29  and  N3_30 
REMARK   12  A    between atoms: C21_29  and  C26_41 
REMARK       I    between atoms: N3_30  and  C22_32 
REMARK   13  A    between atoms: C22_32  and  C23_34 
ROOT
HETATM    1  C3  UNL     1      -7.090  18.827  27.291  1.00  0.00    -0.005 C 
HETATM    2  C4  UNL     1      -7.240  17.760  28.298  1.00  0.00    -0.005 C 
HETATM    3  C5  UNL     1      -6.791  16.471  27.570  1.00  0.00     0.006 C 
HETATM    4  C6  UNL     1      -7.193  16.741  26.166  1.00  0.00     0.006 C 
HETATM    5  C7  UNL     1      -7.664  18.145  26.058  1.00  0.00     0.009 C 
HETATM    6  C8  UNL     1      -9.186  18.300  26.215  1.00  0.00     0.128 C 
HETATM    7  C19 UNL     1      -9.641  18.203  27.543  1.00  0.00     0.002 C 
HETATM    8  C32 UNL     1      -8.705  17.572  28.582  1.00  0.00     0.058 C 
ENDROOT
BRANCH   7   9
HETATM    9  N2  UNL     1     -10.949  17.736  27.979  1.00  0.00    -0.345 N 
ATOM     10  H2  UNL     1     -11.695  17.639  27.291  1.00  0.00     0.167 HD
BRANCH   9  11
HETATM   11  C20 UNL     1     -11.214  17.415  29.333  1.00  0.00     0.139 C 
BRANCH  11  12
HETATM   12  O3  UNL     1     -11.459  18.478  30.048  1.00  0.00    -0.348 OA
ATOM     13  H3  UNL     1     -10.808  18.606  30.729  1.00  0.00     0.219 HD
ENDBRANCH  11  12
BRANCH  11  14
HETATM   14  C21 UNL     1     -11.238  16.154  30.015  1.00  0.00     0.163 C 
BRANCH  14  15
HETATM   15  N3  UNL     1     -11.090  16.349  31.468  1.00  0.00    -0.343 N 
HETATM   16  C22 UNL     1      -9.932  16.110  32.204  1.00  0.00     0.270 C 
HETATM   17  O4  UNL     1      -8.844  15.723  31.774  1.00  0.00    -0.266 OA
ATOM     18  H3  UNL     1     -11.905  16.687  31.979  1.00  0.00     0.163 HD
BRANCH  16  19
HETATM   19  C23 UNL     1      -9.972  16.317  33.687  1.00  0.00     0.117 A 
HETATM   20  C24 UNL     1      -9.064  17.075  34.386  1.00  0.00     0.124 A 
HETATM   21  N4  UNL     1      -9.394  17.123  35.672  1.00  0.00    -0.360 N 
HETATM   22  C25 UNL     1     -10.546  16.378  35.790  1.00  0.00     0.180 A 
ATOM     23  H4  UNL     1      -8.897  17.611  36.418  1.00  0.00     0.166 HD
HETATM   24  N5  UNL     1     -10.856  15.909  34.572  1.00  0.00    -0.347 N 
ATOM     25  H5  UNL     1     -11.661  15.320  34.362  1.00  0.00     0.167 HD
ENDBRANCH  16  19
ENDBRANCH  14  15
BRANCH  14  26
HETATM   26  C26 UNL     1     -12.260  15.113  29.725  1.00  0.00     0.016 C 
HETATM   27  C27 UNL     1     -12.601  14.854  28.290  1.00  0.00     0.007 C 
HETATM   28  C28 UNL     1     -11.885  13.583  27.780  1.00  0.00     0.000 C 
HETATM   29  C29 UNL     1     -12.508  12.392  28.458  1.00  0.00     0.000 C 
HETATM   30  C30 UNL     1     -12.754  12.709  29.925  1.00  0.00     0.000 C 
HETATM   31  C31 UNL     1     -11.844  13.787  30.374  1.00  0.00     0.007 C 
ENDBRANCH  14  26
ENDBRANCH  11  14
ENDBRANCH   9  11
ENDBRANCH   7   9
BRANCH   6  32
HETATM   32  C9  UNL     1      -9.774  17.565  25.045  1.00  0.00     0.232 C 
HETATM   33  O1  UNL     1     -10.872  17.016  25.001  1.00  0.00    -0.272 OA
HETATM   34  N1  UNL     1      -8.940  17.535  23.915  1.00  0.00    -0.326 N 
ATOM     35  H1  UNL     1      -8.063  18.027  24.083  1.00  0.00     0.168 HD
BRANCH  34  36
HETATM   36  C10 UNL     1      -8.992  17.004  22.606  1.00  0.00     0.066 C 
BRANCH  36  37
HETATM   37  C11 UNL     1      -8.270  17.860  21.625  1.00  0.00     0.175 C 
HETATM   38  O2  UNL     1      -8.986  18.323  20.699  1.00  0.00    -0.291 OA
BRANCH  37  39
HETATM   39  C12 UNL     1      -6.858  18.257  21.640  1.00  0.00     0.053 C 
HETATM   40  C13 UNL     1      -5.900  17.863  22.663  1.00  0.00     0.018 C 
HETATM   41  C14 UNL     1      -6.230  17.789  20.286  1.00  0.00     0.018 C 
ENDBRANCH  37  39
ENDBRANCH  36  37
BRANCH  36  42
HETATM   42  C15 UNL     1      -9.142  15.583  22.320  1.00  0.00    -0.005 C 
HETATM   43  C16 UNL     1     -10.393  14.874  22.646  1.00  0.00     0.021 C 
HETATM   44  C17 UNL     1      -8.853  15.434  20.778  1.00  0.00     0.021 C 
HETATM   45  C18 UNL     1      -7.937  14.835  22.892  1.00  0.00     0.021 C 
ENDBRANCH  36  42
ENDBRANCH  34  36
ENDBRANCH   6  32
BRANCH   1  46
HETATM   46  C2  UNL     1      -5.789  19.457  27.065  1.00  0.00     0.001 C 
HETATM   47  C1  UNL     1      -5.434  19.998  25.740  1.00  0.00     0.005 C 
ENDBRANCH   1  46
TORSDOF 13
ENDMDL
MODEL 3
REMARK VINA RESULT: -9.147668826      2.797      6.143
REMARK  13 active torsions:
REMARK  status: ('A' for Active; 'I' for Inactive)
REMARK    1  A    between atoms: C2_2  and  C3_3 
REMARK    2  A    between atoms: C8_8  and  C9_9 
REMARK       I    between atoms: C9_9  and  N1_11 
REMARK    3  A    between atoms: N1_11  and  C10_13 
REMARK    4  A    between atoms: C10_13  and  C11_14 
REMARK    5  A    between atoms: C10_13  and  C15_19 
REMARK    6  A    between atoms: C11_14  and  C12_16 
REMARK    7  A    between atoms: C19_23  and  N2_24 
REMARK    8  A    between atoms: N2_24  and  C20_26 
REMARK    9  A    between atoms: C20_26  and  O3_27 
REMARK   10  A    between atoms: C20_26  and  C21_29 
REMARK   11  A    between atoms: C21_29  and  N3_30 
REMARK   12  A    between atoms: C21_29  and  C26_41 
REMARK       I    between atoms: N3_30  and  C22_32 
REMARK   13  A    between atoms: C22_32  and  C23_34 
ROOT
HETATM    1  C3  UNL     1      -4.950  18.245  26.262  1.00  0.00    -0.005 C 
HETATM    2  C4  UNL     1      -5.121  19.589  25.681  1.00  0.00    -0.005 C 
HETATM    3  C5  UNL     1      -5.820  20.407  26.792  1.00  0.00     0.006 C 
HETATM    4  C6  UNL     1      -6.644  19.377  27.476  1.00  0.00     0.006 C 
HETATM    5  C7  UNL     1      -6.304  18.041  26.926  1.00  0.00     0.009 C 
HETATM    6  C8  UNL     1      -7.223  17.592  25.778  1.00  0.00     0.128 C 
HETATM    7  C19 UNL     1      -6.954  18.217  24.546  1.00  0.00     0.002 C 
HETATM    8  C32 UNL     1      -6.116  19.502  24.558  1.00  0.00     0.058 C 
ENDROOT
BRANCH   7   9
HETATM    9  N2  UNL     1      -7.910  18.477  23.479  1.00  0.00    -0.345 N 
ATOM     10  H2  UNL     1      -8.810  18.896  23.711  1.00  0.00     0.167 HD
BRANCH   9  11
HETATM   11  C20 UNL     1      -7.623  18.163  22.128  1.00  0.00     0.139 C 
BRANCH  11  12
HETATM   12  O3  UNL     1      -7.350  19.229  21.427  1.00  0.00    -0.348 OA
ATOM     13  H3  UNL     1      -8.031  19.421  20.793  1.00  0.00     0.219 HD
ENDBRANCH  11  12
BRANCH  11  14
HETATM   14  C21 UNL     1      -7.604  16.908  21.435  1.00  0.00     0.163 C 
BRANCH  14  15
HETATM   15  N3  UNL     1      -6.219  16.450  21.231  1.00  0.00    -0.343 N 
HETATM   16  C22 UNL     1      -5.364  16.880  20.219  1.00  0.00     0.270 C 
HETATM   17  O4  UNL     1      -5.605  17.718  19.349  1.00  0.00    -0.266 OA
ATOM     18  H3  UNL     1      -5.854  15.760  21.887  1.00  0.00     0.163 HD
BRANCH  16  19
HETATM   19  C23 UNL     1      -3.998  16.272  20.131  1.00  0.00     0.117 A 
HETATM   20  C24 UNL     1      -3.461  15.740  18.984  1.00  0.00     0.124 A 
HETATM   21  N4  UNL     1      -2.215  15.335  19.201  1.00  0.00    -0.360 N 
HETATM   22  C25 UNL     1      -1.953  15.623  20.523  1.00  0.00     0.180 A 
ATOM     23  H4  UNL     1      -1.582  14.900  18.529  1.00  0.00     0.166 HD
HETATM   24  N5  UNL     1      -3.054  16.182  21.044  1.00  0.00    -0.347 N 
ATOM     25  H5  UNL     1      -3.148  16.494  22.011  1.00  0.00     0.167 HD
ENDBRANCH  16  19
ENDBRANCH  14  15
BRANCH  14  26
HETATM   26  C26 UNL     1      -8.482  15.772  21.826  1.00  0.00     0.016 C 
HETATM   27  C27 UNL     1      -7.928  14.760  22.779  1.00  0.00     0.007 C 
HETATM   28  C28 UNL     1      -8.457  15.010  24.210  1.00  0.00     0.000 C 
HETATM   29  C29 UNL     1      -9.924  14.673  24.230  1.00  0.00     0.000 C 
HETATM   30  C30 UNL     1     -10.588  15.195  22.965  1.00  0.00     0.000 C 
HETATM   31  C31 UNL     1      -9.798  16.312  22.399  1.00  0.00     0.007 C 
ENDBRANCH  14  26
ENDBRANCH  11  14
ENDBRANCH   9  11
ENDBRANCH   7   9
BRANCH   6  32
HETATM   32  C9  UNL     1      -8.583  17.460  26.400  1.00  0.00     0.232 C 
HETATM   33  O1  UNL     1      -9.608  18.041  26.052  1.00  0.00    -0.272 OA
HETATM   34  N1  UNL     1      -8.629  16.569  27.485  1.00  0.00    -0.326 N 
ATOM     35  H1  UNL     1      -7.715  16.155  27.668  1.00  0.00     0.168 HD
BRANCH  34  36
HETATM   36  C10 UNL     1      -9.603  16.094  28.392  1.00  0.00     0.066 C 
BRANCH  36  37
HETATM   37  C11 UNL     1     -10.175  14.787  27.965  1.00  0.00     0.175 C 
HETATM   38  O2  UNL     1      -9.324  13.907  27.670  1.00  0.00    -0.291 OA
BRANCH  37  39
HETATM   39  C12 UNL     1     -11.588  14.398  27.899  1.00  0.00     0.053 C 
HETATM   40  C13 UNL     1     -12.325  13.771  28.986  1.00  0.00     0.018 C 
HETATM   41  C14 UNL     1     -12.406  15.682  27.535  1.00  0.00     0.018 C 
ENDBRANCH  37  39
ENDBRANCH  36  37
BRANCH  36  42
HETATM   42  C15 UNL     1      -9.621  16.438  29.808  1.00  0.00    -0.005 C 
HETATM   43  C16 UNL     1      -9.618  15.387  30.842  1.00  0.00     0.021 C 
HETATM   44  C17 UNL     1      -8.374  17.378  30.025  1.00  0.00     0.021 C 
HETATM   45  C18 UNL     1     -10.754  17.434  30.058  1.00  0.00     0.021 C 
ENDBRANCH  36  42
ENDBRANCH  34  36
ENDBRANCH   6  32
BRANCH   1  46
HETATM   46  C2  UNL     1      -3.814  17.952  27.136  1.00  0.00     0.001 C 
HETATM   47  C1  UNL     1      -3.999  17.812  28.592  1.00  0.00     0.005 C 
ENDBRANCH   1  46
TORSDOF 13
ENDMDL
MODEL 4
REMARK VINA RESULT: -9.137887730      3.606      6.380
REMARK  13 active torsions:
REMARK  status: ('A' for Active; 'I' for Inactive)
REMARK    1  A    between atoms: C2_2  and  C3_3 
REMARK    2  A    between atoms: C8_8  and  C9_9 
REMARK       I    between atoms: C9_9  and  N1_11 
REMARK    3  A    between atoms: N1_11  and  C10_13 
REMARK    4  A    between atoms: C10_13  and  C11_14 
REMARK    5  A    between atoms: C10_13  and  C15_19 
REMARK    6  A    between atoms: C11_14  and  C12_16 
REMARK    7  A    between atoms: C19_23  and  N2_24 
REMARK    8  A    between atoms: N2_24  and  C20_26 
REMARK    9  A    between atoms: C20_26  and  O3_27 
REMARK   10  A    between atoms: C20_26  and  C21_29 
REMARK   11  A    between atoms: C21_29  and  N3_30 
REMARK   12  A    between atoms: C21_29  and  C26_41 
REMARK       I    between atoms: N3_30  and  C22_32 
REMARK   13  A    between atoms: C22_32  and  C23_34 
ROOT
HETATM    1  C3  UNL     1      -9.029  16.777  22.458  1.00  0.00    -0.005 C 
HETATM    2  C4  UNL     1      -8.373  15.522  22.869  1.00  0.00    -0.005 C 
HETATM    3  C5  UNL     1      -9.455  14.761  23.670  1.00  0.00     0.006 C 
HETATM    4  C6  UNL     1     -10.231  15.866  24.290  1.00  0.00     0.006 C 
HETATM    5  C7  UNL     1      -9.752  17.160  23.742  1.00  0.00     0.009 C 
HETATM    6  C8  UNL     1      -8.667  17.832  24.600  1.00  0.00     0.128 C 
HETATM    7  C19 UNL     1      -7.390  17.255  24.470  1.00  0.00     0.002 C 
HETATM    8  C32 UNL     1      -7.293  15.849  23.862  1.00  0.00     0.058 C 
ENDROOT
BRANCH   7   9
HETATM    9  N2  UNL     1      -6.344  17.230  25.482  1.00  0.00    -0.345 N 
ATOM     10  H2  UNL     1      -6.459  16.632  26.300  1.00  0.00     0.167 HD
BRANCH   9  11
HETATM   11  C20 UNL     1      -5.170  18.014  25.361  1.00  0.00     0.139 C 
BRANCH  11  12
HETATM   12  O3  UNL     1      -4.996  18.793  26.393  1.00  0.00    -0.348 OA
ATOM     13  H3  UNL     1      -5.032  18.312  27.211  1.00  0.00     0.219 HD
ENDBRANCH  11  12
BRANCH  11  14
HETATM   14  C21 UNL     1      -4.193  18.094  24.315  1.00  0.00     0.163 C 
BRANCH  14  15
HETATM   15  N3  UNL     1      -3.405  16.850  24.247  1.00  0.00    -0.343 N 
HETATM   16  C22 UNL     1      -2.015  16.768  24.276  1.00  0.00     0.270 C 
HETATM   17  O4  UNL     1      -1.218  17.701  24.384  1.00  0.00    -0.266 OA
ATOM     18  H3  UNL     1      -3.922  15.975  24.171  1.00  0.00     0.163 HD
BRANCH  16  19
HETATM   19  C23 UNL     1      -1.376  15.420  24.148  1.00  0.00     0.117 A 
HETATM   20  C24 UNL     1      -0.604  15.029  23.082  1.00  0.00     0.124 A 
HETATM   21  N4  UNL     1      -0.126  13.805  23.280  1.00  0.00    -0.360 N 
HETATM   22  C25 UNL     1      -0.606  13.413  24.510  1.00  0.00     0.180 A 
ATOM     23  H4  UNL     1       0.473  13.268  22.653  1.00  0.00     0.166 HD
HETATM   24  N5  UNL     1      -1.356  14.412  24.995  1.00  0.00    -0.347 N 
ATOM     25  H5  UNL     1      -1.842  14.395  25.891  1.00  0.00     0.167 HD
ENDBRANCH  16  19
ENDBRANCH  14  15
BRANCH  14  26
HETATM   26  C26 UNL     1      -4.528  18.580  22.950  1.00  0.00     0.016 C 
HETATM   27  C27 UNL     1      -3.624  19.601  22.332  1.00  0.00     0.007 C 
HETATM   28  C28 UNL     1      -2.664  18.938  21.319  1.00  0.00     0.000 C 
HETATM   29  C29 UNL     1      -3.475  18.495  20.130  1.00  0.00     0.000 C 
HETATM   30  C30 UNL     1      -4.783  17.880  20.603  1.00  0.00     0.000 C 
HETATM   31  C31 UNL     1      -4.644  17.388  21.992  1.00  0.00     0.007 C 
ENDBRANCH  14  26
ENDBRANCH  11  14
ENDBRANCH   9  11
ENDBRANCH   7   9
BRANCH   6  32
HETATM   32  C9  UNL     1      -9.343  18.149  25.902  1.00  0.00     0.232 C 
HETATM   33  O1  UNL     1     -10.027  19.138  26.151  1.00  0.00    -0.272 OA
HETATM   34  N1  UNL     1      -9.140  17.180  26.900  1.00  0.00    -0.326 N 
ATOM     35  H1  UNL     1      -8.558  16.413  26.563  1.00  0.00     0.168 HD
BRANCH  34  36
HETATM   36  C10 UNL     1      -9.525  16.986  28.245  1.00  0.00     0.066 C 
BRANCH  36  37
HETATM   37  C11 UNL     1     -10.999  16.826  28.389  1.00  0.00     0.175 C 
HETATM   38  O2  UNL     1     -11.566  17.723  29.066  1.00  0.00    -0.291 OA
BRANCH  37  39
HETATM   39  C12 UNL     1     -11.856  15.791  27.801  1.00  0.00     0.053 C 
HETATM   40  C13 UNL     1     -11.504  14.382  27.709  1.00  0.00     0.018 C 
HETATM   41  C14 UNL     1     -13.218  15.825  28.570  1.00  0.00     0.018 C 
ENDBRANCH  37  39
ENDBRANCH  36  37
BRANCH  36  42
HETATM   42  C15 UNL     1      -8.655  16.397  29.255  1.00  0.00    -0.005 C 
HETATM   43  C16 UNL     1      -9.213  15.604  30.365  1.00  0.00     0.021 C 
HETATM   44  C17 UNL     1      -7.626  15.511  28.454  1.00  0.00     0.021 C 
HETATM   45  C18 UNL     1      -7.716  17.480  29.789  1.00  0.00     0.021 C 
ENDBRANCH  36  42
ENDBRANCH  34  36
ENDBRANCH   6  32
BRANCH   1  46
HETATM   46  C2  UNL     1      -9.879  16.817  21.268  1.00  0.00     0.001 C 
HETATM   47  C1  UNL     1      -9.293  16.711  19.920  1.00  0.00     0.005 C 
ENDBRANCH   1  46
TORSDOF 13
ENDMDL
MODEL 5
REMARK VINA RESULT: -9.128293866      1.788      9.633
REMARK  13 active torsions:
REMARK  status: ('A' for Active; 'I' for Inactive)
REMARK    1  A    between atoms: C2_2  and  C3_3 
REMARK    2  A    between atoms: C8_8  and  C9_9 
REMARK       I    between atoms: C9_9  and  N1_11 
REMARK    3  A    between atoms: N1_11  and  C10_13 
REMARK    4  A    between atoms: C10_13  and  C11_14 
REMARK    5  A    between atoms: C10_13  and  C15_19 
REMARK    6  A    between atoms: C11_14  and  C12_16 
REMARK    7  A    between atoms: C19_23  and  N2_24 
REMARK    8  A    between atoms: N2_24  and  C20_26 
REMARK    9  A    between atoms: C20_26  and  O3_27 
REMARK   10  A    between atoms: C20_26  and  C21_29 
REMARK   11  A    between atoms: C21_29  and  N3_30 
REMARK   12  A    between atoms: C21_29  and  C26_41 
REMARK       I    between atoms: N3_30  and  C22_32 
REMARK   13  A    between atoms: C22_32  and  C23_34 
ROOT
HETATM    1  C3  UNL     1      -6.688  18.440  27.631  1.00  0.00    -0.005 C 
HETATM    2  C4  UNL     1      -7.050  17.338  28.543  1.00  0.00    -0.005 C 
HETATM    3  C5  UNL     1      -6.739  16.053  27.743  1.00  0.00     0.006 C 
HETATM    4  C6  UNL     1      -7.009  16.474  26.343  1.00  0.00     0.006 C 
HETATM    5  C7  UNL     1      -7.272  17.935  26.320  1.00  0.00     0.009 C 
HETATM    6  C8  UNL     1      -8.764  18.297  26.407  1.00  0.00     0.128 C 
HETATM    7  C19 UNL     1      -9.312  18.175  27.697  1.00  0.00     0.002 C 
HETATM    8  C32 UNL     1      -8.542  17.345  28.732  1.00  0.00     0.058 C 
ENDROOT
BRANCH   7   9
HETATM    9  N2  UNL     1     -10.698  17.872  28.024  1.00  0.00    -0.345 N 
ATOM     10  H2  UNL     1     -11.400  17.905  27.286  1.00  0.00     0.167 HD
BRANCH   9  11
HETATM   11  C20 UNL     1     -11.097  17.534  29.341  1.00  0.00     0.139 C 
BRANCH  11  12
HETATM   12  O3  UNL     1     -11.481  18.581  30.018  1.00  0.00    -0.348 OA
ATOM     13  H3  UNL     1     -12.358  18.476  30.369  1.00  0.00     0.219 HD
ENDBRANCH  11  12
BRANCH  11  14
HETATM   14  C21 UNL     1     -11.129  16.273  30.022  1.00  0.00     0.163 C 
BRANCH  14  15
HETATM   15  N3  UNL     1     -10.980  16.466  31.475  1.00  0.00    -0.343 N 
HETATM   16  C22 UNL     1      -9.862  16.118  32.229  1.00  0.00     0.270 C 
HETATM   17  O4  UNL     1      -8.814  15.619  31.816  1.00  0.00    -0.266 OA
ATOM     18  H3  UNL     1     -11.763  16.890  31.972  1.00  0.00     0.163 HD
BRANCH  16  19
HETATM   19  C23 UNL     1      -9.900  16.343  33.709  1.00  0.00     0.117 A 
HETATM   20  C24 UNL     1     -11.021  16.184  34.486  1.00  0.00     0.124 A 
HETATM   21  N4  UNL     1     -10.731  16.394  35.766  1.00  0.00    -0.360 N 
HETATM   22  C25 UNL     1      -9.386  16.689  35.800  1.00  0.00     0.180 A 
ATOM     23  H4  UNL     1     -11.371  16.346  36.558  1.00  0.00     0.166 HD
HETATM   24  N5  UNL     1      -8.927  16.650  34.541  1.00  0.00    -0.347 N 
ATOM     25  H5  UNL     1      -7.962  16.833  34.266  1.00  0.00     0.167 HD
ENDBRANCH  16  19
ENDBRANCH  14  15
BRANCH  14  26
HETATM   26  C26 UNL     1     -12.157  15.238  29.730  1.00  0.00     0.016 C 
HETATM   27  C27 UNL     1     -12.558  15.039  28.302  1.00  0.00     0.007 C 
HETATM   28  C28 UNL     1     -11.858  13.797  27.706  1.00  0.00     0.000 C 
HETATM   29  C29 UNL     1     -12.445  12.574  28.358  1.00  0.00     0.000 C 
HETATM   30  C30 UNL     1     -12.629  12.824  29.846  1.00  0.00     0.000 C 
HETATM   31  C31 UNL     1     -11.706  13.888  30.302  1.00  0.00     0.007 C 
ENDBRANCH  14  26
ENDBRANCH  11  14
ENDBRANCH   9  11
ENDBRANCH   7   9
BRANCH   6  32
HETATM   32  C9  UNL     1      -9.372  17.737  25.153  1.00  0.00     0.232 C 
HETATM   33  O1  UNL     1     -10.509  17.290  25.027  1.00  0.00    -0.272 OA
HETATM   34  N1  UNL     1      -8.508  17.752  24.046  1.00  0.00    -0.326 N 
ATOM     35  H1  UNL     1      -7.599  18.149  24.285  1.00  0.00     0.168 HD
BRANCH  34  36
HETATM   36  C10 UNL     1      -8.561  17.363  22.688  1.00  0.00     0.066 C 
BRANCH  36  37
HETATM   37  C11 UNL     1      -7.442  17.942  21.895  1.00  0.00     0.175 C 
HETATM   38  O2  UNL     1      -7.781  18.828  21.067  1.00  0.00    -0.291 OA
BRANCH  37  39
HETATM   39  C12 UNL     1      -6.011  17.639  22.000  1.00  0.00     0.053 C 
HETATM   40  C13 UNL     1      -5.141  17.358  20.867  1.00  0.00     0.018 C 
HETATM   41  C14 UNL     1      -5.336  18.836  22.748  1.00  0.00     0.018 C 
ENDBRANCH  37  39
ENDBRANCH  36  37
BRANCH  36  42
HETATM   42  C15 UNL     1      -9.179  16.126  22.229  1.00  0.00    -0.005 C 
HETATM   43  C16 UNL     1      -9.025  14.875  22.993  1.00  0.00     0.021 C 
HETATM   44  C17 UNL     1     -10.714  16.455  22.084  1.00  0.00     0.021 C 
HETATM   45  C18 UNL     1      -8.812  15.907  20.761  1.00  0.00     0.021 C 
ENDBRANCH  36  42
ENDBRANCH  34  36
ENDBRANCH   6  32
BRANCH   1  46
HETATM   46  C2  UNL     1      -5.300  18.891  27.525  1.00  0.00     0.001 C 
HETATM   47  C1  UNL     1      -4.206  18.110  28.130  1.00  0.00     0.005 C 
ENDBRANCH   1  46
TORSDOF 13
ENDMDL
