MODEL 1
REMARK VINA RESULT: -5.689992770      0.000      0.000
REMARK  13 active torsions:
REMARK  status: ('A' for Active; 'I' for Inactive)
REMARK    1  A    between atoms: O1_2  and  C2_3 
REMARK    2  A    between atoms: C2_3  and  C3_5 
REMARK    3  A    between atoms: C3_5  and  O3_6 
REMARK    4  A    between atoms: C7_11  and  S1_12 
REMARK    5  A    between atoms: C10_18  and  C11_19 
REMARK    6  A    between atoms: C11_19  and  N1_20 
REMARK    7  A    between atoms: N1_20  and  N2_22 
REMARK    8  A    between atoms: N2_22  and  N3_23 
REMARK    9  A    between atoms: C13_26  and  N4_27 
REMARK   10  A    between atoms: C15_29  and  C16_30 
REMARK   11  A    between atoms: C16_30  and  N5_31 
REMARK   12  A    between atoms: N5_31  and  N6_32 
REMARK   13  A    between atoms: C17_39  and  O7_40 
ROOT
HETATM    1  C3  UNL     1      12.703  -9.677  61.525  1.00  0.00     0.203 C 
HETATM    2  C4  UNL     1      11.811  -8.539  61.912  1.00  0.00    -0.039 C 
HETATM    3  C5  UNL     1      11.525  -7.436  60.914  1.00  0.00     0.047 C 
HETATM    4  C6  UNL     1      11.278  -8.490  63.104  1.00  0.00     0.003 C 
HETATM    5  C7  UNL     1      11.440  -9.463  64.196  1.00  0.00     0.164 C 
HETATM    6  C8  UNL     1      12.550 -10.419  63.854  1.00  0.00     0.074 C 
HETATM    7  C9  UNL     1      12.304 -11.786  64.475  1.00  0.00    -0.011 C 
HETATM    8  C10 UNL     1      12.661 -12.723  63.626  1.00  0.00    -0.041 C 
HETATM    9  C13 UNL     1      13.177 -12.037  62.369  1.00  0.00     0.178 C 
HETATM   10  C17 UNL     1      12.351 -10.800  62.408  1.00  0.00     0.137 C 
ENDROOT
BRANCH   9  11
HETATM   11  N4  UNL     1      13.049 -12.869  61.230  1.00  0.00    -0.275 N 
HETATM   12  C14 UNL     1      13.906 -13.430  60.388  1.00  0.00     0.140 A 
HETATM   13  C15 UNL     1      13.214 -14.143  59.457  1.00  0.00     0.060 A 
HETATM   14  N7  UNL     1      11.921 -13.999  59.756  1.00  0.00    -0.288 N 
HETATM   15  N8  UNL     1      11.826 -13.245  60.806  1.00  0.00    -0.240 N 
ATOM     16  H7  UNL     1      11.141 -14.411  59.244  1.00  0.00     0.188 HD
ATOM     17  H8  UNL     1      10.948 -12.974  61.249  1.00  0.00     0.208 HD
BRANCH  13  18
HETATM   18  C16 UNL     1      13.686 -14.952  58.311  1.00  0.00     0.194 C 
BRANCH  18  19
HETATM   19  N5  UNL     1      14.411 -14.069  57.388  1.00  0.00    -0.142 NA
BRANCH  19  20
HETATM   20  N6  UNL     1      14.118 -14.447  56.070  1.00  0.00    -0.348 N 
ATOM     21  H62 UNL     1      14.810 -14.757  55.388  1.00  0.00     0.172 HD
ATOM     22  H61 UNL     1      13.114 -14.359  55.914  1.00  0.00     0.172 HD
ENDBRANCH  19  20
ENDBRANCH  18  19
ENDBRANCH  13  18
ENDBRANCH   9  11
BRANCH   8  23
HETATM   23  C11 UNL     1      12.580 -14.178  63.851  1.00  0.00     0.147 C 
BRANCH  23  24
HETATM   24  N1  UNL     1      11.275 -14.663  63.506  1.00  0.00    -0.215 NA
HETATM   25  C12 UNL     1      10.575 -15.046  64.708  1.00  0.00     0.134 C 
BRANCH  24  26
HETATM   26  N2  UNL     1      11.295 -15.619  62.515  1.00  0.00    -0.056 NA
BRANCH  26  27
HETATM   27  N3  UNL     1      12.543 -16.245  62.534  1.00  0.00    -0.333 N 
ATOM     28  H32 UNL     1      13.153 -16.362  61.724  1.00  0.00     0.173 HD
ATOM     29  H31 UNL     1      12.732 -16.557  63.486  1.00  0.00     0.173 HD
ENDBRANCH  26  27
ENDBRANCH  24  26
ENDBRANCH  23  24
ENDBRANCH   8  23
BRANCH  10  30
HETATM   30  O7  UNL     1      10.983 -11.067  62.259  1.00  0.00    -0.383 OA
ATOM     31  H7  UNL     1      10.499 -10.477  62.826  1.00  0.00     0.210 HD
ENDBRANCH  10  30
BRANCH   1  32
HETATM   32  C2  UNL     1      14.091  -9.186  61.575  1.00  0.00     0.301 C 
HETATM   33  O2  UNL     1      14.955  -9.686  60.768  1.00  0.00    -0.261 OA
BRANCH  32  34
HETATM   34  O1  UNL     1      14.605  -8.218  62.409  1.00  0.00    -0.324 OA
HETATM   35  C1  UNL     1      15.116  -6.989  61.980  1.00  0.00     0.213 C 
ENDBRANCH  32  34
ENDBRANCH   1  32
BRANCH   1  36
HETATM   36  O3  UNL     1      12.463 -10.000  60.161  1.00  0.00    -0.373 OA
ATOM     37  H3  UNL     1      11.518 -10.006  60.064  1.00  0.00     0.211 HD
ENDBRANCH   1  36
BRANCH   5  38
HETATM   38  S1  UNL     1      11.904  -8.650  65.719  1.00  0.00     0.110 S 
HETATM   39  O4  UNL     1      11.092  -7.364  65.775  1.00  0.00    -0.594 OA
HETATM   40  O5  UNL     1      13.349  -8.313  65.745  1.00  0.00    -0.594 OA
HETATM   41  O6  UNL     1      11.559  -9.631  67.023  1.00  0.00    -0.594 OA
ENDBRANCH   5  38
TORSDOF 13
ENDMDL
MODEL 2
REMARK VINA RESULT: -5.455013095      1.206      1.620
REMARK  13 active torsions:
REMARK  status: ('A' for Active; 'I' for Inactive)
REMARK    1  A    between atoms: O1_2  and  C2_3 
REMARK    2  A    between atoms: C2_3  and  C3_5 
REMARK    3  A    between atoms: C3_5  and  O3_6 
REMARK    4  A    between atoms: C7_11  and  S1_12 
REMARK    5  A    between atoms: C10_18  and  C11_19 
REMARK    6  A    between atoms: C11_19  and  N1_20 
REMARK    7  A    between atoms: N1_20  and  N2_22 
REMARK    8  A    between atoms: N2_22  and  N3_23 
REMARK    9  A    between atoms: C13_26  and  N4_27 
REMARK   10  A    between atoms: C15_29  and  C16_30 
REMARK   11  A    between atoms: C16_30  and  N5_31 
REMARK   12  A    between atoms: N5_31  and  N6_32 
REMARK   13  A    between atoms: C17_39  and  O7_40 
ROOT
HETATM    1  C3  UNL     1      12.790  -9.674  61.551  1.00  0.00     0.203 C 
HETATM    2  C4  UNL     1      11.915  -8.549  62.010  1.00  0.00    -0.039 C 
HETATM    3  C5  UNL     1      11.534  -7.450  61.041  1.00  0.00     0.047 C 
HETATM    4  C6  UNL     1      11.476  -8.511  63.240  1.00  0.00     0.003 C 
HETATM    5  C7  UNL     1      11.738  -9.482  64.313  1.00  0.00     0.164 C 
HETATM    6  C8  UNL     1      12.832 -10.421  63.882  1.00  0.00     0.074 C 
HETATM    7  C9  UNL     1      12.656 -11.793  64.517  1.00  0.00    -0.011 C 
HETATM    8  C10 UNL     1      12.959 -12.723  63.640  1.00  0.00    -0.041 C 
HETATM    9  C13 UNL     1      13.364 -12.027  62.348  1.00  0.00     0.178 C 
HETATM   10  C17 UNL     1      12.526 -10.803  62.455  1.00  0.00     0.137 C 
ENDROOT
BRANCH   9  11
HETATM   11  N4  UNL     1      13.159 -12.860  61.221  1.00  0.00    -0.275 N 
HETATM   12  C14 UNL     1      13.953 -13.397  60.306  1.00  0.00     0.140 A 
HETATM   13  C15 UNL     1      13.201 -14.125  59.433  1.00  0.00     0.060 A 
HETATM   14  N7  UNL     1      11.936 -14.013  59.843  1.00  0.00    -0.288 N 
HETATM   15  N8  UNL     1      11.913 -13.265  60.901  1.00  0.00    -0.240 N 
ATOM     16  H7  UNL     1      11.125 -14.443  59.399  1.00  0.00     0.188 HD
ATOM     17  H8  UNL     1      11.071 -13.016  61.419  1.00  0.00     0.208 HD
BRANCH  13  18
HETATM   18  C16 UNL     1      13.593 -14.919  58.247  1.00  0.00     0.194 C 
BRANCH  18  19
HETATM   19  N5  UNL     1      14.403 -14.067  57.367  1.00  0.00    -0.142 NA
BRANCH  19  20
HETATM   20  N6  UNL     1      14.130 -14.400  56.032  1.00  0.00    -0.348 N 
ATOM     21  H62 UNL     1      13.508 -13.874  55.419  1.00  0.00     0.172 HD
ATOM     22  H61 UNL     1      14.650 -15.242  55.786  1.00  0.00     0.172 HD
ENDBRANCH  19  20
ENDBRANCH  18  19
ENDBRANCH  13  18
ENDBRANCH   9  11
BRANCH   8  23
HETATM   23  C11 UNL     1      12.917 -14.179  63.866  1.00  0.00     0.147 C 
BRANCH  23  24
HETATM   24  N1  UNL     1      14.247 -14.707  63.958  1.00  0.00    -0.215 NA
HETATM   25  C12 UNL     1      14.374 -15.843  63.077  1.00  0.00     0.134 C 
BRANCH  24  26
HETATM   26  N2  UNL     1      14.656 -14.928  65.255  1.00  0.00    -0.056 NA
BRANCH  26  27
HETATM   27  N3  UNL     1      15.849 -15.654  65.221  1.00  0.00    -0.333 N 
ATOM     28  H32 UNL     1      16.158 -16.239  64.445  1.00  0.00     0.173 HD
ATOM     29  H31 UNL     1      16.346 -15.494  66.098  1.00  0.00     0.173 HD
ENDBRANCH  26  27
ENDBRANCH  24  26
ENDBRANCH  23  24
ENDBRANCH   8  23
BRANCH  10  30
HETATM   30  O7  UNL     1      11.153 -11.090  62.414  1.00  0.00    -0.383 OA
ATOM     31  H7  UNL     1      10.700 -10.335  62.057  1.00  0.00     0.210 HD
ENDBRANCH  10  30
BRANCH   1  32
HETATM   32  C2  UNL     1      14.169  -9.162  61.492  1.00  0.00     0.301 C 
HETATM   33  O2  UNL     1      14.955  -9.599  60.575  1.00  0.00    -0.261 OA
BRANCH  32  34
HETATM   34  O1  UNL     1      14.753  -8.235  62.327  1.00  0.00    -0.324 OA
HETATM   35  C1  UNL     1      15.214  -6.978  61.922  1.00  0.00     0.213 C 
ENDBRANCH  32  34
ENDBRANCH   1  32
BRANCH   1  36
HETATM   36  O3  UNL     1      12.448  -9.998  60.209  1.00  0.00    -0.373 OA
ATOM     37  H3  UNL     1      12.167 -10.905  60.231  1.00  0.00     0.211 HD
ENDBRANCH   1  36
BRANCH   5  38
HETATM   38  S1  UNL     1      12.309  -8.665  65.798  1.00  0.00     0.110 S 
HETATM   39  O4  UNL     1      12.084  -9.650  66.934  1.00  0.00    -0.594 OA
HETATM   40  O5  UNL     1      11.543  -7.423  66.071  1.00  0.00    -0.594 OA
HETATM   41  O6  UNL     1      13.925  -8.276  65.655  1.00  0.00    -0.594 OA
ENDBRANCH   5  38
TORSDOF 13
ENDMDL
MODEL 3
REMARK VINA RESULT: -5.446669804      3.189      5.365
REMARK  13 active torsions:
REMARK  status: ('A' for Active; 'I' for Inactive)
REMARK    1  A    between atoms: O1_2  and  C2_3 
REMARK    2  A    between atoms: C2_3  and  C3_5 
REMARK    3  A    between atoms: C3_5  and  O3_6 
REMARK    4  A    between atoms: C7_11  and  S1_12 
REMARK    5  A    between atoms: C10_18  and  C11_19 
REMARK    6  A    between atoms: C11_19  and  N1_20 
REMARK    7  A    between atoms: N1_20  and  N2_22 
REMARK    8  A    between atoms: N2_22  and  N3_23 
REMARK    9  A    between atoms: C13_26  and  N4_27 
REMARK   10  A    between atoms: C15_29  and  C16_30 
REMARK   11  A    between atoms: C16_30  and  N5_31 
REMARK   12  A    between atoms: N5_31  and  N6_32 
REMARK   13  A    between atoms: C17_39  and  O7_40 
ROOT
HETATM    1  C3  UNL     1      10.542  -8.809  65.488  1.00  0.00     0.203 C 
HETATM    2  C4  UNL     1       9.199  -9.200  66.024  1.00  0.00    -0.039 C 
HETATM    3  C5  UNL     1       8.238  -8.129  66.493  1.00  0.00     0.047 C 
HETATM    4  C6  UNL     1       8.852 -10.457  66.088  1.00  0.00     0.003 C 
HETATM    5  C7  UNL     1       9.647 -11.626  65.680  1.00  0.00     0.164 C 
HETATM    6  C8  UNL     1      11.066 -11.200  65.419  1.00  0.00     0.074 C 
HETATM    7  C9  UNL     1      11.711 -12.073  64.353  1.00  0.00    -0.011 C 
HETATM    8  C10 UNL     1      12.459 -11.328  63.571  1.00  0.00    -0.041 C 
HETATM    9  C13 UNL     1      12.364  -9.893  64.070  1.00  0.00     0.178 C 
HETATM   10  C17 UNL     1      10.985  -9.918  64.629  1.00  0.00     0.137 C 
ENDROOT
BRANCH   9  11
HETATM   11  N4  UNL     1      12.630  -8.962  63.036  1.00  0.00    -0.275 N 
HETATM   12  C14 UNL     1      13.652  -8.173  62.736  1.00  0.00     0.140 A 
HETATM   13  C15 UNL     1      13.359  -7.473  61.605  1.00  0.00     0.060 A 
HETATM   14  N7  UNL     1      12.138  -7.858  61.230  1.00  0.00    -0.288 N 
HETATM   15  N8  UNL     1      11.708  -8.739  62.078  1.00  0.00    -0.240 N 
ATOM     16  H7  UNL     1      11.628  -7.517  60.415  1.00  0.00     0.188 HD
ATOM     17  H8  UNL     1      10.800  -9.200  62.027  1.00  0.00     0.208 HD
BRANCH  13  18
HETATM   18  C16 UNL     1      14.151  -6.474  60.853  1.00  0.00     0.194 C 
BRANCH  18  19
HETATM   19  N5  UNL     1      13.929  -6.692  59.418  1.00  0.00    -0.142 NA
BRANCH  19  20
HETATM   20  N6  UNL     1      14.984  -7.460  58.904  1.00  0.00    -0.348 N 
ATOM     21  H62 UNL     1      14.974  -8.475  58.818  1.00  0.00     0.172 HD
ATOM     22  H61 UNL     1      15.747  -6.838  58.636  1.00  0.00     0.172 HD
ENDBRANCH  19  20
ENDBRANCH  18  19
ENDBRANCH  13  18
ENDBRANCH   9  11
BRANCH   8  23
HETATM   23  C11 UNL     1      13.251 -11.796  62.419  1.00  0.00     0.147 C 
BRANCH  23  24
HETATM   24  N1  UNL     1      12.444 -11.816  61.234  1.00  0.00    -0.215 NA
HETATM   25  C12 UNL     1      12.379 -13.163  60.722  1.00  0.00     0.134 C 
BRANCH  24  26
HETATM   26  N2  UNL     1      12.808 -10.860  60.313  1.00  0.00    -0.056 NA
BRANCH  26  27
HETATM   27  N3  UNL     1      14.201 -10.759  60.312  1.00  0.00    -0.333 N 
ATOM     28  H32 UNL     1      14.824 -11.237  60.963  1.00  0.00     0.173 HD
ATOM     29  H31 UNL     1      14.477 -10.133  59.555  1.00  0.00     0.173 HD
ENDBRANCH  26  27
ENDBRANCH  24  26
ENDBRANCH  23  24
ENDBRANCH   8  23
BRANCH  10  30
HETATM   30  O7  UNL     1      10.012 -10.128  63.641  1.00  0.00    -0.383 OA
ATOM     31  H7  UNL     1       9.511 -10.900  63.875  1.00  0.00     0.210 HD
ENDBRANCH  10  30
BRANCH   1  32
HETATM   32  C2  UNL     1      11.391  -8.463  66.639  1.00  0.00     0.301 C 
HETATM   33  O2  UNL     1      12.131  -7.416  66.572  1.00  0.00    -0.261 OA
BRANCH  32  34
HETATM   34  O1  UNL     1      11.501  -9.144  67.832  1.00  0.00    -0.324 OA
HETATM   35  C1  UNL     1      12.706  -9.585  68.388  1.00  0.00     0.213 C 
ENDBRANCH  32  34
ENDBRANCH   1  32
BRANCH   1  36
HETATM   36  O3  UNL     1      10.402  -7.606  64.744  1.00  0.00    -0.373 OA
ATOM     37  H3  UNL     1       9.589  -7.215  65.042  1.00  0.00     0.211 HD
ENDBRANCH   1  36
BRANCH   5  38
HETATM   38  S1  UNL     1       9.701 -12.853  66.979  1.00  0.00     0.110 S 
HETATM   39  O4  UNL     1       9.581 -14.204  66.289  1.00  0.00    -0.594 OA
HETATM   40  O5  UNL     1       8.577 -12.694  67.935  1.00  0.00    -0.594 OA
HETATM   41  O6  UNL     1      11.138 -12.738  67.819  1.00  0.00    -0.594 OA
ENDBRANCH   5  38
TORSDOF 13
ENDMDL
MODEL 4
REMARK VINA RESULT: -5.329120277      3.186      5.333
REMARK  13 active torsions:
REMARK  status: ('A' for Active; 'I' for Inactive)
REMARK    1  A    between atoms: O1_2  and  C2_3 
REMARK    2  A    between atoms: C2_3  and  C3_5 
REMARK    3  A    between atoms: C3_5  and  O3_6 
REMARK    4  A    between atoms: C7_11  and  S1_12 
REMARK    5  A    between atoms: C10_18  and  C11_19 
REMARK    6  A    between atoms: C11_19  and  N1_20 
REMARK    7  A    between atoms: N1_20  and  N2_22 
REMARK    8  A    between atoms: N2_22  and  N3_23 
REMARK    9  A    between atoms: C13_26  and  N4_27 
REMARK   10  A    between atoms: C15_29  and  C16_30 
REMARK   11  A    between atoms: C16_30  and  N5_31 
REMARK   12  A    between atoms: N5_31  and  N6_32 
REMARK   13  A    between atoms: C17_39  and  O7_40 
ROOT
HETATM    1  C3  UNL     1      11.473  -8.857  65.915  1.00  0.00     0.203 C 
HETATM    2  C4  UNL     1      10.235  -9.228  66.671  1.00  0.00    -0.039 C 
HETATM    3  C5  UNL     1       9.424  -8.150  67.358  1.00  0.00     0.047 C 
HETATM    4  C6  UNL     1       9.850 -10.474  66.741  1.00  0.00     0.003 C 
HETATM    5  C7  UNL     1      10.504 -11.647  66.140  1.00  0.00     0.164 C 
HETATM    6  C8  UNL     1      11.869 -11.258  65.642  1.00  0.00     0.074 C 
HETATM    7  C9  UNL     1      12.270 -12.095  64.436  1.00  0.00    -0.011 C 
HETATM    8  C10 UNL     1      12.894 -11.336  63.564  1.00  0.00    -0.041 C 
HETATM    9  C13 UNL     1      12.955  -9.927  64.137  1.00  0.00     0.178 C 
HETATM   10  C17 UNL     1      11.703  -9.933  64.940  1.00  0.00     0.137 C 
ENDROOT
BRANCH   9  11
HETATM   11  N4  UNL     1      13.069  -8.953  63.115  1.00  0.00    -0.275 N 
HETATM   12  C14 UNL     1      14.039  -8.151  62.699  1.00  0.00     0.140 A 
HETATM   13  C15 UNL     1      13.584  -7.404  61.654  1.00  0.00     0.060 A 
HETATM   14  N7  UNL     1      12.318  -7.774  61.451  1.00  0.00    -0.288 N 
HETATM   15  N8  UNL     1      12.015  -8.690  62.316  1.00  0.00    -0.240 N 
ATOM     16  H7  UNL     1      11.694  -7.398  60.737  1.00  0.00     0.188 HD
ATOM     17  H8  UNL     1      11.107  -9.149  62.383  1.00  0.00     0.208 HD
BRANCH  13  18
HETATM   18  C16 UNL     1      14.259  -6.373  60.836  1.00  0.00     0.194 C 
BRANCH  18  19
HETATM   19  N5  UNL     1      13.962  -6.636  59.421  1.00  0.00    -0.142 NA
BRANCH  19  20
HETATM   20  N6  UNL     1      15.004  -7.393  58.868  1.00  0.00    -0.348 N 
ATOM     21  H62 UNL     1      15.695  -7.912  59.410  1.00  0.00     0.172 HD
ATOM     22  H61 UNL     1      14.952  -7.337  57.851  1.00  0.00     0.172 HD
ENDBRANCH  19  20
ENDBRANCH  18  19
ENDBRANCH  13  18
ENDBRANCH   9  11
BRANCH   8  23
HETATM   23  C11 UNL     1      13.441 -11.771  62.266  1.00  0.00     0.147 C 
BRANCH  23  24
HETATM   24  N1  UNL     1      12.444 -11.654  61.241  1.00  0.00    -0.215 NA
HETATM   25  C12 UNL     1      12.082 -12.971  60.775  1.00  0.00     0.134 C 
BRANCH  24  26
HETATM   26  N2  UNL     1      12.784 -10.759  60.252  1.00  0.00    -0.056 NA
BRANCH  26  27
HETATM   27  N3  UNL     1      14.177 -10.687  60.185  1.00  0.00    -0.333 N 
ATOM     28  H32 UNL     1      14.780 -11.381  59.742  1.00  0.00     0.173 HD
ATOM     29  H31 UNL     1      14.477  -9.830  60.650  1.00  0.00     0.173 HD
ENDBRANCH  26  27
ENDBRANCH  24  26
ENDBRANCH  23  24
ENDBRANCH   8  23
BRANCH  10  30
HETATM   30  O7  UNL     1      10.557 -10.057  64.140  1.00  0.00    -0.383 OA
ATOM     31  H7  UNL     1      10.098  -9.225  64.145  1.00  0.00     0.210 HD
ENDBRANCH  10  30
BRANCH   1  32
HETATM   32  C2  UNL     1      12.533  -8.602  66.904  1.00  0.00     0.301 C 
HETATM   33  O2  UNL     1      13.466  -7.769  66.613  1.00  0.00    -0.261 OA
BRANCH  32  34
HETATM   34  O1  UNL     1      12.661  -9.163  68.156  1.00  0.00    -0.324 OA
HETATM   35  C1  UNL     1      13.799  -9.835  68.613  1.00  0.00     0.213 C 
ENDBRANCH  32  34
ENDBRANCH   1  32
BRANCH   1  36
HETATM   36  O3  UNL     1      11.252  -7.612  65.264  1.00  0.00    -0.373 OA
ATOM     37  H3  UNL     1      10.479  -7.244  65.675  1.00  0.00     0.211 HD
ENDBRANCH   1  36
BRANCH   5  38
HETATM   38  S1  UNL     1      10.742 -12.942  67.350  1.00  0.00     0.110 S 
HETATM   39  O4  UNL     1       9.659 -12.741  68.400  1.00  0.00    -0.594 OA
HETATM   40  O5  UNL     1      12.073 -12.850  68.001  1.00  0.00    -0.594 OA
HETATM   41  O6  UNL     1      10.602 -14.438  66.627  1.00  0.00    -0.594 OA
ENDBRANCH   5  38
TORSDOF 13
ENDMDL
MODEL 5
REMARK VINA RESULT: -5.300599899      4.314      6.767
REMARK  13 active torsions:
REMARK  status: ('A' for Active; 'I' for Inactive)
REMARK    1  A    between atoms: O1_2  and  C2_3 
REMARK    2  A    between atoms: C2_3  and  C3_5 
REMARK    3  A    between atoms: C3_5  and  O3_6 
REMARK    4  A    between atoms: C7_11  and  S1_12 
REMARK    5  A    between atoms: C10_18  and  C11_19 
REMARK    6  A    between atoms: C11_19  and  N1_20 
REMARK    7  A    between atoms: N1_20  and  N2_22 
REMARK    8  A    between atoms: N2_22  and  N3_23 
REMARK    9  A    between atoms: C13_26  and  N4_27 
REMARK   10  A    between atoms: C15_29  and  C16_30 
REMARK   11  A    between atoms: C16_30  and  N5_31 
REMARK   12  A    between atoms: N5_31  and  N6_32 
REMARK   13  A    between atoms: C17_39  and  O7_40 
ROOT
HETATM    1  C3  UNL     1      13.245  -8.878  62.381  1.00  0.00     0.203 C 
HETATM    2  C4  UNL     1      14.237  -9.231  61.317  1.00  0.00    -0.039 C 
HETATM    3  C5  UNL     1      14.909  -8.130  60.523  1.00  0.00     0.047 C 
HETATM    4  C6  UNL     1      14.527 -10.480  61.069  1.00  0.00     0.003 C 
HETATM    5  C7  UNL     1      13.980 -11.673  61.734  1.00  0.00     0.164 C 
HETATM    6  C8  UNL     1      12.802 -11.278  62.582  1.00  0.00     0.074 C 
HETATM    7  C9  UNL     1      12.668 -12.193  63.790  1.00  0.00    -0.011 C 
HETATM    8  C10 UNL     1      12.318 -11.483  64.839  1.00  0.00    -0.041 C 
HETATM    9  C13 UNL     1      12.191 -10.033  64.397  1.00  0.00     0.178 C 
HETATM   10  C17 UNL     1      13.206 -10.019  63.308  1.00  0.00     0.137 C 
ENDROOT
BRANCH   9  11
HETATM   11  N4  UNL     1      12.385  -9.138  65.478  1.00  0.00    -0.275 N 
HETATM   12  C14 UNL     1      11.590  -8.342  66.178  1.00  0.00     0.140 A 
HETATM   13  C15 UNL     1      12.327  -7.693  67.122  1.00  0.00     0.060 A 
HETATM   14  N7  UNL     1      13.584  -8.116  66.974  1.00  0.00    -0.288 N 
HETATM   15  N8  UNL     1      13.616  -8.971  66.001  1.00  0.00    -0.240 N 
ATOM     16  H7  UNL     1      14.384  -7.817  67.532  1.00  0.00     0.188 HD
ATOM     17  H8  UNL     1      14.455  -9.451  65.677  1.00  0.00     0.208 HD
BRANCH  13  18
HETATM   18  C16 UNL     1      11.929  -6.709  68.153  1.00  0.00     0.194 C 
BRANCH  18  19
HETATM   19  N5  UNL     1      12.746  -5.500  67.981  1.00  0.00    -0.142 NA
BRANCH  19  20
HETATM   20  N6  UNL     1      11.904  -4.380  67.954  1.00  0.00    -0.348 N 
ATOM     21  H62 UNL     1      10.980  -4.337  68.383  1.00  0.00     0.172 HD
ATOM     22  H61 UNL     1      12.367  -3.629  67.442  1.00  0.00     0.172 HD
ENDBRANCH  19  20
ENDBRANCH  18  19
ENDBRANCH  13  18
ENDBRANCH   9  11
BRANCH   8  23
HETATM   23  C11 UNL     1      12.086 -11.999  66.201  1.00  0.00     0.147 C 
BRANCH  23  24
HETATM   24  N1  UNL     1      13.319 -12.048  66.932  1.00  0.00    -0.215 NA
HETATM   25  C12 UNL     1      13.668 -13.424  67.189  1.00  0.00     0.134 C 
BRANCH  24  26
HETATM   26  N2  UNL     1      13.327 -11.229  68.039  1.00  0.00    -0.056 NA
BRANCH  26  27
HETATM   27  N3  UNL     1      12.015 -11.107  68.504  1.00  0.00    -0.333 N 
ATOM     28  H32 UNL     1      11.738 -10.617  69.355  1.00  0.00     0.173 HD
ATOM     29  H31 UNL     1      11.397 -11.587  67.850  1.00  0.00     0.173 HD
ENDBRANCH  26  27
ENDBRANCH  24  26
ENDBRANCH  23  24
ENDBRANCH   8  23
BRANCH  10  30
HETATM   30  O7  UNL     1      14.505 -10.244  63.787  1.00  0.00    -0.383 OA
ATOM     31  H7  UNL     1      15.116  -9.797  63.213  1.00  0.00     0.210 HD
ENDBRANCH  10  30
BRANCH   1  32
HETATM   32  C2  UNL     1      11.988  -8.510  61.707  1.00  0.00     0.301 C 
HETATM   33  O2  UNL     1      11.070  -7.921  62.384  1.00  0.00    -0.261 OA
BRANCH  32  34
HETATM   34  O1  UNL     1      11.654  -8.723  60.388  1.00  0.00    -0.324 OA
HETATM   35  C1  UNL     1      11.379  -7.710  59.464  1.00  0.00     0.213 C 
ENDBRANCH  32  34
ENDBRANCH   1  32
BRANCH   1  36
HETATM   36  O3  UNL     1      13.683  -7.695  63.038  1.00  0.00    -0.373 OA
ATOM     37  H3  UNL     1      13.554  -6.993  62.412  1.00  0.00     0.211 HD
ENDBRANCH   1  36
BRANCH   5  38
HETATM   38  S1  UNL     1      13.384 -12.861  60.537  1.00  0.00     0.110 S 
HETATM   39  O4  UNL     1      13.826 -14.226  61.041  1.00  0.00    -0.594 OA
HETATM   40  O5  UNL     1      13.968 -12.627  59.192  1.00  0.00    -0.594 OA
HETATM   41  O6  UNL     1      11.722 -12.776  60.421  1.00  0.00    -0.594 OA
ENDBRANCH   5  38
TORSDOF 13
ENDMDL
