MODEL 1
REMARK VINA RESULT: -6.219221192      0.000      0.000
REMARK  13 active torsions:
REMARK  status: ('A' for Active; 'I' for Inactive)
REMARK    1  A    between atoms: C3_3  and  C4_4 
REMARK    2  A    between atoms: C5_7  and  N1_8 
REMARK    3  A    between atoms: N1_8  and  N2_9 
REMARK       I    between atoms: N1_8  and  C12_40 
REMARK    4  A    between atoms: N2_9  and  C6_11 
REMARK    5  A    between atoms: C6_11  and  C10_28 
REMARK    6  A    between atoms: N3_12  and  N4_14 
REMARK       I    between atoms: N4_14  and  C7_16 
REMARK    7  A    between atoms: C7_16  and  C8_18 
REMARK    8  A    between atoms: C8_18  and  N5_19 
REMARK    9  A    between atoms: C8_18  and  C9_23 
REMARK   10  A    between atoms: C9_23  and  N6_24 
REMARK   11  A    between atoms: C10_28  and  O4_29 
REMARK   12  A    between atoms: C10_28  and  C11_31 
REMARK   13  A    between atoms: C12_40  and  O6_42 
ROOT
HETATM    1  C6  UNL     1      11.574 -11.665  63.087  1.00  0.00     0.148 C 
HETATM    2  N3  UNL     1      10.601 -12.528  63.125  1.00  0.00    -0.283 N 
ATOM      3  H3  UNL     1      10.570 -13.193  63.898  1.00  0.00     0.188 HD
ENDROOT
BRANCH   1   4
HETATM    4  N2  UNL     1      11.662 -10.729  62.044  1.00  0.00    -0.278 N 
ATOM      5  H2  UNL     1      10.955  -9.996  62.001  1.00  0.00     0.189 HD
BRANCH   4   6
HETATM    6  N1  UNL     1      12.680 -10.737  61.036  1.00  0.00    -0.227 N 
HETATM    7  C12 UNL     1      12.977 -12.033  60.550  1.00  0.00     0.381 C 
HETATM    8  O5  UNL     1      13.861 -12.205  59.684  1.00  0.00    -0.236 OA
BRANCH   6   9
HETATM    9  C5  UNL     1      13.239  -9.514  60.648  1.00  0.00     0.159 C 
HETATM   10  C3  UNL     1      14.607  -9.139  61.095  1.00  0.00     0.162 C 
HETATM   11  C2  UNL     1      14.715  -7.775  60.424  1.00  0.00     0.016 C 
HETATM   12  C1  UNL     1      15.819  -7.132  60.133  1.00  0.00     0.039 C 
HETATM   13  N11 UNL     1      13.405  -7.313  60.163  1.00  0.00    -0.354 N 
HETATM   14  C14 UNL     1      12.484  -8.253  60.833  1.00  0.00     0.136 C 
HETATM   15  C16 UNL     1      12.508  -6.345  59.536  1.00  0.00     0.293 C 
HETATM   16  C15 UNL     1      11.254  -8.085  60.010  1.00  0.00     0.197 C 
HETATM   17  O7  UNL     1      11.539  -7.210  58.996  1.00  0.00    -0.370 OA
BRANCH  10  18
HETATM   18  C4  UNL     1      14.902  -8.922  62.481  1.00  0.00     0.185 C 
HETATM   19  O1  UNL     1      15.727  -9.648  63.085  1.00  0.00    -0.647 OA
HETATM   20  O2  UNL     1      14.290  -7.909  63.194  1.00  0.00    -0.647 OA
ENDBRANCH  10  18
ENDBRANCH   6   9
BRANCH   7  21
HETATM   21  O6  UNL     1      12.329 -13.181  60.985  1.00  0.00    -0.308 OA
HETATM   22  C13 UNL     1      13.051 -14.390  61.051  1.00  0.00     0.215 C 
ENDBRANCH   7  21
ENDBRANCH   4   6
ENDBRANCH   1   4
BRANCH   1  23
HETATM   23  C10 UNL     1      12.558 -11.678  64.174  1.00  0.00     0.258 C 
BRANCH  23  24
HETATM   24  O4  UNL     1      13.848 -12.019  63.697  1.00  0.00    -0.380 OA
ATOM     25  H4  UNL     1      14.515 -11.848  64.352  1.00  0.00     0.211 HD
ENDBRANCH  23  24
BRANCH  23  26
HETATM   26  C11 UNL     1      12.713 -10.353  64.846  1.00  0.00     0.150 A 
HETATM   27  N7  UNL     1      11.900  -9.316  64.902  1.00  0.00    -0.270 N 
HETATM   28  N8  UNL     1      12.474  -8.374  65.616  1.00  0.00    -0.227 N 
ATOM     29  H7  UNL     1      10.980  -9.256  64.464  1.00  0.00     0.190 HD
HETATM   30  N9  UNL     1      13.647  -8.832  66.002  1.00  0.00    -0.227 N 
ATOM     31  H8  UNL     1      12.082  -7.458  65.832  1.00  0.00     0.210 HD
HETATM   32  N10 UNL     1      13.833 -10.055  65.545  1.00  0.00    -0.270 N 
ATOM     33  H9  UNL     1      14.316  -8.314  66.572  1.00  0.00     0.210 HD
ATOM     34  H10 UNL     1      14.649 -10.651  65.688  1.00  0.00     0.190 HD
ENDBRANCH  23  26
ENDBRANCH   1  23
BRANCH   2  35
HETATM   35  N4  UNL     1       9.596 -12.586  62.153  1.00  0.00    -0.267 N 
HETATM   36  C7  UNL     1       9.063 -13.792  61.657  1.00  0.00     0.268 C 
HETATM   37  O3  UNL     1       9.482 -14.888  62.079  1.00  0.00    -0.269 OA
ATOM     38  H4  UNL     1       9.230 -11.708  61.785  1.00  0.00     0.190 HD
BRANCH  36  39
HETATM   39  C8  UNL     1       8.002 -13.775  60.632  1.00  0.00     0.301 C 
BRANCH  39  40
HETATM   40  N5  UNL     1       6.803 -14.371  61.172  1.00  0.00    -0.065 N 
ATOM     41  H53 UNL     1       6.064 -13.683  61.324  1.00  0.00     0.275 HD
ATOM     42  H52 UNL     1       6.320 -14.954  60.489  1.00  0.00     0.275 HD
ATOM     43  H51 UNL     1       7.033 -14.883  62.024  1.00  0.00     0.275 HD
ENDBRANCH  39  40
BRANCH  39  44
HETATM   44  C9  UNL     1       8.436 -14.544  59.382  1.00  0.00     0.272 C 
BRANCH  44  45
HETATM   45  N6  UNL     1       9.862 -14.418  59.199  1.00  0.00    -0.077 N 
ATOM     46  H63 UNL     1      10.373 -15.194  59.622  1.00  0.00     0.274 HD
ATOM     47  H62 UNL     1      10.138 -14.569  58.229  1.00  0.00     0.274 HD
ATOM     48  H61 UNL     1      10.179 -13.515  59.552  1.00  0.00     0.274 HD
ENDBRANCH  44  45
ENDBRANCH  39  44
ENDBRANCH  36  39
ENDBRANCH   2  35
TORSDOF 13
ENDMDL
MODEL 2
REMARK VINA RESULT: -5.858290014      2.123      5.381
REMARK  13 active torsions:
REMARK  status: ('A' for Active; 'I' for Inactive)
REMARK    1  A    between atoms: C3_3  and  C4_4 
REMARK    2  A    between atoms: C5_7  and  N1_8 
REMARK    3  A    between atoms: N1_8  and  N2_9 
REMARK       I    between atoms: N1_8  and  C12_40 
REMARK    4  A    between atoms: N2_9  and  C6_11 
REMARK    5  A    between atoms: C6_11  and  C10_28 
REMARK    6  A    between atoms: N3_12  and  N4_14 
REMARK       I    between atoms: N4_14  and  C7_16 
REMARK    7  A    between atoms: C7_16  and  C8_18 
REMARK    8  A    between atoms: C8_18  and  N5_19 
REMARK    9  A    between atoms: C8_18  and  C9_23 
REMARK   10  A    between atoms: C9_23  and  N6_24 
REMARK   11  A    between atoms: C10_28  and  O4_29 
REMARK   12  A    between atoms: C10_28  and  C11_31 
REMARK   13  A    between atoms: C12_40  and  O6_42 
ROOT
HETATM    1  C6  UNL     1      13.300 -11.024  61.193  1.00  0.00     0.148 C 
HETATM    2  N3  UNL     1      13.954 -12.051  60.735  1.00  0.00    -0.283 N 
ATOM      3  H3  UNL     1      14.958 -11.957  60.575  1.00  0.00     0.188 HD
ENDROOT
BRANCH   1   4
HETATM    4  N2  UNL     1      11.919 -11.101  61.430  1.00  0.00    -0.278 N 
ATOM      5  H2  UNL     1      11.296 -10.621  60.780  1.00  0.00     0.189 HD
BRANCH   4   6
HETATM    6  N1  UNL     1      11.325 -11.811  62.524  1.00  0.00    -0.227 N 
HETATM    7  C12 UNL     1      10.602 -12.959  62.120  1.00  0.00     0.381 C 
HETATM    8  O5  UNL     1      10.008 -13.669  62.959  1.00  0.00    -0.236 OA
BRANCH   6   9
HETATM    9  C5  UNL     1      11.525 -11.320  63.819  1.00  0.00     0.159 C 
HETATM   10  C3  UNL     1      11.047  -9.961  64.188  1.00  0.00     0.162 C 
HETATM   11  C2  UNL     1      11.505  -9.930  65.642  1.00  0.00     0.016 C 
HETATM   12  C1  UNL     1      11.037  -9.160  66.593  1.00  0.00     0.039 C 
HETATM   13  N11 UNL     1      12.533 -10.887  65.794  1.00  0.00    -0.354 N 
HETATM   14  C14 UNL     1      12.870 -11.367  64.439  1.00  0.00     0.136 C 
HETATM   15  C16 UNL     1      13.434 -11.647  66.658  1.00  0.00     0.293 C 
HETATM   16  C15 UNL     1      13.418 -12.719  64.741  1.00  0.00     0.197 C 
HETATM   17  O7  UNL     1      13.309 -12.928  66.090  1.00  0.00    -0.370 OA
BRANCH  10  18
HETATM   18  C4  UNL     1      11.599  -8.788  63.575  1.00  0.00     0.185 C 
HETATM   19  O1  UNL     1      11.112  -8.324  62.517  1.00  0.00    -0.647 OA
HETATM   20  O2  UNL     1      12.682  -8.132  64.130  1.00  0.00    -0.647 OA
ENDBRANCH  10  18
ENDBRANCH   6   9
BRANCH   7  21
HETATM   21  O6  UNL     1      10.500 -13.374  60.800  1.00  0.00    -0.308 OA
HETATM   22  C13 UNL     1       9.366 -14.110  60.401  1.00  0.00     0.215 C 
ENDBRANCH   7  21
ENDBRANCH   4   6
ENDBRANCH   1   4
BRANCH   1  23
HETATM   23  C10 UNL     1      14.047  -9.794  61.479  1.00  0.00     0.258 C 
BRANCH  23  24
HETATM   24  O4  UNL     1      15.319 -10.081  62.032  1.00  0.00    -0.380 OA
ATOM     25  H4  UNL     1      16.016  -9.889  61.414  1.00  0.00     0.211 HD
ENDBRANCH  23  24
BRANCH  23  26
HETATM   26  C11 UNL     1      14.311  -8.968  60.263  1.00  0.00     0.150 A 
HETATM   27  N7  UNL     1      13.728  -8.968  59.080  1.00  0.00    -0.270 N 
HETATM   28  N8  UNL     1      14.308  -8.057  58.330  1.00  0.00    -0.227 N 
ATOM     29  H7  UNL     1      12.957  -9.572  58.795  1.00  0.00     0.190 HD
HETATM   30  N9  UNL     1      15.253  -7.494  59.054  1.00  0.00    -0.227 N 
ATOM     31  H8  UNL     1      14.069  -7.828  57.365  1.00  0.00     0.210 HD
HETATM   32  N10 UNL     1      15.287  -8.031  60.258  1.00  0.00    -0.270 N 
ATOM     33  H9  UNL     1      15.871  -6.749  58.729  1.00  0.00     0.210 HD
ATOM     34  H10 UNL     1      15.917  -7.791  61.024  1.00  0.00     0.190 HD
ENDBRANCH  23  26
ENDBRANCH   1  23
BRANCH   2  35
HETATM   35  N4  UNL     1      13.345 -13.278  60.453  1.00  0.00    -0.267 N 
HETATM   36  C7  UNL     1      13.544 -13.987  59.252  1.00  0.00     0.268 C 
HETATM   37  O3  UNL     1      14.295 -13.531  58.366  1.00  0.00    -0.269 OA
ATOM     38  H4  UNL     1      12.723 -13.681  61.153  1.00  0.00     0.190 HD
BRANCH  36  39
HETATM   39  C8  UNL     1      12.867 -15.278  59.023  1.00  0.00     0.301 C 
BRANCH  39  40
HETATM   40  N5  UNL     1      12.508 -15.863  60.293  1.00  0.00    -0.065 N 
ATOM     41  H53 UNL     1      13.229 -16.495  60.645  1.00  0.00     0.275 HD
ATOM     42  H52 UNL     1      12.530 -15.182  61.052  1.00  0.00     0.275 HD
ATOM     43  H51 UNL     1      11.601 -16.321  60.211  1.00  0.00     0.275 HD
ENDBRANCH  39  40
BRANCH  39  44
HETATM   44  C9  UNL     1      13.772 -16.241  58.253  1.00  0.00     0.272 C 
BRANCH  44  45
HETATM   45  N6  UNL     1      13.571 -16.076  56.834  1.00  0.00    -0.077 N 
ATOM     46  H63 UNL     1      13.154 -15.172  56.609  1.00  0.00     0.274 HD
ATOM     47  H62 UNL     1      14.453 -15.961  56.334  1.00  0.00     0.274 HD
ATOM     48  H61 UNL     1      13.021 -16.853  56.468  1.00  0.00     0.274 HD
ENDBRANCH  44  45
ENDBRANCH  39  44
ENDBRANCH  36  39
ENDBRANCH   2  35
TORSDOF 13
ENDMDL
MODEL 3
REMARK VINA RESULT: -5.784579826      2.771      5.548
REMARK  13 active torsions:
REMARK  status: ('A' for Active; 'I' for Inactive)
REMARK    1  A    between atoms: C3_3  and  C4_4 
REMARK    2  A    between atoms: C5_7  and  N1_8 
REMARK    3  A    between atoms: N1_8  and  N2_9 
REMARK       I    between atoms: N1_8  and  C12_40 
REMARK    4  A    between atoms: N2_9  and  C6_11 
REMARK    5  A    between atoms: C6_11  and  C10_28 
REMARK    6  A    between atoms: N3_12  and  N4_14 
REMARK       I    between atoms: N4_14  and  C7_16 
REMARK    7  A    between atoms: C7_16  and  C8_18 
REMARK    8  A    between atoms: C8_18  and  N5_19 
REMARK    9  A    between atoms: C8_18  and  C9_23 
REMARK   10  A    between atoms: C9_23  and  N6_24 
REMARK   11  A    between atoms: C10_28  and  O4_29 
REMARK   12  A    between atoms: C10_28  and  C11_31 
REMARK   13  A    between atoms: C12_40  and  O6_42 
ROOT
HETATM    1  C6  UNL     1      13.351 -11.310  61.286  1.00  0.00     0.148 C 
HETATM    2  N3  UNL     1      13.925 -12.112  60.436  1.00  0.00    -0.283 N 
ATOM      3  H3  UNL     1      14.784 -11.805  59.981  1.00  0.00     0.188 HD
ENDROOT
BRANCH   1   4
HETATM    4  N2  UNL     1      12.166 -11.685  61.938  1.00  0.00    -0.278 N 
ATOM      5  H2  UNL     1      11.334 -11.832  61.367  1.00  0.00     0.189 HD
BRANCH   4   6
HETATM    6  N1  UNL     1      12.049 -11.877  63.353  1.00  0.00    -0.227 N 
HETATM    7  C12 UNL     1      12.911 -12.881  63.855  1.00  0.00     0.381 C 
HETATM    8  O5  UNL     1      12.908 -13.180  65.069  1.00  0.00    -0.236 OA
BRANCH   6   9
HETATM    9  C5  UNL     1      11.143 -11.077  64.058  1.00  0.00     0.159 C 
HETATM   10  C3  UNL     1       9.727 -11.505  64.213  1.00  0.00     0.162 C 
HETATM   11  C2  UNL     1       9.203 -10.323  65.020  1.00  0.00     0.016 C 
HETATM   12  C1  UNL     1       8.137 -10.307  65.781  1.00  0.00     0.039 C 
HETATM   13  N11 UNL     1      10.076  -9.232  64.810  1.00  0.00    -0.354 N 
HETATM   14  C14 UNL     1      11.009  -9.636  63.739  1.00  0.00     0.136 C 
HETATM   15  C16 UNL     1      10.512  -7.879  65.148  1.00  0.00     0.293 C 
HETATM   16  C15 UNL     1      12.185  -8.774  64.042  1.00  0.00     0.197 C 
HETATM   17  O7  UNL     1      11.906  -8.062  65.178  1.00  0.00    -0.370 OA
BRANCH  10  18
HETATM   18  C4  UNL     1       8.858 -11.624  63.078  1.00  0.00     0.185 C 
HETATM   19  O1  UNL     1       9.235 -11.262  61.938  1.00  0.00    -0.647 OA
HETATM   20  O2  UNL     1       7.582 -12.140  63.204  1.00  0.00    -0.647 OA
ENDBRANCH  10  18
ENDBRANCH   6   9
BRANCH   7  21
HETATM   21  O6  UNL     1      13.802 -13.591  63.063  1.00  0.00    -0.308 OA
HETATM   22  C13 UNL     1      13.915 -14.985  63.243  1.00  0.00     0.215 C 
ENDBRANCH   7  21
ENDBRANCH   4   6
ENDBRANCH   1   4
BRANCH   1  23
HETATM   23  C10 UNL     1      13.987 -10.018  61.561  1.00  0.00     0.258 C 
BRANCH  23  24
HETATM   24  O4  UNL     1      15.282 -10.187  62.110  1.00  0.00    -0.380 OA
ATOM     25  H4  UNL     1      15.957 -10.029  61.460  1.00  0.00     0.211 HD
ENDBRANCH  23  24
BRANCH  23  26
HETATM   26  C11 UNL     1      14.174  -9.180  60.338  1.00  0.00     0.150 A 
HETATM   27  N7  UNL     1      13.475  -9.120  59.222  1.00  0.00    -0.270 N 
HETATM   28  N8  UNL     1      14.026  -8.225  58.432  1.00  0.00    -0.227 N 
ATOM     29  H7  UNL     1      12.646  -9.674  59.007  1.00  0.00     0.190 HD
HETATM   30  N9  UNL     1      15.071  -7.732  59.065  1.00  0.00    -0.227 N 
ATOM     31  H8  UNL     1      13.704  -7.962  57.501  1.00  0.00     0.210 HD
HETATM   32  N10 UNL     1      15.196  -8.298  60.250  1.00  0.00    -0.270 N 
ATOM     33  H9  UNL     1      15.694  -7.015  58.692  1.00  0.00     0.210 HD
ATOM     34  H10 UNL     1      15.913  -8.110  60.951  1.00  0.00     0.190 HD
ENDBRANCH  23  26
ENDBRANCH   1  23
BRANCH   2  35
HETATM   35  N4  UNL     1      13.416 -13.376  60.120  1.00  0.00    -0.267 N 
HETATM   36  C7  UNL     1      13.704 -14.051  58.917  1.00  0.00     0.268 C 
HETATM   37  O3  UNL     1      14.446 -13.529  58.062  1.00  0.00    -0.269 OA
ATOM     38  H4  UNL     1      12.804 -13.834  60.796  1.00  0.00     0.190 HD
BRANCH  36  39
HETATM   39  C8  UNL     1      13.131 -15.385  58.652  1.00  0.00     0.301 C 
BRANCH  39  40
HETATM   40  N5  UNL     1      12.925 -16.077  59.903  1.00  0.00    -0.065 N 
ATOM     41  H53 UNL     1      13.793 -16.457  60.281  1.00  0.00     0.275 HD
ATOM     42  H52 UNL     1      12.703 -15.437  60.665  1.00  0.00     0.275 HD
ATOM     43  H51 UNL     1      12.211 -16.794  59.779  1.00  0.00     0.275 HD
ENDBRANCH  39  40
BRANCH  39  44
HETATM   44  C9  UNL     1      14.058 -16.210  57.758  1.00  0.00     0.272 C 
BRANCH  44  45
HETATM   45  N6  UNL     1      13.792 -15.917  56.370  1.00  0.00    -0.077 N 
ATOM     46  H63 UNL     1      12.982 -16.429  56.019  1.00  0.00     0.274 HD
ATOM     47  H62 UNL     1      13.436 -14.970  56.241  1.00  0.00     0.274 HD
ATOM     48  H61 UNL     1      14.627 -16.092  55.812  1.00  0.00     0.274 HD
ENDBRANCH  44  45
ENDBRANCH  39  44
ENDBRANCH  36  39
ENDBRANCH   2  35
TORSDOF 13
ENDMDL
MODEL 4
REMARK VINA RESULT: -5.712771234      1.462      1.846
REMARK  13 active torsions:
REMARK  status: ('A' for Active; 'I' for Inactive)
REMARK    1  A    between atoms: C3_3  and  C4_4 
REMARK    2  A    between atoms: C5_7  and  N1_8 
REMARK    3  A    between atoms: N1_8  and  N2_9 
REMARK       I    between atoms: N1_8  and  C12_40 
REMARK    4  A    between atoms: N2_9  and  C6_11 
REMARK    5  A    between atoms: C6_11  and  C10_28 
REMARK    6  A    between atoms: N3_12  and  N4_14 
REMARK       I    between atoms: N4_14  and  C7_16 
REMARK    7  A    between atoms: C7_16  and  C8_18 
REMARK    8  A    between atoms: C8_18  and  N5_19 
REMARK    9  A    between atoms: C8_18  and  C9_23 
REMARK   10  A    between atoms: C9_23  and  N6_24 
REMARK   11  A    between atoms: C10_28  and  O4_29 
REMARK   12  A    between atoms: C10_28  and  C11_31 
REMARK   13  A    between atoms: C12_40  and  O6_42 
ROOT
HETATM    1  C6  UNL     1      10.613 -10.496  63.050  1.00  0.00     0.148 C 
HETATM    2  N3  UNL     1       9.888 -11.473  63.509  1.00  0.00    -0.283 N 
ATOM      3  H3  UNL     1       9.612 -11.455  64.492  1.00  0.00     0.188 HD
ENDROOT
BRANCH   1   4
HETATM    4  N2  UNL     1      11.019 -10.474  61.706  1.00  0.00    -0.278 N 
ATOM      5  H2  UNL     1      10.299 -10.373  60.992  1.00  0.00     0.189 HD
BRANCH   4   6
HETATM    6  N1  UNL     1      12.380 -10.585  61.272  1.00  0.00    -0.227 N 
HETATM    7  C12 UNL     1      12.914 -11.886  61.429  1.00  0.00     0.381 C 
HETATM    8  O5  UNL     1      14.098 -12.135  61.116  1.00  0.00    -0.236 OA
BRANCH   6   9
HETATM    9  C5  UNL     1      13.005  -9.446  60.752  1.00  0.00     0.159 C 
HETATM   10  C3  UNL     1      14.425  -9.151  61.084  1.00  0.00     0.162 C 
HETATM   11  C2  UNL     1      14.593  -7.857  60.297  1.00  0.00     0.016 C 
HETATM   12  C1  UNL     1      15.722  -7.332  59.888  1.00  0.00     0.039 C 
HETATM   13  N11 UNL     1      13.308  -7.311  60.077  1.00  0.00    -0.354 N 
HETATM   14  C14 UNL     1      12.364  -8.116  60.877  1.00  0.00     0.136 C 
HETATM   15  C16 UNL     1      12.450  -6.323  59.427  1.00  0.00     0.293 C 
HETATM   16  C15 UNL     1      11.099  -7.912  60.118  1.00  0.00     0.197 C 
HETATM   17  O7  UNL     1      11.384  -7.145  59.019  1.00  0.00    -0.370 OA
BRANCH  10  18
HETATM   18  C4  UNL     1      14.827  -8.852  62.427  1.00  0.00     0.185 C 
HETATM   19  O1  UNL     1      15.528  -9.658  63.084  1.00  0.00    -0.647 OA
HETATM   20  O2  UNL     1      14.457  -7.670  63.039  1.00  0.00    -0.647 OA
ENDBRANCH  10  18
ENDBRANCH   6   9
BRANCH   7  21
HETATM   21  O6  UNL     1      12.186 -12.957  61.927  1.00  0.00    -0.308 OA
HETATM   22  C13 UNL     1      12.860 -13.969  62.642  1.00  0.00     0.215 C 
ENDBRANCH   7  21
ENDBRANCH   4   6
ENDBRANCH   1   4
BRANCH   1  23
HETATM   23  C10 UNL     1      10.972  -9.406  63.964  1.00  0.00     0.258 C 
BRANCH  23  24
HETATM   24  O4  UNL     1       9.986  -9.229  64.966  1.00  0.00    -0.380 OA
ATOM     25  H4  UNL     1      10.122  -8.420  65.445  1.00  0.00     0.211 HD
ENDBRANCH  23  24
BRANCH  23  26
HETATM   26  C11 UNL     1      12.252  -9.647  64.695  1.00  0.00     0.150 A 
HETATM   27  N7  UNL     1      12.978 -10.741  64.822  1.00  0.00    -0.270 N 
HETATM   28  N8  UNL     1      14.027 -10.461  65.561  1.00  0.00    -0.227 N 
ATOM     29  H7  UNL     1      12.760 -11.651  64.415  1.00  0.00     0.190 HD
HETATM   30  N9  UNL     1      13.949  -9.189  65.892  1.00  0.00    -0.227 N 
ATOM     31  H8  UNL     1      14.767 -11.110  65.829  1.00  0.00     0.210 HD
HETATM   32  N10 UNL     1      12.862  -8.649  65.374  1.00  0.00    -0.270 N 
ATOM     33  H9  UNL     1      14.631  -8.692  66.467  1.00  0.00     0.210 HD
ATOM     34  H10 UNL     1      12.549  -7.683  65.467  1.00  0.00     0.190 HD
ENDBRANCH  23  26
ENDBRANCH   1  23
BRANCH   2  35
HETATM   35  N4  UNL     1       9.469 -12.548  62.718  1.00  0.00    -0.267 N 
HETATM   36  C7  UNL     1       8.204 -12.615  62.103  1.00  0.00     0.268 C 
HETATM   37  O3  UNL     1       7.382 -11.688  62.248  1.00  0.00    -0.269 OA
ATOM     38  H4  UNL     1      10.115 -13.325  62.578  1.00  0.00     0.190 HD
BRANCH  36  39
HETATM   39  C8  UNL     1       7.831 -13.782  61.280  1.00  0.00     0.301 C 
BRANCH  39  40
HETATM   40  N5  UNL     1       7.632 -13.361  59.913  1.00  0.00    -0.065 N 
ATOM     41  H53 UNL     1       8.058 -12.453  59.723  1.00  0.00     0.275 HD
ATOM     42  H52 UNL     1       8.177 -13.917  59.255  1.00  0.00     0.275 HD
ATOM     43  H51 UNL     1       6.635 -13.373  59.697  1.00  0.00     0.275 HD
ENDBRANCH  39  40
BRANCH  39  44
HETATM   44  C9  UNL     1       6.552 -14.436  61.805  1.00  0.00     0.272 C 
BRANCH  44  45
HETATM   45  N6  UNL     1       6.549 -14.420  63.248  1.00  0.00    -0.077 N 
ATOM     46  H63 UNL     1       6.413 -15.352  63.641  1.00  0.00     0.274 HD
ATOM     47  H62 UNL     1       7.475 -14.232  63.631  1.00  0.00     0.274 HD
ATOM     48  H61 UNL     1       5.852 -13.757  63.587  1.00  0.00     0.274 HD
ENDBRANCH  44  45
ENDBRANCH  39  44
ENDBRANCH  36  39
ENDBRANCH   2  35
TORSDOF 13
ENDMDL
MODEL 5
REMARK VINA RESULT: -5.711107357      2.534      6.407
REMARK  13 active torsions:
REMARK  status: ('A' for Active; 'I' for Inactive)
REMARK    1  A    between atoms: C3_3  and  C4_4 
REMARK    2  A    between atoms: C5_7  and  N1_8 
REMARK    3  A    between atoms: N1_8  and  N2_9 
REMARK       I    between atoms: N1_8  and  C12_40 
REMARK    4  A    between atoms: N2_9  and  C6_11 
REMARK    5  A    between atoms: C6_11  and  C10_28 
REMARK    6  A    between atoms: N3_12  and  N4_14 
REMARK       I    between atoms: N4_14  and  C7_16 
REMARK    7  A    between atoms: C7_16  and  C8_18 
REMARK    8  A    between atoms: C8_18  and  N5_19 
REMARK    9  A    between atoms: C8_18  and  C9_23 
REMARK   10  A    between atoms: C9_23  and  N6_24 
REMARK   11  A    between atoms: C10_28  and  O4_29 
REMARK   12  A    between atoms: C10_28  and  C11_31 
REMARK   13  A    between atoms: C12_40  and  O6_42 
ROOT
HETATM    1  C6  UNL     1      12.340  -8.823  63.858  1.00  0.00     0.148 C 
HETATM    2  N3  UNL     1      13.111  -8.347  62.924  1.00  0.00    -0.283 N 
ATOM      3  H3  UNL     1      14.055  -8.054  63.175  1.00  0.00     0.188 HD
ENDROOT
BRANCH   1   4
HETATM    4  N2  UNL     1      11.032  -9.240  63.566  1.00  0.00    -0.278 N 
ATOM      5  H2  UNL     1      10.401  -8.563  63.137  1.00  0.00     0.189 HD
BRANCH   4   6
HETATM    6  N1  UNL     1      10.525 -10.554  63.829  1.00  0.00    -0.227 N 
HETATM    7  C12 UNL     1       9.523 -10.578  64.828  1.00  0.00     0.381 C 
HETATM    8  O5  UNL     1       9.000 -11.655  65.185  1.00  0.00    -0.236 OA
BRANCH   6   9
HETATM    9  C5  UNL     1      11.044 -11.625  63.093  1.00  0.00     0.159 C 
HETATM   10  C3  UNL     1      10.331 -12.121  61.886  1.00  0.00     0.162 C 
HETATM   11  C2  UNL     1      11.280 -13.246  61.489  1.00  0.00     0.016 C 
HETATM   12  C1  UNL     1      11.393 -13.791  60.303  1.00  0.00     0.039 C 
HETATM   13  N11 UNL     1      12.031 -13.605  62.631  1.00  0.00    -0.354 N 
HETATM   14  C14 UNL     1      11.437 -12.882  63.773  1.00  0.00     0.136 C 
HETATM   15  C16 UNL     1      13.130 -14.353  63.236  1.00  0.00     0.293 C 
HETATM   16  C15 UNL     1      12.600 -12.803  64.700  1.00  0.00     0.197 C 
HETATM   17  O7  UNL     1      13.680 -13.363  64.071  1.00  0.00    -0.370 OA
BRANCH  10  18
HETATM   18  C4  UNL     1       9.031 -12.719  61.984  1.00  0.00     0.185 C 
HETATM   19  O1  UNL     1       8.003 -12.083  61.649  1.00  0.00    -0.647 OA
HETATM   20  O2  UNL     1       8.869 -14.010  62.449  1.00  0.00    -0.647 OA
ENDBRANCH  10  18
ENDBRANCH   6   9
BRANCH   7  21
HETATM   21  O6  UNL     1       9.056  -9.440  65.471  1.00  0.00    -0.308 OA
HETATM   22  C13 UNL     1       7.829  -9.501  66.162  1.00  0.00     0.215 C 
ENDBRANCH   7  21
ENDBRANCH   4   6
ENDBRANCH   1   4
BRANCH   1  23
HETATM   23  C10 UNL     1      12.882  -8.937  65.217  1.00  0.00     0.258 C 
BRANCH  23  24
HETATM   24  O4  UNL     1      14.050  -8.151  65.373  1.00  0.00    -0.380 OA
ATOM     25  H4  UNL     1      14.555  -8.118  64.568  1.00  0.00     0.211 HD
ENDBRANCH  23  24
BRANCH  23  26
HETATM   26  C11 UNL     1      11.935  -8.466  66.271  1.00  0.00     0.150 A 
HETATM   27  N7  UNL     1      11.245  -7.346  66.370  1.00  0.00    -0.270 N 
HETATM   28  N8  UNL     1      10.543  -7.386  67.481  1.00  0.00    -0.227 N 
ATOM     29  H7  UNL     1      11.254  -6.579  65.698  1.00  0.00     0.190 HD
HETATM   30  N9  UNL     1      10.803  -8.535  68.070  1.00  0.00    -0.227 N 
ATOM     31  H8  UNL     1       9.914  -6.660  67.823  1.00  0.00     0.210 HD
HETATM   32  N10 UNL     1      11.661  -9.233  67.352  1.00  0.00    -0.270 N 
ATOM     33  H9  UNL     1      10.398  -8.841  68.956  1.00  0.00     0.210 HD
ATOM     34  H10 UNL     1      12.039 -10.156  67.566  1.00  0.00     0.190 HD
ENDBRANCH  23  26
ENDBRANCH   1  23
BRANCH   2  35
HETATM   35  N4  UNL     1      12.703  -8.219  61.592  1.00  0.00    -0.267 N 
HETATM   36  C7  UNL     1      13.170  -7.209  60.730  1.00  0.00     0.268 C 
HETATM   37  O3  UNL     1      13.991  -6.361  61.135  1.00  0.00    -0.269 OA
ATOM     38  H4  UNL     1      12.031  -8.894  61.226  1.00  0.00     0.190 HD
BRANCH  36  39
HETATM   39  C8  UNL     1      12.695  -7.136  59.334  1.00  0.00     0.301 C 
BRANCH  39  40
HETATM   40  N5  UNL     1      11.304  -7.521  59.280  1.00  0.00    -0.065 N 
ATOM     41  H53 UNL     1      11.186  -8.528  59.170  1.00  0.00     0.275 HD
ATOM     42  H52 UNL     1      10.840  -7.417  60.182  1.00  0.00     0.275 HD
ATOM     43  H51 UNL     1      10.836  -6.995  58.542  1.00  0.00     0.275 HD
ENDBRANCH  39  40
BRANCH  39  44
HETATM   44  C9  UNL     1      13.516  -8.057  58.429  1.00  0.00     0.272 C 
BRANCH  44  45
HETATM   45  N6  UNL     1      14.907  -7.675  58.472  1.00  0.00    -0.077 N 
ATOM     46  H63 UNL     1      15.050  -6.808  58.990  1.00  0.00     0.274 HD
ATOM     47  H62 UNL     1      15.455  -8.296  59.066  1.00  0.00     0.274 HD
ATOM     48  H61 UNL     1      15.281  -7.621  57.524  1.00  0.00     0.274 HD
ENDBRANCH  44  45
ENDBRANCH  39  44
ENDBRANCH  36  39
ENDBRANCH   2  35
TORSDOF 13
ENDMDL
