MODEL 1
REMARK VINA RESULT: -6.726771485      0.000      0.000
REMARK  12 active torsions:
REMARK  status: ('A' for Active; 'I' for Inactive)
REMARK    1  A    between atoms: N1_1  and  C1_4 
REMARK    2  A    between atoms: C4_9  and  N3_10 
REMARK    3  A    between atoms: N4_13  and  C7_14 
REMARK    4  A    between atoms: C7_14  and  C8_15 
REMARK    5  A    between atoms: C8_15  and  O1_16 
REMARK    6  A    between atoms: N7_28  and  N8_30 
REMARK    7  A    between atoms: N8_30  and  C12_32 
REMARK    8  A    between atoms: C12_32  and  C13_33 
REMARK    9  A    between atoms: C13_33  and  N9_34 
REMARK   10  A    between atoms: C15_38  and  N11_39 
REMARK   11  A    between atoms: C16_44  and  N13_45 
REMARK   12  A    between atoms: N13_45  and  N14_47 
ROOT
HETATM    1  C1  UNL     1      15.465  -7.767  68.806  1.00  0.00     0.678 A 
HETATM    2  N2  UNL     1      14.344  -8.048  68.129  1.00  0.00    -0.186 N 
ATOM      3  H2  UNL     1      14.278  -8.919  67.602  1.00  0.00     0.184 HD
HETATM    4  C2  UNL     1      13.279  -7.176  68.137  1.00  0.00     0.122 A 
HETATM    5  C3  UNL     1      13.455  -6.039  68.870  1.00  0.00     0.155 A 
HETATM    6  C4  UNL     1      14.616  -5.738  69.577  1.00  0.00     0.145 A 
HETATM    7  N5  UNL     1      15.609  -6.634  69.522  1.00  0.00    -0.175 N 
ATOM      8  H5  UNL     1      16.479  -6.458  70.024  1.00  0.00     0.186 HD
HETATM    9  S1  UNL     1      11.950  -5.130  68.704  1.00  0.00     0.270 S 
HETATM   10  O2  UNL     1      11.256  -5.068  70.038  1.00  0.00    -0.200 OA
HETATM   11  O3  UNL     1      12.147  -3.798  68.097  1.00  0.00    -0.200 OA
HETATM   12  N6  UNL     1      11.129  -6.233  67.683  1.00  0.00    -0.263 N 
ATOM     13  H6  UNL     1      10.188  -6.129  67.302  1.00  0.00     0.180 HD
HETATM   14  C11 UNL     1      12.006  -7.304  67.475  1.00  0.00     0.159 A 
HETATM   15  N7  UNL     1      11.649  -8.321  66.726  1.00  0.00    -0.287 N 
ATOM     16  H7  UNL     1      10.726  -8.333  66.292  1.00  0.00     0.188 HD
ENDROOT
BRANCH  15  17
HETATM   17  N8  UNL     1      12.546  -9.409  66.517  1.00  0.00    -0.333 N 
ATOM     18  H8  UNL     1      12.926  -9.904  67.324  1.00  0.00     0.180 HD
BRANCH  17  19
HETATM   19  C12 UNL     1      12.922  -9.818  65.214  1.00  0.00     0.160 C 
BRANCH  19  20
HETATM   20  C13 UNL     1      13.757  -8.864  64.424  1.00  0.00     0.169 C 
BRANCH  20  21
HETATM   21  N9  UNL     1      13.197  -8.472  63.167  1.00  0.00    -0.175 N 
HETATM   22  C14 UNL     1      11.914  -8.894  62.944  1.00  0.00     0.218 A 
HETATM   23  N10 UNL     1      11.291  -8.636  61.772  1.00  0.00    -0.187 N 
HETATM   24  C15 UNL     1      11.909  -7.957  60.792  1.00  0.00     0.691 A 
ATOM     25  H10 UNL     1      10.335  -8.961  61.630  1.00  0.00     0.185 HD
HETATM   26  N12 UNL     1      13.163  -7.552  61.028  1.00  0.00    -0.021 N 
HETATM   27  C16 UNL     1      13.817  -7.798  62.202  1.00  0.00     0.714 A 
ATOM     28  H12 UNL     1      13.653  -7.036  60.297  1.00  0.00     0.203 HD
BRANCH  24  29
HETATM   29  N11 UNL     1      11.288  -7.730  59.690  1.00  0.00    -0.234 N 
ATOM     30 2H11 UNL     1      11.017  -6.798  59.381  1.00  0.00     0.174 HD
ATOM     31 1H11 UNL     1      11.046  -8.512  59.080  1.00  0.00     0.174 HD
ENDBRANCH  24  29
BRANCH  27  32
HETATM   32  N13 UNL     1      15.003  -7.344  62.405  1.00  0.00    -0.138 N 
ATOM     33  H13 UNL     1      15.273  -7.075  63.351  1.00  0.00     0.205 HD
BRANCH  32  34
HETATM   34  N14 UNL     1      15.934  -7.208  61.374  1.00  0.00    -0.331 N 
ATOM     35 2H14 UNL     1      15.660  -6.670  60.552  1.00  0.00     0.177 HD
ATOM     36 1H14 UNL     1      16.864  -7.625  61.421  1.00  0.00     0.177 HD
ENDBRANCH  32  34
ENDBRANCH  27  32
ENDBRANCH  20  21
ENDBRANCH  19  20
ENDBRANCH  17  19
ENDBRANCH  15  17
BRANCH   1  37
HETATM   37  N1  UNL     1      16.469  -8.582  68.802  1.00  0.00    -0.234 N 
ATOM     38  H12 UNL     1      16.266  -9.559  69.013  1.00  0.00     0.174 HD
ATOM     39  H11 UNL     1      17.413  -8.254  68.597  1.00  0.00     0.174 HD
ENDBRANCH   1  37
BRANCH   6  40
HETATM   40  N3  UNL     1      14.721  -4.527  70.312  1.00  0.00    -0.362 N 
HETATM   41  C5  UNL     1      14.367  -4.531  71.702  1.00  0.00     0.154 C 
HETATM   42  C6  UNL     1      13.761  -3.203  72.055  1.00  0.00     0.292 C 
HETATM   43  N4  UNL     1      14.658  -2.163  71.669  1.00  0.00     0.093 N 
HETATM   44  C9  UNL     1      14.771  -2.074  70.245  1.00  0.00     0.292 C 
HETATM   45  C10 UNL     1      15.188  -3.366  69.596  1.00  0.00     0.154 C 
BRANCH  43  46
HETATM   46  C7  UNL     1      15.944  -2.202  72.294  1.00  0.00     0.298 C 
BRANCH  46  47
HETATM   47  C8  UNL     1      16.638  -0.856  72.238  1.00  0.00     0.194 C 
BRANCH  47  48
HETATM   48  O1  UNL     1      17.972  -1.025  71.865  1.00  0.00    -0.399 OA
ATOM     49  H1  UNL     1      18.409  -0.181  71.838  1.00  0.00     0.209 HD
ENDBRANCH  47  48
ENDBRANCH  46  47
ENDBRANCH  43  46
ENDBRANCH   6  40
TORSDOF 12
ENDMDL
MODEL 2
REMARK VINA RESULT: -6.614729166      2.347      3.771
REMARK  12 active torsions:
REMARK  status: ('A' for Active; 'I' for Inactive)
REMARK    1  A    between atoms: N1_1  and  C1_4 
REMARK    2  A    between atoms: C4_9  and  N3_10 
REMARK    3  A    between atoms: N4_13  and  C7_14 
REMARK    4  A    between atoms: C7_14  and  C8_15 
REMARK    5  A    between atoms: C8_15  and  O1_16 
REMARK    6  A    between atoms: N7_28  and  N8_30 
REMARK    7  A    between atoms: N8_30  and  C12_32 
REMARK    8  A    between atoms: C12_32  and  C13_33 
REMARK    9  A    between atoms: C13_33  and  N9_34 
REMARK   10  A    between atoms: C15_38  and  N11_39 
REMARK   11  A    between atoms: C16_44  and  N13_45 
REMARK   12  A    between atoms: N13_45  and  N14_47 
ROOT
HETATM    1  C1  UNL     1      11.000  -7.842  65.882  1.00  0.00     0.678 A 
HETATM    2  N2  UNL     1      11.811  -8.856  65.552  1.00  0.00    -0.186 N 
ATOM      3  H2  UNL     1      11.577  -9.448  64.755  1.00  0.00     0.184 HD
HETATM    4  C2  UNL     1      12.955  -9.108  66.274  1.00  0.00     0.122 A 
HETATM    5  C3  UNL     1      13.188  -8.264  67.321  1.00  0.00     0.155 A 
HETATM    6  C4  UNL     1      12.352  -7.208  67.672  1.00  0.00     0.145 A 
HETATM    7  N5  UNL     1      11.258  -7.025  66.924  1.00  0.00    -0.175 N 
ATOM      8  H5  UNL     1      10.615  -6.263  67.142  1.00  0.00     0.186 HD
HETATM    9  S1  UNL     1      14.701  -8.814  68.046  1.00  0.00     0.270 S 
HETATM   10  O2  UNL     1      15.760  -7.763  67.847  1.00  0.00    -0.200 OA
HETATM   11  O3  UNL     1      14.548  -9.216  69.459  1.00  0.00    -0.200 OA
HETATM   12  N6  UNL     1      14.995 -10.129  66.989  1.00  0.00    -0.263 N 
ATOM     13  H6  UNL     1      15.785 -10.775  67.021  1.00  0.00     0.180 HD
HETATM   14  C11 UNL     1      13.937 -10.142  66.073  1.00  0.00     0.159 A 
HETATM   15  N7  UNL     1      13.889 -11.047  65.123  1.00  0.00    -0.287 N 
ATOM     16  H7  UNL     1      14.628 -11.747  65.051  1.00  0.00     0.188 HD
ENDROOT
BRANCH  15  17
HETATM   17  N8  UNL     1      12.808 -11.056  64.193  1.00  0.00    -0.333 N 
ATOM     18  H8  UNL     1      11.862 -11.233  64.529  1.00  0.00     0.180 HD
BRANCH  17  19
HETATM   19  C12 UNL     1      13.020 -10.824  62.812  1.00  0.00     0.160 C 
BRANCH  19  20
HETATM   20  C13 UNL     1      13.919  -9.686  62.450  1.00  0.00     0.169 C 
BRANCH  20  21
HETATM   21  N9  UNL     1      13.319  -8.688  61.620  1.00  0.00    -0.175 N 
HETATM   22  C14 UNL     1      12.189  -9.082  60.955  1.00  0.00     0.218 A 
HETATM   23  N10 UNL     1      11.559  -8.247  60.098  1.00  0.00    -0.187 N 
HETATM   24  C15 UNL     1      12.022  -7.007  59.871  1.00  0.00     0.691 A 
ATOM     25  H10 UNL     1      10.719  -8.565  59.615  1.00  0.00     0.185 HD
HETATM   26  N12 UNL     1      13.127  -6.638  60.529  1.00  0.00    -0.021 N 
HETATM   27  C16 UNL     1      13.783  -7.459  61.403  1.00  0.00     0.714 A 
ATOM     28  H12 UNL     1      13.497  -5.700  60.371  1.00  0.00     0.203 HD
BRANCH  24  29
HETATM   29  N11 UNL     1      11.399  -6.241  59.048  1.00  0.00    -0.234 N 
ATOM     30 2H11 UNL     1      10.950  -5.369  59.324  1.00  0.00     0.174 HD
ATOM     31 1H11 UNL     1      11.342  -6.503  58.063  1.00  0.00     0.174 HD
ENDBRANCH  24  29
BRANCH  27  32
HETATM   32  N13 UNL     1      14.812  -7.044  62.052  1.00  0.00    -0.138 N 
ATOM     33  H13 UNL     1      14.692  -6.722  63.012  1.00  0.00     0.205 HD
BRANCH  32  34
HETATM   34  N14 UNL     1      16.089  -7.019  61.488  1.00  0.00    -0.331 N 
ATOM     35 2H14 UNL     1      16.196  -6.583  60.573  1.00  0.00     0.177 HD
ATOM     36 1H14 UNL     1      16.900  -7.418  61.960  1.00  0.00     0.177 HD
ENDBRANCH  32  34
ENDBRANCH  27  32
ENDBRANCH  20  21
ENDBRANCH  19  20
ENDBRANCH  17  19
ENDBRANCH  15  17
BRANCH   1  37
HETATM   37  N1  UNL     1       9.924  -7.600  65.208  1.00  0.00    -0.234 N 
ATOM     38  H12 UNL     1      10.048  -7.254  64.256  1.00  0.00     0.174 HD
ATOM     39  H11 UNL     1       9.001  -7.753  65.616  1.00  0.00     0.174 HD
ENDBRANCH   1  37
BRANCH   6  40
HETATM   40  N3  UNL     1      12.665  -6.378  68.781  1.00  0.00    -0.362 N 
HETATM   41  C5  UNL     1      13.516  -5.242  68.576  1.00  0.00     0.154 C 
HETATM   42  C6  UNL     1      14.349  -5.027  69.807  1.00  0.00     0.292 C 
HETATM   43  N4  UNL     1      13.490  -4.934  70.942  1.00  0.00     0.093 N 
HETATM   44  C9  UNL     1      12.856  -6.185  71.221  1.00  0.00     0.292 C 
HETATM   45  C10 UNL     1      12.088  -6.742  70.053  1.00  0.00     0.154 C 
BRANCH  43  46
HETATM   46  C7  UNL     1      12.541  -3.864  70.903  1.00  0.00     0.298 C 
BRANCH  46  47
HETATM   47  C8  UNL     1      13.197  -2.520  71.147  1.00  0.00     0.194 C 
BRANCH  47  48
HETATM   48  O1  UNL     1      12.373  -1.498  70.674  1.00  0.00    -0.399 OA
ATOM     49  H1  UNL     1      12.208  -0.869  71.368  1.00  0.00     0.209 HD
ENDBRANCH  47  48
ENDBRANCH  46  47
ENDBRANCH  43  46
ENDBRANCH   6  40
TORSDOF 12
ENDMDL
MODEL 3
REMARK VINA RESULT: -6.497553232      1.329      1.873
REMARK  12 active torsions:
REMARK  status: ('A' for Active; 'I' for Inactive)
REMARK    1  A    between atoms: N1_1  and  C1_4 
REMARK    2  A    between atoms: C4_9  and  N3_10 
REMARK    3  A    between atoms: N4_13  and  C7_14 
REMARK    4  A    between atoms: C7_14  and  C8_15 
REMARK    5  A    between atoms: C8_15  and  O1_16 
REMARK    6  A    between atoms: N7_28  and  N8_30 
REMARK    7  A    between atoms: N8_30  and  C12_32 
REMARK    8  A    between atoms: C12_32  and  C13_33 
REMARK    9  A    between atoms: C13_33  and  N9_34 
REMARK   10  A    between atoms: C15_38  and  N11_39 
REMARK   11  A    between atoms: C16_44  and  N13_45 
REMARK   12  A    between atoms: N13_45  and  N14_47 
ROOT
HETATM    1  C1  UNL     1      15.730  -8.095  68.716  1.00  0.00     0.678 A 
HETATM    2  N2  UNL     1      14.696  -8.409  67.924  1.00  0.00    -0.186 N 
ATOM      3  H2  UNL     1      14.726  -9.267  67.374  1.00  0.00     0.184 HD
HETATM    4  C2  UNL     1      13.595  -7.587  67.844  1.00  0.00     0.122 A 
HETATM    5  C3  UNL     1      13.643  -6.462  68.615  1.00  0.00     0.155 A 
HETATM    6  C4  UNL     1      14.712  -6.127  69.442  1.00  0.00     0.145 A 
HETATM    7  N5  UNL     1      15.747  -6.975  69.467  1.00  0.00    -0.175 N 
ATOM      8  H5  UNL     1      16.554  -6.773  70.058  1.00  0.00     0.186 HD
HETATM    9  S1  UNL     1      12.120  -5.619  68.320  1.00  0.00     0.270 S 
HETATM   10  O2  UNL     1      11.294  -5.625  69.578  1.00  0.00    -0.200 OA
HETATM   11  O3  UNL     1      12.311  -4.265  67.765  1.00  0.00    -0.200 OA
HETATM   12  N6  UNL     1      11.458  -6.731  67.198  1.00  0.00    -0.263 N 
ATOM     13  H6  UNL     1      10.555  -6.661  66.727  1.00  0.00     0.180 HD
HETATM   14  C11 UNL     1      12.402  -7.755  67.056  1.00  0.00     0.159 A 
HETATM   15  N7  UNL     1      12.170  -8.768  66.253  1.00  0.00    -0.287 N 
ATOM     16  H7  UNL     1      11.296  -8.811  65.728  1.00  0.00     0.188 HD
ENDROOT
BRANCH  15  17
HETATM   17  N8  UNL     1      13.135  -9.808  66.112  1.00  0.00    -0.333 N 
ATOM     18  H8  UNL     1      13.413 -10.346  66.932  1.00  0.00     0.180 HD
BRANCH  17  19
HETATM   19  C12 UNL     1      13.717 -10.111  64.856  1.00  0.00     0.160 C 
BRANCH  19  20
HETATM   20  C13 UNL     1      12.862  -9.898  63.649  1.00  0.00     0.169 C 
BRANCH  20  21
HETATM   21  N9  UNL     1      13.555  -9.393  62.504  1.00  0.00    -0.175 N 
HETATM   22  C14 UNL     1      14.234  -8.222  62.702  1.00  0.00     0.218 A 
HETATM   23  N10 UNL     1      14.885  -7.613  61.685  1.00  0.00    -0.187 N 
HETATM   24  C15 UNL     1      14.884  -8.138  60.449  1.00  0.00     0.691 A 
ATOM     25  H10 UNL     1      15.384  -6.741  61.859  1.00  0.00     0.185 HD
HETATM   26  N12 UNL     1      14.215  -9.284  60.272  1.00  0.00    -0.021 N 
HETATM   27  C16 UNL     1      13.550  -9.921  61.282  1.00  0.00     0.714 A 
ATOM     28  H12 UNL     1      14.200  -9.700  59.341  1.00  0.00     0.203 HD
BRANCH  24  29
HETATM   29  N11 UNL     1      15.511  -7.532  59.504  1.00  0.00    -0.234 N 
ATOM     30 2H11 UNL     1      15.203  -7.539  58.532  1.00  0.00     0.174 HD
ATOM     31 1H11 UNL     1      16.361  -7.011  59.720  1.00  0.00     0.174 HD
ENDBRANCH  24  29
BRANCH  27  32
HETATM   32  N13 UNL     1      12.964 -11.047  61.078  1.00  0.00    -0.138 N 
ATOM     33  H13 UNL     1      11.968 -11.128  61.284  1.00  0.00     0.205 HD
BRANCH  32  34
HETATM   34  N14 UNL     1      13.643 -12.162  60.584  1.00  0.00    -0.331 N 
ATOM     35 2H14 UNL     1      14.094 -12.781  61.257  1.00  0.00     0.177 HD
ATOM     36 1H14 UNL     1      13.698 -12.368  59.587  1.00  0.00     0.177 HD
ENDBRANCH  32  34
ENDBRANCH  27  32
ENDBRANCH  20  21
ENDBRANCH  19  20
ENDBRANCH  17  19
ENDBRANCH  15  17
BRANCH   1  37
HETATM   37  N1  UNL     1      16.768  -8.863  68.795  1.00  0.00    -0.234 N 
ATOM     38  H12 UNL     1      16.820  -9.631  68.127  1.00  0.00     0.174 HD
ATOM     39  H11 UNL     1      17.492  -8.698  69.495  1.00  0.00     0.174 HD
ENDBRANCH   1  37
BRANCH   6  40
HETATM   40  N3  UNL     1      14.685  -4.933  70.210  1.00  0.00    -0.362 N 
HETATM   41  C5  UNL     1      14.267  -5.004  71.580  1.00  0.00     0.154 C 
HETATM   42  C6  UNL     1      13.541  -3.737  71.934  1.00  0.00     0.292 C 
HETATM   43  N4  UNL     1      14.370  -2.620  71.617  1.00  0.00     0.093 N 
HETATM   44  C9  UNL     1      14.543  -2.483  70.204  1.00  0.00     0.292 C 
HETATM   45  C10 UNL     1      15.091  -3.719  69.545  1.00  0.00     0.154 C 
BRANCH  43  46
HETATM   46  C7  UNL     1      15.624  -2.574  72.304  1.00  0.00     0.298 C 
BRANCH  46  47
HETATM   47  C8  UNL     1      16.300  -1.227  72.154  1.00  0.00     0.194 C 
BRANCH  47  48
HETATM   48  O1  UNL     1      17.615  -1.401  71.721  1.00  0.00    -0.399 OA
ATOM     49  H1  UNL     1      17.986  -2.180  72.120  1.00  0.00     0.209 HD
ENDBRANCH  47  48
ENDBRANCH  46  47
ENDBRANCH  43  46
ENDBRANCH   6  40
TORSDOF 12
ENDMDL
MODEL 4
REMARK VINA RESULT: -6.436299296      3.945      8.961
REMARK  12 active torsions:
REMARK  status: ('A' for Active; 'I' for Inactive)
REMARK    1  A    between atoms: N1_1  and  C1_4 
REMARK    2  A    between atoms: C4_9  and  N3_10 
REMARK    3  A    between atoms: N4_13  and  C7_14 
REMARK    4  A    between atoms: C7_14  and  C8_15 
REMARK    5  A    between atoms: C8_15  and  O1_16 
REMARK    6  A    between atoms: N7_28  and  N8_30 
REMARK    7  A    between atoms: N8_30  and  C12_32 
REMARK    8  A    between atoms: C12_32  and  C13_33 
REMARK    9  A    between atoms: C13_33  and  N9_34 
REMARK   10  A    between atoms: C15_38  and  N11_39 
REMARK   11  A    between atoms: C16_44  and  N13_45 
REMARK   12  A    between atoms: N13_45  and  N14_47 
ROOT
HETATM    1  C1  UNL     1      10.401  -8.330  65.517  1.00  0.00     0.678 A 
HETATM    2  N2  UNL     1      10.981  -8.997  66.523  1.00  0.00    -0.186 N 
ATOM      3  H2  UNL     1      10.579  -8.947  67.459  1.00  0.00     0.184 HD
HETATM    4  C2  UNL     1      12.114  -9.748  66.309  1.00  0.00     0.122 A 
HETATM    5  C3  UNL     1      12.581  -9.757  65.027  1.00  0.00     0.155 A 
HETATM    6  C4  UNL     1      11.985  -9.068  63.975  1.00  0.00     0.145 A 
HETATM    7  N5  UNL     1      10.886  -8.359  64.259  1.00  0.00    -0.175 N 
ATOM      8  H5  UNL     1      10.413  -7.837  63.521  1.00  0.00     0.186 HD
HETATM    9  S1  UNL     1      14.014 -10.790  65.051  1.00  0.00     0.270 S 
HETATM   10  O2  UNL     1      13.747 -12.030  64.241  1.00  0.00    -0.200 OA
HETATM   11  O3  UNL     1      15.239 -10.081  64.630  1.00  0.00    -0.200 OA
HETATM   12  N6  UNL     1      13.987 -11.178  66.718  1.00  0.00    -0.263 N 
ATOM     13  H6  UNL     1      14.650 -11.770  67.219  1.00  0.00     0.180 HD
HETATM   14  C11 UNL     1      12.872 -10.523  67.257  1.00  0.00     0.159 A 
HETATM   15  N7  UNL     1      12.585 -10.638  68.533  1.00  0.00    -0.287 N 
ATOM     16  H7  UNL     1      13.176 -11.209  69.137  1.00  0.00     0.188 HD
ENDROOT
BRANCH  15  17
HETATM   17  N8  UNL     1      11.449  -9.969  69.076  1.00  0.00    -0.333 N 
ATOM     18  H8  UNL     1      10.514 -10.273  68.806  1.00  0.00     0.180 HD
BRANCH  17  19
HETATM   19  C12 UNL     1      11.591  -8.890  69.983  1.00  0.00     0.160 C 
BRANCH  19  20
HETATM   20  C13 UNL     1      10.905  -7.613  69.623  1.00  0.00     0.169 C 
BRANCH  20  21
HETATM   21  N9  UNL     1      11.780  -6.546  69.243  1.00  0.00    -0.175 N 
HETATM   22  C14 UNL     1      13.099  -6.890  69.118  1.00  0.00     0.218 A 
HETATM   23  N10 UNL     1      14.034  -5.961  68.817  1.00  0.00    -0.187 N 
HETATM   24  C15 UNL     1      13.699  -4.674  68.631  1.00  0.00     0.691 A 
ATOM     25  H10 UNL     1      15.010  -6.243  68.729  1.00  0.00     0.185 HD
HETATM   26  N12 UNL     1      12.405  -4.356  68.757  1.00  0.00    -0.021 N 
HETATM   27  C16 UNL     1      11.439  -5.273  69.059  1.00  0.00     0.714 A 
ATOM     28  H12 UNL     1      12.128  -3.383  68.622  1.00  0.00     0.203 HD
BRANCH  24  29
HETATM   29  N11 UNL     1      14.614  -3.817  68.348  1.00  0.00    -0.234 N 
ATOM     30 2H11 UNL     1      14.980  -3.676  67.407  1.00  0.00     0.174 HD
ATOM     31 1H11 UNL     1      15.007  -3.238  69.091  1.00  0.00     0.174 HD
ENDBRANCH  24  29
BRANCH  27  32
HETATM   32  N13 UNL     1      10.200  -4.931  69.119  1.00  0.00    -0.138 N 
ATOM     33  H13 UNL     1       9.490  -5.661  69.169  1.00  0.00     0.205 HD
BRANCH  32  34
HETATM   34  N14 UNL     1       9.796  -3.595  69.120  1.00  0.00    -0.331 N 
ATOM     35 2H14 UNL     1      10.425  -2.907  69.533  1.00  0.00     0.177 HD
ATOM     36 1H14 UNL     1       8.905  -3.296  68.725  1.00  0.00     0.177 HD
ENDBRANCH  32  34
ENDBRANCH  27  32
ENDBRANCH  20  21
ENDBRANCH  19  20
ENDBRANCH  17  19
ENDBRANCH  15  17
BRANCH   1  37
HETATM   37  N1  UNL     1       9.336  -7.622  65.711  1.00  0.00    -0.234 N 
ATOM     38  H12 UNL     1       8.459  -8.008  65.360  1.00  0.00     0.174 HD
ATOM     39  H11 UNL     1       9.381  -6.725  66.194  1.00  0.00     0.174 HD
ENDBRANCH   1  37
BRANCH   6  40
HETATM   40  N3  UNL     1      12.538  -9.126  62.668  1.00  0.00    -0.362 N 
HETATM   41  C5  UNL     1      12.006 -10.077  61.735  1.00  0.00     0.154 C 
HETATM   42  C6  UNL     1      13.115 -10.560  60.845  1.00  0.00     0.292 C 
HETATM   43  N4  UNL     1      13.762  -9.436  60.251  1.00  0.00     0.093 N 
HETATM   44  C9  UNL     1      14.471  -8.667  61.227  1.00  0.00     0.292 C 
HETATM   45  C10 UNL     1      13.608  -8.206  62.369  1.00  0.00     0.154 C 
BRANCH  43  46
HETATM   46  C7  UNL     1      12.924  -8.607  59.441  1.00  0.00     0.298 C 
BRANCH  46  47
HETATM   47  C8  UNL     1      13.726  -7.583  58.664  1.00  0.00     0.194 C 
BRANCH  47  48
HETATM   48  O1  UNL     1      14.344  -8.193  57.572  1.00  0.00    -0.399 OA
ATOM     49  H1  UNL     1      14.397  -7.582  56.847  1.00  0.00     0.209 HD
ENDBRANCH  47  48
ENDBRANCH  46  47
ENDBRANCH  43  46
ENDBRANCH   6  40
TORSDOF 12
ENDMDL
MODEL 5
REMARK VINA RESULT: -6.373233343      3.783      8.798
REMARK  12 active torsions:
REMARK  status: ('A' for Active; 'I' for Inactive)
REMARK    1  A    between atoms: N1_1  and  C1_4 
REMARK    2  A    between atoms: C4_9  and  N3_10 
REMARK    3  A    between atoms: N4_13  and  C7_14 
REMARK    4  A    between atoms: C7_14  and  C8_15 
REMARK    5  A    between atoms: C8_15  and  O1_16 
REMARK    6  A    between atoms: N7_28  and  N8_30 
REMARK    7  A    between atoms: N8_30  and  C12_32 
REMARK    8  A    between atoms: C12_32  and  C13_33 
REMARK    9  A    between atoms: C13_33  and  N9_34 
REMARK   10  A    between atoms: C15_38  and  N11_39 
REMARK   11  A    between atoms: C16_44  and  N13_45 
REMARK   12  A    between atoms: N13_45  and  N14_47 
ROOT
HETATM    1  C1  UNL     1      10.263  -8.292  65.596  1.00  0.00     0.678 A 
HETATM    2  N2  UNL     1      10.884  -8.883  66.625  1.00  0.00    -0.186 N 
ATOM      3  H2  UNL     1      10.482  -8.818  67.560  1.00  0.00     0.184 HD
HETATM    4  C2  UNL     1      12.058  -9.576  66.435  1.00  0.00     0.122 A 
HETATM    5  C3  UNL     1      12.520  -9.611  65.152  1.00  0.00     0.155 A 
HETATM    6  C4  UNL     1      11.882  -9.000  64.076  1.00  0.00     0.145 A 
HETATM    7  N5  UNL     1      10.745  -8.344  64.338  1.00  0.00    -0.175 N 
ATOM      8  H5  UNL     1      10.240  -7.881  63.582  1.00  0.00     0.186 HD
HETATM    9  S1  UNL     1      14.010 -10.557  65.209  1.00  0.00     0.270 S 
HETATM   10  O2  UNL     1      13.812 -11.843  64.452  1.00  0.00    -0.200 OA
HETATM   11  O3  UNL     1      15.191  -9.798  64.753  1.00  0.00    -0.200 OA
HETATM   12  N6  UNL     1      14.011 -10.879  66.891  1.00  0.00    -0.263 N 
ATOM     13  H6  UNL     1      14.708 -11.410  67.412  1.00  0.00     0.180 HD
HETATM   14  C11 UNL     1      12.862 -10.267  67.409  1.00  0.00     0.159 A 
HETATM   15  N7  UNL     1      12.586 -10.346  68.690  1.00  0.00    -0.287 N 
ATOM     16  H7  UNL     1      13.211 -10.857  69.314  1.00  0.00     0.188 HD
ENDROOT
BRANCH  15  17
HETATM   17  N8  UNL     1      11.416  -9.721  69.212  1.00  0.00    -0.333 N 
ATOM     18  H8  UNL     1      10.500 -10.100  68.974  1.00  0.00     0.180 HD
BRANCH  17  19
HETATM   19  C12 UNL     1      11.498  -8.586  70.056  1.00  0.00     0.160 C 
BRANCH  19  20
HETATM   20  C13 UNL     1      12.868  -8.135  70.446  1.00  0.00     0.169 C 
BRANCH  20  21
HETATM   21  N9  UNL     1      13.277  -6.891  69.871  1.00  0.00    -0.175 N 
HETATM   22  C14 UNL     1      12.293  -5.946  69.762  1.00  0.00     0.218 A 
HETATM   23  N10 UNL     1      12.540  -4.747  69.185  1.00  0.00    -0.187 N 
HETATM   24  C15 UNL     1      13.756  -4.447  68.703  1.00  0.00     0.691 A 
ATOM     25  H10 UNL     1      11.789  -4.060  69.117  1.00  0.00     0.185 HD
HETATM   26  N12 UNL     1      14.707  -5.382  68.818  1.00  0.00    -0.021 N 
HETATM   27  C16 UNL     1      14.486  -6.600  69.397  1.00  0.00     0.714 A 
ATOM     28  H12 UNL     1      15.638  -5.175  68.457  1.00  0.00     0.203 HD
BRANCH  24  29
HETATM   29  N11 UNL     1      13.955  -3.299  68.160  1.00  0.00    -0.234 N 
ATOM     30 2H11 UNL     1      13.832  -3.121  67.163  1.00  0.00     0.174 HD
ATOM     31 1H11 UNL     1      14.249  -2.513  68.740  1.00  0.00     0.174 HD
ENDBRANCH  24  29
BRANCH  27  32
HETATM   32  N13 UNL     1      15.444  -7.449  69.532  1.00  0.00    -0.138 N 
ATOM     33  H13 UNL     1      15.740  -7.710  70.472  1.00  0.00     0.205 HD
BRANCH  32  34
HETATM   34  N14 UNL     1      16.090  -8.023  68.437  1.00  0.00    -0.331 N 
ATOM     35 2H14 UNL     1      15.530  -8.581  67.792  1.00  0.00     0.177 HD
ATOM     36 1H14 UNL     1      17.088  -7.901  68.268  1.00  0.00     0.177 HD
ENDBRANCH  32  34
ENDBRANCH  27  32
ENDBRANCH  20  21
ENDBRANCH  19  20
ENDBRANCH  17  19
ENDBRANCH  15  17
BRANCH   1  37
HETATM   37  N1  UNL     1       9.160  -7.639  65.768  1.00  0.00    -0.234 N 
ATOM     38  H12 UNL     1       8.298  -8.120  65.509  1.00  0.00     0.174 HD
ATOM     39  H11 UNL     1       9.162  -6.691  66.144  1.00  0.00     0.174 HD
ENDBRANCH   1  37
BRANCH   6  40
HETATM   40  N3  UNL     1      12.432  -9.080  62.769  1.00  0.00    -0.362 N 
HETATM   41  C5  UNL     1      11.942 -10.087  61.874  1.00  0.00     0.154 C 
HETATM   42  C6  UNL     1      13.070 -10.550  60.996  1.00  0.00     0.292 C 
HETATM   43  N4  UNL     1      13.662  -9.419  60.359  1.00  0.00     0.093 N 
HETATM   44  C9  UNL     1      14.338  -8.584  61.303  1.00  0.00     0.292 C 
HETATM   45  C10 UNL     1      13.458  -8.122  62.433  1.00  0.00     0.154 C 
BRANCH  43  46
HETATM   46  C7  UNL     1      12.784  -8.660  59.524  1.00  0.00     0.298 C 
BRANCH  46  47
HETATM   47  C8  UNL     1      13.535  -7.627  58.709  1.00  0.00     0.194 C 
BRANCH  47  48
HETATM   48  O1  UNL     1      14.269  -8.258  57.703  1.00  0.00    -0.399 OA
ATOM     49  H1  UNL     1      14.312  -9.192  57.873  1.00  0.00     0.209 HD
ENDBRANCH  47  48
ENDBRANCH  46  47
ENDBRANCH  43  46
ENDBRANCH   6  40
TORSDOF 12
ENDMDL
