MODEL 1
REMARK VINA RESULT: -7.919833401      0.000      0.000
REMARK  9 active torsions:
REMARK  status: ('A' for Active; 'I' for Inactive)
REMARK    1  A    between atoms: C2_7  and  N3_8 
REMARK    2  A    between atoms: C5_11  and  N4_12 
REMARK    3  A    between atoms: N4_12  and  O1_14 
REMARK    4  A    between atoms: O1_14  and  C6_15 
REMARK    5  A    between atoms: C6_15  and  C7_16 
REMARK    6  A    between atoms: C7_16  and  N5_17 
REMARK    7  A    between atoms: N5_17  and  C8_19 
REMARK    8  A    between atoms: N6_21  and  C10_22 
REMARK    9  A    between atoms: C13_31  and  C14_32 
ROOT
HETATM    1  C7  UNL     1       9.772 -15.281  62.948  1.00  0.00     0.144 C 
ENDROOT
BRANCH   1   2
HETATM    2  C6  UNL     1      10.887 -14.638  63.885  1.00  0.00     0.220 C 
BRANCH   2   3
HETATM    3  O1  UNL     1      11.640 -14.068  62.888  1.00  0.00    -0.283 OA
BRANCH   3   4
HETATM    4  N4  UNL     1      12.093 -12.907  63.080  1.00  0.00    -0.296 N 
ATOM      5  H4  UNL     1      12.870 -12.747  63.722  1.00  0.00     0.188 HD
BRANCH   4   6
HETATM    6  C5  UNL     1      11.503 -11.849  62.392  1.00  0.00     0.125 C 
HETATM    7  C4  UNL     1      11.513 -10.588  63.293  1.00  0.00     0.048 C 
HETATM    8  C3  UNL     1      11.284  -9.538  62.267  1.00  0.00     0.126 C 
HETATM    9  N3  UNL     1      12.171  -9.992  61.149  1.00  0.00    -0.365 N 
HETATM   10  C16 UNL     1      12.466 -11.351  61.269  1.00  0.00     0.151 C 
BRANCH   9  11
HETATM   11  C2  UNL     1      12.519  -8.937  60.210  1.00  0.00     0.124 A 
HETATM   12  N2  UNL     1      13.725  -8.742  59.808  1.00  0.00    -0.177 N 
HETATM   13  C1  UNL     1      14.088  -7.588  59.152  1.00  0.00     0.680 A 
ATOM     14  H2  UNL     1      14.428  -9.460  59.978  1.00  0.00     0.185 HD
HETATM   15  N1  UNL     1      15.286  -7.337  58.842  1.00  0.00    -0.234 N 
HETATM   16  N12 UNL     1      13.103  -6.727  58.993  1.00  0.00    -0.156 N 
ATOM     17  H12 UNL     1      16.048  -8.004  58.966  1.00  0.00     0.174 HD
ATOM     18  H11 UNL     1      15.555  -6.482  58.355  1.00  0.00     0.174 HD
HETATM   19  C18 UNL     1      11.833  -6.833  59.353  1.00  0.00     0.263 A 
ATOM     20  H12 UNL     1      13.355  -5.855  58.526  1.00  0.00     0.187 HD
HETATM   21  C17 UNL     1      11.473  -8.039  60.018  1.00  0.00     0.123 A 
HETATM   22  O4  UNL     1      10.945  -6.007  59.173  1.00  0.00    -0.268 OA
ENDBRANCH   9  11
ENDBRANCH   4   6
ENDBRANCH   3   4
ENDBRANCH   2   3
ENDBRANCH   1   2
BRANCH   1  23
HETATM   23  N5  UNL     1      10.423 -15.983  61.937  1.00  0.00    -0.392 N 
ATOM     24  H5  UNL     1      11.127 -16.662  62.227  1.00  0.00     0.155 HD
BRANCH  23  25
HETATM   25  C8  UNL     1      10.209 -15.852  60.581  1.00  0.00     0.300 C 
HETATM   26  C9  UNL     1      11.143 -16.748  59.766  1.00  0.00     0.180 C 
HETATM   27  N6  UNL     1      11.655 -15.846  58.734  1.00  0.00    -0.341 N 
HETATM   28  C15 UNL     1      10.720 -14.802  58.645  1.00  0.00     0.360 C 
HETATM   29  N11 UNL     1      10.469 -14.498  60.087  1.00  0.00    -0.037 N 
ATOM     30 2H11 UNL     1       9.745 -13.806  60.279  1.00  0.00     0.281 HD
ATOM     31 1H11 UNL     1      11.203 -13.979  60.569  1.00  0.00     0.281 HD
BRANCH  27  32
HETATM   32  C10 UNL     1      12.881 -16.146  58.111  1.00  0.00     0.121 C 
HETATM   33  N7  UNL     1      12.742 -17.053  57.138  1.00  0.00    -0.318 N 
HETATM   34  C11 UNL     1      13.671 -17.623  56.255  1.00  0.00     0.191 C 
ATOM     35  H7  UNL     1      11.788 -17.392  57.016  1.00  0.00     0.170 HD
HETATM   36  N8  UNL     1      13.194 -18.625  55.363  1.00  0.00    -0.063 NA
HETATM   37  N9  UNL     1      14.897 -17.231  56.160  1.00  0.00    -0.343 N 
HETATM   38  C12 UNL     1      15.644 -16.199  56.790  1.00  0.00     0.294 C 
ATOM     39  H9  UNL     1      15.444 -17.775  55.493  1.00  0.00     0.164 HD
HETATM   40  O2  UNL     1      14.816 -15.189  57.272  1.00  0.00    -0.350 OA
HETATM   41  C13 UNL     1      14.158 -15.557  58.466  1.00  0.00     0.279 C 
BRANCH  41  42
HETATM   42  C14 UNL     1      14.093 -14.312  59.254  1.00  0.00     0.267 C 
HETATM   43  N10 UNL     1      13.924 -14.500  60.642  1.00  0.00    -0.059 NA
HETATM   44  O3  UNL     1      14.191 -13.197  58.733  1.00  0.00    -0.273 OA
ENDBRANCH  41  42
ENDBRANCH  27  32
ENDBRANCH  23  25
ENDBRANCH   1  23
TORSDOF 9
ENDMDL
MODEL 2
REMARK VINA RESULT: -7.859087132      2.168      7.906
REMARK  9 active torsions:
REMARK  status: ('A' for Active; 'I' for Inactive)
REMARK    1  A    between atoms: C2_7  and  N3_8 
REMARK    2  A    between atoms: C5_11  and  N4_12 
REMARK    3  A    between atoms: N4_12  and  O1_14 
REMARK    4  A    between atoms: O1_14  and  C6_15 
REMARK    5  A    between atoms: C6_15  and  C7_16 
REMARK    6  A    between atoms: C7_16  and  N5_17 
REMARK    7  A    between atoms: N5_17  and  C8_19 
REMARK    8  A    between atoms: N6_21  and  C10_22 
REMARK    9  A    between atoms: C13_31  and  C14_32 
ROOT
HETATM    1  C7  UNL     1       8.558 -12.955  62.303  1.00  0.00     0.144 C 
ENDROOT
BRANCH   1   2
HETATM    2  C6  UNL     1       7.793 -13.163  60.922  1.00  0.00     0.220 C 
BRANCH   2   3
HETATM    3  O1  UNL     1       8.876 -13.587  60.191  1.00  0.00    -0.283 OA
BRANCH   3   4
HETATM    4  N4  UNL     1       8.903 -14.791  59.820  1.00  0.00    -0.296 N 
ATOM      5  H4  UNL     1       8.048 -15.274  59.540  1.00  0.00     0.188 HD
BRANCH   4   6
HETATM    6  C5  UNL     1      10.132 -15.447  59.804  1.00  0.00     0.125 C 
HETATM    7  C4  UNL     1       9.937 -16.880  59.247  1.00  0.00     0.048 C 
HETATM    8  C3  UNL     1      11.342 -17.214  58.900  1.00  0.00     0.126 C 
HETATM    9  N3  UNL     1      11.823 -15.940  58.275  1.00  0.00    -0.365 N 
HETATM   10  C16 UNL     1      11.023 -14.864  58.663  1.00  0.00     0.151 C 
BRANCH   9  11
HETATM   11  C2  UNL     1      12.989 -16.108  57.422  1.00  0.00     0.124 A 
HETATM   12  N2  UNL     1      13.138 -17.127  56.650  1.00  0.00    -0.177 N 
HETATM   13  C1  UNL     1      14.349 -17.418  56.067  1.00  0.00     0.680 A 
ATOM     14  H2  UNL     1      12.339 -17.733  56.467  1.00  0.00     0.185 HD
HETATM   15  N1  UNL     1      14.538 -18.468  55.392  1.00  0.00    -0.234 N 
HETATM   16  N12 UNL     1      15.313 -16.575  56.379  1.00  0.00    -0.156 N 
ATOM     17  H12 UNL     1      13.792 -19.121  55.151  1.00  0.00     0.174 HD
ATOM     18  H11 UNL     1      15.436 -18.683  54.959  1.00  0.00     0.174 HD
HETATM   19  C18 UNL     1      15.265 -15.495  57.145  1.00  0.00     0.263 A 
ATOM     20  H12 UNL     1      16.225 -16.783  55.973  1.00  0.00     0.187 HD
HETATM   21  C17 UNL     1      13.999 -15.203  57.729  1.00  0.00     0.123 A 
HETATM   22  O4  UNL     1      16.188 -14.730  57.399  1.00  0.00    -0.268 OA
ENDBRANCH   9  11
ENDBRANCH   4   6
ENDBRANCH   3   4
ENDBRANCH   2   3
ENDBRANCH   1   2
BRANCH   1  23
HETATM   23  N5  UNL     1       9.391 -11.847  62.162  1.00  0.00    -0.392 N 
ATOM     24  H5  UNL     1       8.963 -10.990  61.813  1.00  0.00     0.155 HD
BRANCH  23  25
HETATM   25  C8  UNL     1      10.739 -11.797  62.449  1.00  0.00     0.300 C 
HETATM   26  C9  UNL     1      11.235 -10.358  62.605  1.00  0.00     0.180 C 
HETATM   27  N6  UNL     1      12.452 -10.334  61.793  1.00  0.00    -0.341 N 
HETATM   28  C15 UNL     1      12.865 -11.673  61.689  1.00  0.00     0.360 C 
HETATM   29  N11 UNL     1      11.573 -12.364  61.388  1.00  0.00    -0.037 N 
ATOM     30 2H11 UNL     1      11.611 -13.383  61.345  1.00  0.00     0.281 HD
ATOM     31 1H11 UNL     1      11.221 -12.259  60.437  1.00  0.00     0.281 HD
BRANCH  27  32
HETATM   32  C10 UNL     1      12.915  -9.103  61.292  1.00  0.00     0.121 C 
HETATM   33  N7  UNL     1      12.069  -8.572  60.402  1.00  0.00    -0.318 N 
HETATM   34  C11 UNL     1      12.111  -7.372  59.678  1.00  0.00     0.191 C 
ATOM     35  H7  UNL     1      11.244  -9.143  60.218  1.00  0.00     0.170 HD
HETATM   36  N8  UNL     1      11.057  -7.133  58.750  1.00  0.00    -0.063 NA
HETATM   37  N9  UNL     1      12.999  -6.455  59.868  1.00  0.00    -0.343 N 
HETATM   38  C12 UNL     1      14.082  -6.318  60.777  1.00  0.00     0.294 C 
ATOM     39  H9  UNL     1      12.904  -5.663  59.232  1.00  0.00     0.164 HD
HETATM   40  O2  UNL     1      13.897  -7.099  61.914  1.00  0.00    -0.350 OA
HETATM   41  C13 UNL     1      14.160  -8.467  61.676  1.00  0.00     0.279 C 
BRANCH  41  42
HETATM   42  C14 UNL     1      14.769  -8.953  62.928  1.00  0.00     0.267 C 
HETATM   43  N10 UNL     1      14.177  -8.451  64.106  1.00  0.00    -0.059 NA
HETATM   44  O3  UNL     1      15.715  -9.745  62.936  1.00  0.00    -0.273 OA
ENDBRANCH  41  42
ENDBRANCH  27  32
ENDBRANCH  23  25
ENDBRANCH   1  23
TORSDOF 9
ENDMDL
MODEL 3
REMARK VINA RESULT: -7.697266130      7.069     11.635
REMARK  9 active torsions:
REMARK  status: ('A' for Active; 'I' for Inactive)
REMARK    1  A    between atoms: C2_7  and  N3_8 
REMARK    2  A    between atoms: C5_11  and  N4_12 
REMARK    3  A    between atoms: N4_12  and  O1_14 
REMARK    4  A    between atoms: O1_14  and  C6_15 
REMARK    5  A    between atoms: C6_15  and  C7_16 
REMARK    6  A    between atoms: C7_16  and  N5_17 
REMARK    7  A    between atoms: N5_17  and  C8_19 
REMARK    8  A    between atoms: N6_21  and  C10_22 
REMARK    9  A    between atoms: C13_31  and  C14_32 
ROOT
HETATM    1  C7  UNL     1      10.808  -9.181  67.941  1.00  0.00     0.144 C 
ENDROOT
BRANCH   1   2
HETATM    2  C6  UNL     1      10.041  -8.466  66.743  1.00  0.00     0.220 C 
BRANCH   2   3
HETATM    3  O1  UNL     1      11.030  -8.605  65.801  1.00  0.00    -0.283 OA
BRANCH   3   4
HETATM    4  N4  UNL     1      11.470  -9.763  65.572  1.00  0.00    -0.296 N 
ATOM      5  H4  UNL     1      11.549 -10.452  66.322  1.00  0.00     0.188 HD
BRANCH   4   6
HETATM    6  C5  UNL     1      11.845 -10.080  64.268  1.00  0.00     0.125 C 
HETATM    7  C4  UNL     1      10.572 -10.265  63.404  1.00  0.00     0.048 C 
HETATM    8  C3  UNL     1      11.164 -10.141  62.047  1.00  0.00     0.126 C 
HETATM    9  N3  UNL     1      12.113  -8.995  62.221  1.00  0.00    -0.365 N 
HETATM   10  C16 UNL     1      12.431  -8.813  63.569  1.00  0.00     0.151 C 
BRANCH   9  11
HETATM   11  C2  UNL     1      12.482  -8.343  60.975  1.00  0.00     0.124 A 
HETATM   12  N2  UNL     1      13.685  -8.351  60.521  1.00  0.00    -0.177 N 
HETATM   13  C1  UNL     1      14.079  -7.511  59.507  1.00  0.00     0.680 A 
ATOM     14  H2  UNL     1      14.364  -8.997  60.924  1.00  0.00     0.185 HD
HETATM   15  N1  UNL     1      15.279  -7.434  59.121  1.00  0.00    -0.234 N 
HETATM   16  N12 UNL     1      13.126  -6.714  59.067  1.00  0.00    -0.156 N 
ATOM     17  H12 UNL     1      16.017  -8.051  59.462  1.00  0.00     0.174 HD
ATOM     18  H11 UNL     1      15.571  -6.811  58.368  1.00  0.00     0.174 HD
HETATM   19  C18 UNL     1      11.860  -6.633  59.450  1.00  0.00     0.263 A 
ATOM     20  H12 UNL     1      13.402  -6.068  58.327  1.00  0.00     0.187 HD
HETATM   21  C17 UNL     1      11.468  -7.521  60.492  1.00  0.00     0.123 A 
HETATM   22  O4  UNL     1      11.002  -5.882  59.003  1.00  0.00    -0.268 OA
ENDBRANCH   9  11
ENDBRANCH   4   6
ENDBRANCH   3   4
ENDBRANCH   2   3
ENDBRANCH   1   2
BRANCH   1  23
HETATM   23  N5  UNL     1      11.450  -8.192  68.683  1.00  0.00    -0.392 N 
ATOM     24  H5  UNL     1      10.858  -7.581  69.246  1.00  0.00     0.155 HD
BRANCH  23  25
HETATM   25  C8  UNL     1      12.808  -7.959  68.731  1.00  0.00     0.300 C 
HETATM   26  C9  UNL     1      13.177  -6.960  69.830  1.00  0.00     0.180 C 
HETATM   27  N6  UNL     1      14.078  -6.031  69.149  1.00  0.00    -0.341 N 
HETATM   28  C15 UNL     1      14.575  -6.731  68.037  1.00  0.00     0.360 C 
HETATM   29  N11 UNL     1      13.333  -7.366  67.499  1.00  0.00    -0.037 N 
ATOM     30 2H11 UNL     1      13.461  -8.005  66.715  1.00  0.00     0.281 HD
ATOM     31 1H11 UNL     1      12.698  -6.748  66.994  1.00  0.00     0.281 HD
BRANCH  27  32
HETATM   32  C10 UNL     1      14.235  -4.730  69.663  1.00  0.00     0.121 C 
HETATM   33  N7  UNL     1      15.417  -4.567  70.267  1.00  0.00    -0.318 N 
HETATM   34  C11 UNL     1      16.000  -3.455  70.891  1.00  0.00     0.191 C 
ATOM     35  H7  UNL     1      16.001  -5.404  70.275  1.00  0.00     0.170 HD
HETATM   36  N8  UNL     1      17.274  -3.641  71.500  1.00  0.00    -0.063 NA
HETATM   37  N9  UNL     1      15.482  -2.273  70.869  1.00  0.00    -0.343 N 
HETATM   38  C12 UNL     1      14.321  -1.726  70.259  1.00  0.00     0.294 C 
ATOM     39  H9  UNL     1      16.018  -1.587  71.402  1.00  0.00     0.164 HD
HETATM   40  O2  UNL     1      13.908  -2.490  69.171  1.00  0.00    -0.350 OA
HETATM   41  C13 UNL     1      13.246  -3.674  69.566  1.00  0.00     0.279 C 
BRANCH  41  42
HETATM   42  C14 UNL     1      12.196  -3.871  68.548  1.00  0.00     0.267 C 
HETATM   43  N10 UNL     1      10.962  -4.331  69.054  1.00  0.00    -0.059 NA
HETATM   44  O3  UNL     1      12.388  -3.637  67.351  1.00  0.00    -0.273 OA
ENDBRANCH  41  42
ENDBRANCH  27  32
ENDBRANCH  23  25
ENDBRANCH   1  23
TORSDOF 9
ENDMDL
MODEL 4
REMARK VINA RESULT: -7.657365345      5.853      8.524
REMARK  9 active torsions:
REMARK  status: ('A' for Active; 'I' for Inactive)
REMARK    1  A    between atoms: C2_7  and  N3_8 
REMARK    2  A    between atoms: C5_11  and  N4_12 
REMARK    3  A    between atoms: N4_12  and  O1_14 
REMARK    4  A    between atoms: O1_14  and  C6_15 
REMARK    5  A    between atoms: C6_15  and  C7_16 
REMARK    6  A    between atoms: C7_16  and  N5_17 
REMARK    7  A    between atoms: N5_17  and  C8_19 
REMARK    8  A    between atoms: N6_21  and  C10_22 
REMARK    9  A    between atoms: C13_31  and  C14_32 
ROOT
HETATM    1  C7  UNL     1      13.377 -11.919  64.691  1.00  0.00     0.144 C 
ENDROOT
BRANCH   1   2
HETATM    2  C6  UNL     1      13.964 -11.881  66.171  1.00  0.00     0.220 C 
BRANCH   2   3
HETATM    3  O1  UNL     1      14.193 -10.528  66.229  1.00  0.00    -0.283 OA
BRANCH   3   4
HETATM    4  N4  UNL     1      15.057 -10.110  67.045  1.00  0.00    -0.296 N 
ATOM      5  H4  UNL     1      16.029 -10.417  66.984  1.00  0.00     0.188 HD
BRANCH   4   6
HETATM    6  C5  UNL     1      14.650  -9.218  68.035  1.00  0.00     0.125 C 
HETATM    7  C4  UNL     1      15.897  -8.514  68.628  1.00  0.00     0.048 C 
HETATM    8  C3  UNL     1      15.245  -7.351  69.285  1.00  0.00     0.126 C 
HETATM    9  N3  UNL     1      14.238  -6.934  68.258  1.00  0.00    -0.365 N 
HETATM   10  C16 UNL     1      13.963  -7.981  67.376  1.00  0.00     0.151 C 
BRANCH   9  11
HETATM   11  C2  UNL     1      13.782  -5.560  68.406  1.00  0.00     0.124 A 
HETATM   12  N2  UNL     1      14.593  -4.584  68.615  1.00  0.00    -0.177 N 
HETATM   13  C1  UNL     1      14.144  -3.351  69.029  1.00  0.00     0.680 A 
ATOM     14  H2  UNL     1      15.592  -4.727  68.471  1.00  0.00     0.185 HD
HETATM   15  N1  UNL     1      14.933  -2.414  69.337  1.00  0.00    -0.234 N 
HETATM   16  N12 UNL     1      12.839  -3.280  69.191  1.00  0.00    -0.156 N 
ATOM     17  H12 UNL     1      15.944  -2.469  69.211  1.00  0.00     0.174 HD
ATOM     18  H11 UNL     1      14.600  -1.500  69.643  1.00  0.00     0.174 HD
HETATM   19  C18 UNL     1      11.919  -4.213  68.992  1.00  0.00     0.263 A 
ATOM     20  H12 UNL     1      12.486  -2.380  69.517  1.00  0.00     0.187 HD
HETATM   21  C17 UNL     1      12.401  -5.478  68.551  1.00  0.00     0.123 A 
HETATM   22  O4  UNL     1      10.708  -4.098  69.145  1.00  0.00    -0.268 OA
ENDBRANCH   9  11
ENDBRANCH   4   6
ENDBRANCH   3   4
ENDBRANCH   2   3
ENDBRANCH   1   2
BRANCH   1  23
HETATM   23  N5  UNL     1      11.994 -11.780  64.781  1.00  0.00    -0.392 N 
ATOM     24  H5  UNL     1      11.484 -12.537  65.236  1.00  0.00     0.155 HD
BRANCH  23  25
HETATM   25  C8  UNL     1      11.247 -10.718  64.316  1.00  0.00     0.300 C 
HETATM   26  C9  UNL     1      11.523 -10.430  62.839  1.00  0.00     0.180 C 
HETATM   27  N6  UNL     1      11.716  -8.980  62.812  1.00  0.00    -0.341 N 
HETATM   28  C15 UNL     1      11.079  -8.491  63.965  1.00  0.00     0.360 C 
HETATM   29  N11 UNL     1      11.547  -9.460  65.003  1.00  0.00    -0.037 N 
ATOM     30 2H11 UNL     1      11.141  -9.351  65.932  1.00  0.00     0.281 HD
ATOM     31 1H11 UNL     1      12.509  -9.343  65.322  1.00  0.00     0.281 HD
BRANCH  27  32
HETATM   32  C10 UNL     1      12.457  -8.408  61.761  1.00  0.00     0.121 C 
HETATM   33  N7  UNL     1      11.669  -7.880  60.819  1.00  0.00    -0.318 N 
HETATM   34  C11 UNL     1      11.966  -7.203  59.628  1.00  0.00     0.191 C 
ATOM     35  H7  UNL     1      10.671  -7.990  60.999  1.00  0.00     0.170 HD
HETATM   36  N8  UNL     1      10.868  -6.818  58.805  1.00  0.00    -0.063 NA
HETATM   37  N9  UNL     1      13.159  -6.848  59.288  1.00  0.00    -0.343 N 
HETATM   38  C12 UNL     1      14.427  -6.955  59.920  1.00  0.00     0.294 C 
ATOM     39  H9  UNL     1      13.201  -6.395  58.374  1.00  0.00     0.164 HD
HETATM   40  O2  UNL     1      14.301  -7.084  61.300  1.00  0.00    -0.350 OA
HETATM   41  C13 UNL     1      13.905  -8.385  61.684  1.00  0.00     0.279 C 
BRANCH  41  42
HETATM   42  C14 UNL     1      14.618  -8.632  62.952  1.00  0.00     0.267 C 
HETATM   43  N10 UNL     1      15.650  -9.592  62.871  1.00  0.00    -0.059 NA
HETATM   44  O3  UNL     1      14.337  -8.033  63.994  1.00  0.00    -0.273 OA
ENDBRANCH  41  42
ENDBRANCH  27  32
ENDBRANCH  23  25
ENDBRANCH   1  23
TORSDOF 9
ENDMDL
MODEL 5
REMARK VINA RESULT: -7.626557934      1.842      7.534
REMARK  9 active torsions:
REMARK  status: ('A' for Active; 'I' for Inactive)
REMARK    1  A    between atoms: C2_7  and  N3_8 
REMARK    2  A    between atoms: C5_11  and  N4_12 
REMARK    3  A    between atoms: N4_12  and  O1_14 
REMARK    4  A    between atoms: O1_14  and  C6_15 
REMARK    5  A    between atoms: C6_15  and  C7_16 
REMARK    6  A    between atoms: C7_16  and  N5_17 
REMARK    7  A    between atoms: N5_17  and  C8_19 
REMARK    8  A    between atoms: N6_21  and  C10_22 
REMARK    9  A    between atoms: C13_31  and  C14_32 
ROOT
HETATM    1  C7  UNL     1      11.677 -12.644  63.929  1.00  0.00     0.144 C 
ENDROOT
BRANCH   1   2
HETATM    2  C6  UNL     1      10.690 -13.859  63.641  1.00  0.00     0.220 C 
BRANCH   2   3
HETATM    3  O1  UNL     1      10.001 -13.277  62.605  1.00  0.00    -0.283 OA
BRANCH   3   4
HETATM    4  N4  UNL     1      10.599 -13.138  61.504  1.00  0.00    -0.296 N 
ATOM      5  H4  UNL     1      10.854 -12.212  61.159  1.00  0.00     0.188 HD
BRANCH   4   6
HETATM    6  C5  UNL     1      10.900 -14.283  60.770  1.00  0.00     0.125 C 
HETATM    7  C4  UNL     1       9.971 -14.353  59.532  1.00  0.00     0.048 C 
HETATM    8  C3  UNL     1      10.725 -15.326  58.700  1.00  0.00     0.126 C 
HETATM    9  N3  UNL     1      12.139 -14.866  58.882  1.00  0.00    -0.365 N 
HETATM   10  C16 UNL     1      12.265 -14.093  60.037  1.00  0.00     0.151 C 
BRANCH   9  11
HETATM   11  C2  UNL     1      13.042 -15.318  57.835  1.00  0.00     0.124 A 
HETATM   12  N2  UNL     1      12.784 -16.337  57.094  1.00  0.00    -0.177 N 
HETATM   13  C1  UNL     1      13.751 -16.920  56.309  1.00  0.00     0.680 A 
ATOM     14  H2  UNL     1      11.840 -16.721  57.088  1.00  0.00     0.185 HD
HETATM   15  N1  UNL     1      13.542 -17.980  55.656  1.00  0.00    -0.234 N 
HETATM   16  N12 UNL     1      14.935 -16.348  56.400  1.00  0.00    -0.156 N 
ATOM     17  H12 UNL     1      12.625 -18.422  55.586  1.00  0.00     0.174 HD
ATOM     18  H11 UNL     1      14.259 -18.412  55.073  1.00  0.00     0.174 HD
HETATM   19  C18 UNL     1      15.303 -15.296  57.115  1.00  0.00     0.263 A 
ATOM     20  H12 UNL     1      15.673 -16.778  55.841  1.00  0.00     0.187 HD
HETATM   21  C17 UNL     1      14.285 -14.697  57.911  1.00  0.00     0.123 A 
HETATM   22  O4  UNL     1      16.418 -14.789  57.160  1.00  0.00    -0.268 OA
ENDBRANCH   9  11
ENDBRANCH   4   6
ENDBRANCH   3   4
ENDBRANCH   2   3
ENDBRANCH   1   2
BRANCH   1  23
HETATM   23  N5  UNL     1      10.956 -11.664  64.608  1.00  0.00    -0.392 N 
ATOM     24  H5  UNL     1      10.289 -11.987  65.309  1.00  0.00     0.155 HD
BRANCH  23  25
HETATM   25  C8  UNL     1      11.055 -10.302  64.424  1.00  0.00     0.300 C 
HETATM   26  C9  UNL     1      10.787  -9.900  62.972  1.00  0.00     0.180 C 
HETATM   27  N6  UNL     1      11.889  -8.989  62.668  1.00  0.00    -0.341 N 
HETATM   28  C15 UNL     1      12.346  -8.518  63.910  1.00  0.00     0.360 C 
HETATM   29  N11 UNL     1      12.392  -9.779  64.712  1.00  0.00    -0.037 N 
ATOM     30 2H11 UNL     1      12.628  -9.673  65.699  1.00  0.00     0.281 HD
ATOM     31 1H11 UNL     1      13.171 -10.408  64.513  1.00  0.00     0.281 HD
BRANCH  27  32
HETATM   32  C10 UNL     1      12.269  -8.799  61.326  1.00  0.00     0.121 C 
HETATM   33  N7  UNL     1      11.596  -7.798  60.749  1.00  0.00    -0.318 N 
HETATM   34  C11 UNL     1      11.661  -7.254  59.459  1.00  0.00     0.191 C 
ATOM     35  H7  UNL     1      10.912  -7.350  61.358  1.00  0.00     0.170 HD
HETATM   36  N8  UNL     1      10.743  -6.210  59.144  1.00  0.00    -0.063 NA
HETATM   37  N9  UNL     1      12.550  -7.591  58.586  1.00  0.00    -0.343 N 
HETATM   38  C12 UNL     1      13.660  -8.478  58.615  1.00  0.00     0.294 C 
ATOM     39  H9  UNL     1      12.432  -7.123  57.687  1.00  0.00     0.164 HD
HETATM   40  O2  UNL     1      14.105  -8.698  59.916  1.00  0.00    -0.350 OA
HETATM   41  C13 UNL     1      13.267  -9.586  60.628  1.00  0.00     0.279 C 
BRANCH  41  42
HETATM   42  C14 UNL     1      14.187 -10.360  61.483  1.00  0.00     0.267 C 
HETATM   43  N10 UNL     1      15.283  -9.627  61.986  1.00  0.00    -0.059 NA
HETATM   44  O3  UNL     1      14.000 -11.552  61.742  1.00  0.00    -0.273 OA
ENDBRANCH  41  42
ENDBRANCH  27  32
ENDBRANCH  23  25
ENDBRANCH   1  23
TORSDOF 9
ENDMDL
