MODEL 1
REMARK VINA RESULT: -6.642464518      0.000      0.000
REMARK  9 active torsions:
REMARK  status: ('A' for Active; 'I' for Inactive)
REMARK    1  A    between atoms: O1_2  and  C2_3 
REMARK    2  A    between atoms: C2_3  and  C3_5 
REMARK    3  A    between atoms: C3_5  and  N1_6 
REMARK    4  A    between atoms: C9_16  and  N3_17 
REMARK    5  A    between atoms: N3_17  and  N4_19 
REMARK       I    between atoms: N4_19  and  C10_21 
REMARK    6  A    between atoms: C10_21  and  C11_23 
REMARK    7  A    between atoms: C11_23  and  N5_24 
REMARK    8  A    between atoms: C11_23  and  C12_28 
REMARK    9  A    between atoms: C14_33  and  C15_34 
ROOT
HETATM    1  N4  UNL     1      12.357 -12.896  64.616  1.00  0.00    -0.271 N 
ATOM      2  H4  UNL     1      13.347 -12.893  64.861  1.00  0.00     0.189 HD
HETATM    3  C10 UNL     1      11.876 -13.957  63.827  1.00  0.00     0.268 C 
HETATM    4  O5  UNL     1      10.680 -14.020  63.497  1.00  0.00    -0.269 OA
ENDROOT
BRANCH   1   5
HETATM    5  N3  UNL     1      11.592 -11.884  65.071  1.00  0.00    -0.316 N 
ATOM      6  H3  UNL     1      10.637 -12.054  65.389  1.00  0.00     0.181 HD
BRANCH   5   7
HETATM    7  C9  UNL     1      12.152 -10.560  65.098  1.00  0.00     0.201 A 
HETATM    8  C8  UNL     1      11.681  -9.696  63.992  1.00  0.00     0.202 A 
HETATM    9  N2  UNL     1      12.702  -9.195  63.168  1.00  0.00    -0.276 N 
HETATM   10  S1  UNL     1      10.345 -10.499  63.032  1.00  0.00    -0.066 SA
HETATM   11  C6  UNL     1      13.949  -9.588  63.369  1.00  0.00     0.084 A 
HETATM   12  C7  UNL     1      12.539  -8.300  62.130  1.00  0.00     0.334 A 
HETATM   13  C5  UNL     1      15.047  -9.177  62.640  1.00  0.00     0.112 A 
HETATM   14  S2  UNL     1      13.918 -10.733  64.735  1.00  0.00    -0.082 SA
HETATM   15  C4  UNL     1      14.853  -8.282  61.608  1.00  0.00     0.254 A 
HETATM   16  N1  UNL     1      13.567  -7.891  61.416  1.00  0.00    -0.257 N 
HETATM   17  O3  UNL     1      15.790  -7.856  60.893  1.00  0.00    -0.268 OA
HETATM   18  O4  UNL     1      11.399  -7.857  61.844  1.00  0.00    -0.246 OA
BRANCH  16  19
HETATM   19  C3  UNL     1      13.342  -6.952  60.320  1.00  0.00     0.248 C 
BRANCH  19  20
HETATM   20  C2  UNL     1      12.755  -7.713  59.192  1.00  0.00     0.277 C 
HETATM   21  O2  UNL     1      13.379  -8.687  58.654  1.00  0.00    -0.263 OA
BRANCH  20  22
HETATM   22  O1  UNL     1      11.501  -7.400  58.673  1.00  0.00    -0.325 OA
HETATM   23  C1  UNL     1      10.936  -6.128  58.897  1.00  0.00     0.213 C 
ENDBRANCH  20  22
ENDBRANCH  19  20
ENDBRANCH  16  19
ENDBRANCH   5   7
ENDBRANCH   1   5
BRANCH   3  24
HETATM   24  C11 UNL     1      12.796 -15.046  63.356  1.00  0.00     0.308 C 
BRANCH  24  25
HETATM   25  N5  UNL     1      12.033 -16.208  62.969  1.00  0.00    -0.064 N 
ATOM     26  H53 UNL     1      11.468 -16.567  63.738  1.00  0.00     0.275 HD
ATOM     27  H52 UNL     1      11.278 -15.972  62.325  1.00  0.00     0.275 HD
ATOM     28  H51 UNL     1      12.652 -16.923  62.585  1.00  0.00     0.275 HD
ENDBRANCH  24  25
BRANCH  24  29
HETATM   29  C12 UNL     1      13.629 -14.553  62.187  1.00  0.00     0.251 C 
HETATM   30  C13 UNL     1      14.135 -15.745  61.435  1.00  0.00     0.269 C 
HETATM   31  N6  UNL     1      13.712 -15.698  60.034  1.00  0.00    -0.057 N 
HETATM   32  C14 UNL     1      14.242 -14.458  59.488  1.00  0.00     0.311 C 
ATOM     33  H62 UNL     1      13.984 -16.524  59.502  1.00  0.00     0.278 HD
ATOM     34  H61 UNL     1      12.704 -15.796  59.913  1.00  0.00     0.278 HD
HETATM   35  C16 UNL     1      13.652 -13.270  60.208  1.00  0.00     0.277 C 
HETATM   36  N7  UNL     1      12.848 -13.658  61.349  1.00  0.00    -0.064 N 
ATOM     37  H72 UNL     1      11.952 -14.063  61.075  1.00  0.00     0.277 HD
ATOM     38  H71 UNL     1      12.489 -12.855  61.864  1.00  0.00     0.277 HD
BRANCH  32  39
HETATM   39  C15 UNL     1      14.032 -14.379  58.022  1.00  0.00     0.206 C 
HETATM   40  O6  UNL     1      14.941 -14.206  57.201  1.00  0.00    -0.646 OA
HETATM   41  O7  UNL     1      12.733 -14.508  57.565  1.00  0.00    -0.646 OA
ENDBRANCH  32  39
ENDBRANCH  24  29
ENDBRANCH   3  24
TORSDOF 9
ENDMDL
MODEL 2
REMARK VINA RESULT: -6.598747936      5.750      9.471
REMARK  9 active torsions:
REMARK  status: ('A' for Active; 'I' for Inactive)
REMARK    1  A    between atoms: O1_2  and  C2_3 
REMARK    2  A    between atoms: C2_3  and  C3_5 
REMARK    3  A    between atoms: C3_5  and  N1_6 
REMARK    4  A    between atoms: C9_16  and  N3_17 
REMARK    5  A    between atoms: N3_17  and  N4_19 
REMARK       I    between atoms: N4_19  and  C10_21 
REMARK    6  A    between atoms: C10_21  and  C11_23 
REMARK    7  A    between atoms: C11_23  and  N5_24 
REMARK    8  A    between atoms: C11_23  and  C12_28 
REMARK    9  A    between atoms: C14_33  and  C15_34 
ROOT
HETATM    1  N4  UNL     1      12.050  -7.896  67.073  1.00  0.00    -0.271 N 
ATOM      2  H4  UNL     1      11.418  -7.470  66.396  1.00  0.00     0.189 HD
HETATM    3  C10 UNL     1      12.501  -7.103  68.144  1.00  0.00     0.268 C 
HETATM    4  O5  UNL     1      13.270  -7.563  69.004  1.00  0.00    -0.269 OA
ENDROOT
BRANCH   1   5
HETATM    5  N3  UNL     1      12.399  -9.185  66.886  1.00  0.00    -0.316 N 
ATOM      6  H3  UNL     1      13.033  -9.653  67.534  1.00  0.00     0.181 HD
BRANCH   5   7
HETATM    7  C9  UNL     1      11.858  -9.884  65.752  1.00  0.00     0.201 A 
HETATM    8  C8  UNL     1      12.861 -10.173  64.702  1.00  0.00     0.202 A 
HETATM    9  N2  UNL     1      12.557  -9.632  63.442  1.00  0.00    -0.276 N 
HETATM   10  S1  UNL     1      14.554  -9.750  65.252  1.00  0.00    -0.066 SA
HETATM   11  C6  UNL     1      11.494  -8.855  63.308  1.00  0.00     0.084 A 
HETATM   12  C7  UNL     1      13.277  -9.831  62.281  1.00  0.00     0.334 A 
HETATM   13  C5  UNL     1      11.078  -8.260  62.135  1.00  0.00     0.112 A 
HETATM   14  S2  UNL     1      10.736  -8.734  64.917  1.00  0.00    -0.082 SA
HETATM   15  C4  UNL     1      11.819  -8.477  60.990  1.00  0.00     0.254 A 
HETATM   16  N1  UNL     1      12.906  -9.275  61.147  1.00  0.00    -0.257 N 
HETATM   17  O3  UNL     1      11.517  -7.976  59.882  1.00  0.00    -0.268 OA
HETATM   18  O4  UNL     1      14.306 -10.550  62.285  1.00  0.00    -0.246 OA
BRANCH  16  19
HETATM   19  C3  UNL     1      13.706  -9.506  59.947  1.00  0.00     0.248 C 
BRANCH  19  20
HETATM   20  C2  UNL     1      14.596  -8.335  59.771  1.00  0.00     0.277 C 
HETATM   21  O2  UNL     1      14.449  -7.532  58.790  1.00  0.00    -0.263 OA
BRANCH  20  22
HETATM   22  O1  UNL     1      15.627  -8.058  60.666  1.00  0.00    -0.325 OA
HETATM   23  C1  UNL     1      15.471  -7.053  61.641  1.00  0.00     0.213 C 
ENDBRANCH  20  22
ENDBRANCH  19  20
ENDBRANCH  16  19
ENDBRANCH   5   7
ENDBRANCH   1   5
BRANCH   3  24
HETATM   24  C11 UNL     1      12.067  -5.672  68.279  1.00  0.00     0.308 C 
BRANCH  24  25
HETATM   25  N5  UNL     1      10.705  -5.608  68.752  1.00  0.00    -0.064 N 
ATOM     26  H53 UNL     1      10.659  -5.495  69.765  1.00  0.00     0.275 HD
ATOM     27  H52 UNL     1      10.248  -4.737  68.482  1.00  0.00     0.275 HD
ATOM     28  H51 UNL     1      10.184  -6.426  68.435  1.00  0.00     0.275 HD
ENDBRANCH  24  25
BRANCH  24  29
HETATM   29  C12 UNL     1      12.989  -4.938  69.235  1.00  0.00     0.251 C 
HETATM   30  C13 UNL     1      14.106  -4.335  68.441  1.00  0.00     0.269 C 
HETATM   31  N6  UNL     1      14.166  -2.886  68.639  1.00  0.00    -0.057 N 
HETATM   32  C14 UNL     1      14.352  -2.675  70.067  1.00  0.00     0.311 C 
ATOM     33  H62 UNL     1      14.875  -2.428  68.067  1.00  0.00     0.278 HD
ATOM     34  H61 UNL     1      13.359  -2.392  68.258  1.00  0.00     0.278 HD
HETATM   35  C16 UNL     1      13.173  -3.216  70.837  1.00  0.00     0.277 C 
HETATM   36  N7  UNL     1      12.247  -3.943  69.992  1.00  0.00    -0.064 N 
ATOM     37  H72 UNL     1      11.698  -3.326  69.394  1.00  0.00     0.277 HD
ATOM     38  H71 UNL     1      11.475  -4.351  70.520  1.00  0.00     0.277 HD
BRANCH  32  39
HETATM   39  C15 UNL     1      14.607  -1.247  70.374  1.00  0.00     0.206 C 
HETATM   40  O6  UNL     1      15.710  -0.797  70.708  1.00  0.00    -0.646 OA
HETATM   41  O7  UNL     1      13.533  -0.381  70.276  1.00  0.00    -0.646 OA
ENDBRANCH  32  39
ENDBRANCH  24  29
ENDBRANCH   3  24
TORSDOF 9
ENDMDL
MODEL 3
REMARK VINA RESULT: -6.473546847      4.328      7.771
REMARK  9 active torsions:
REMARK  status: ('A' for Active; 'I' for Inactive)
REMARK    1  A    between atoms: O1_2  and  C2_3 
REMARK    2  A    between atoms: C2_3  and  C3_5 
REMARK    3  A    between atoms: C3_5  and  N1_6 
REMARK    4  A    between atoms: C9_16  and  N3_17 
REMARK    5  A    between atoms: N3_17  and  N4_19 
REMARK       I    between atoms: N4_19  and  C10_21 
REMARK    6  A    between atoms: C10_21  and  C11_23 
REMARK    7  A    between atoms: C11_23  and  N5_24 
REMARK    8  A    between atoms: C11_23  and  C12_28 
REMARK    9  A    between atoms: C14_33  and  C15_34 
ROOT
HETATM    1  N4  UNL     1      11.625  -9.682  67.455  1.00  0.00    -0.271 N 
ATOM      2  H4  UNL     1      12.411 -10.240  67.789  1.00  0.00     0.189 HD
HETATM    3  C10 UNL     1      10.976  -8.840  68.376  1.00  0.00     0.268 C 
HETATM    4  O5  UNL     1      10.014  -8.134  68.031  1.00  0.00    -0.269 OA
ENDROOT
BRANCH   1   5
HETATM    5  N3  UNL     1      11.274  -9.800  66.158  1.00  0.00    -0.316 N 
ATOM      6  H3  UNL     1      10.833 -10.652  65.813  1.00  0.00     0.181 HD
BRANCH   5   7
HETATM    7  C9  UNL     1      11.537  -8.697  65.274  1.00  0.00     0.201 A 
HETATM    8  C8  UNL     1      11.281  -9.007  63.849  1.00  0.00     0.202 A 
HETATM    9  N2  UNL     1      12.395  -8.845  63.008  1.00  0.00    -0.276 N 
HETATM   10  S1  UNL     1      10.489 -10.644  63.648  1.00  0.00    -0.066 SA
HETATM   11  C6  UNL     1      13.567  -8.534  63.537  1.00  0.00     0.084 A 
HETATM   12  C7  UNL     1      12.398  -8.981  61.635  1.00  0.00     0.334 A 
HETATM   13  C5  UNL     1      14.739  -8.344  62.834  1.00  0.00     0.112 A 
HETATM   14  S2  UNL     1      13.327  -8.422  65.299  1.00  0.00    -0.082 SA
HETATM   15  C4  UNL     1      14.711  -8.487  61.461  1.00  0.00     0.254 A 
HETATM   16  N1  UNL     1      13.500  -8.807  60.937  1.00  0.00    -0.257 N 
HETATM   17  O3  UNL     1      15.727  -8.335  60.742  1.00  0.00    -0.268 OA
HETATM   18  O4  UNL     1      11.343  -9.274  61.021  1.00  0.00    -0.246 OA
BRANCH  16  19
HETATM   19  C3  UNL     1      13.456  -8.972  59.486  1.00  0.00     0.248 C 
BRANCH  19  20
HETATM   20  C2  UNL     1      13.068  -7.668  58.899  1.00  0.00     0.277 C 
HETATM   21  O2  UNL     1      13.924  -6.736  58.730  1.00  0.00    -0.263 OA
BRANCH  20  22
HETATM   22  O1  UNL     1      11.759  -7.404  58.505  1.00  0.00    -0.325 OA
HETATM   23  C1  UNL     1      11.052  -6.322  59.066  1.00  0.00     0.213 C 
ENDBRANCH  20  22
ENDBRANCH  19  20
ENDBRANCH  16  19
ENDBRANCH   5   7
ENDBRANCH   1   5
BRANCH   3  24
HETATM   24  C11 UNL     1      11.427  -8.769  69.806  1.00  0.00     0.308 C 
BRANCH  24  25
HETATM   25  N5  UNL     1      12.350  -9.842  70.089  1.00  0.00    -0.064 N 
ATOM     26  H53 UNL     1      13.024  -9.974  69.336  1.00  0.00     0.275 HD
ATOM     27  H52 UNL     1      13.002  -9.597  70.834  1.00  0.00     0.275 HD
ATOM     28  H51 UNL     1      11.838 -10.700  70.298  1.00  0.00     0.275 HD
ENDBRANCH  24  25
BRANCH  24  29
HETATM   29  C12 UNL     1      12.083  -7.428  70.078  1.00  0.00     0.251 C 
HETATM   30  C13 UNL     1      13.283  -7.303  69.191  1.00  0.00     0.269 C 
HETATM   31  N6  UNL     1      13.189  -6.110  68.348  1.00  0.00    -0.057 N 
HETATM   32  C14 UNL     1      13.075  -4.977  69.254  1.00  0.00     0.311 C 
ATOM     33  H62 UNL     1      13.957  -6.022  67.684  1.00  0.00     0.278 HD
ATOM     34  H61 UNL     1      12.434  -6.158  67.663  1.00  0.00     0.278 HD
HETATM   35  C16 UNL     1      11.815  -5.085  70.077  1.00  0.00     0.277 C 
HETATM   36  N7  UNL     1      11.132  -6.348  69.880  1.00  0.00    -0.064 N 
ATOM     37  H72 UNL     1      10.664  -6.400  68.976  1.00  0.00     0.277 HD
ATOM     38  H71 UNL     1      10.306  -6.441  70.473  1.00  0.00     0.277 HD
BRANCH  32  39
HETATM   39  C15 UNL     1      13.152  -3.689  68.523  1.00  0.00     0.206 C 
HETATM   40  O6  UNL     1      13.886  -2.750  68.852  1.00  0.00    -0.646 OA
HETATM   41  O7  UNL     1      12.345  -3.550  67.408  1.00  0.00    -0.646 OA
ENDBRANCH  32  39
ENDBRANCH  24  29
ENDBRANCH   3  24
TORSDOF 9
ENDMDL
MODEL 4
REMARK VINA RESULT: -6.419719646      2.204      2.738
REMARK  9 active torsions:
REMARK  status: ('A' for Active; 'I' for Inactive)
REMARK    1  A    between atoms: O1_2  and  C2_3 
REMARK    2  A    between atoms: C2_3  and  C3_5 
REMARK    3  A    between atoms: C3_5  and  N1_6 
REMARK    4  A    between atoms: C9_16  and  N3_17 
REMARK    5  A    between atoms: N3_17  and  N4_19 
REMARK       I    between atoms: N4_19  and  C10_21 
REMARK    6  A    between atoms: C10_21  and  C11_23 
REMARK    7  A    between atoms: C11_23  and  N5_24 
REMARK    8  A    between atoms: C11_23  and  C12_28 
REMARK    9  A    between atoms: C14_33  and  C15_34 
ROOT
HETATM    1  N4  UNL     1      11.161 -14.437  61.940  1.00  0.00    -0.271 N 
ATOM      2  H4  UNL     1      10.401 -14.233  61.291  1.00  0.00     0.189 HD
HETATM    3  C10 UNL     1      11.651 -15.755  61.987  1.00  0.00     0.268 C 
HETATM    4  O5  UNL     1      12.577 -16.068  62.755  1.00  0.00    -0.269 OA
ENDROOT
BRANCH   1   5
HETATM    5  N3  UNL     1      11.632 -13.426  62.698  1.00  0.00    -0.316 N 
ATOM      6  H3  UNL     1      12.192 -13.615  63.530  1.00  0.00     0.181 HD
BRANCH   5   7
HETATM    7  C9  UNL     1      11.326 -12.076  62.308  1.00  0.00     0.201 A 
HETATM    8  C8  UNL     1      12.222 -11.548  61.254  1.00  0.00     0.202 A 
HETATM    9  N2  UNL     1      12.923 -10.385  61.614  1.00  0.00    -0.276 N 
HETATM   10  S1  UNL     1      13.326 -12.850  60.594  1.00  0.00    -0.066 SA
HETATM   11  C6  UNL     1      12.814  -9.918  62.847  1.00  0.00     0.084 A 
HETATM   12  C7  UNL     1      13.747  -9.649  60.788  1.00  0.00     0.334 A 
HETATM   13  C5  UNL     1      13.442  -8.790  63.336  1.00  0.00     0.112 A 
HETATM   14  S2  UNL     1      11.723 -11.021  63.724  1.00  0.00    -0.082 SA
HETATM   15  C4  UNL     1      14.260  -8.074  62.486  1.00  0.00     0.254 A 
HETATM   16  N1  UNL     1      14.360  -8.569  61.225  1.00  0.00    -0.257 N 
HETATM   17  O3  UNL     1      14.870  -7.039  62.843  1.00  0.00    -0.268 OA
HETATM   18  O4  UNL     1      13.928  -9.996  59.595  1.00  0.00    -0.246 OA
BRANCH  16  19
HETATM   19  C3  UNL     1      15.231  -7.829  60.316  1.00  0.00     0.248 C 
BRANCH  19  20
HETATM   20  C2  UNL     1      14.376  -6.915  59.522  1.00  0.00     0.277 C 
HETATM   21  O2  UNL     1      14.620  -6.680  58.292  1.00  0.00    -0.263 OA
BRANCH  20  22
HETATM   22  O1  UNL     1      13.272  -6.278  60.081  1.00  0.00    -0.325 OA
HETATM   23  C1  UNL     1      11.989  -6.455  59.523  1.00  0.00     0.213 C 
ENDBRANCH  20  22
ENDBRANCH  19  20
ENDBRANCH  16  19
ENDBRANCH   5   7
ENDBRANCH   1   5
BRANCH   3  24
HETATM   24  C11 UNL     1      11.069 -16.825  61.111  1.00  0.00     0.308 C 
BRANCH  24  25
HETATM   25  N5  UNL     1       9.674 -16.555  60.857  1.00  0.00    -0.064 N 
ATOM     26  H53 UNL     1       9.126 -16.536  61.717  1.00  0.00     0.275 HD
ATOM     27  H52 UNL     1       9.521 -15.591  60.559  1.00  0.00     0.275 HD
ATOM     28  H51 UNL     1       9.303 -17.226  60.183  1.00  0.00     0.275 HD
ENDBRANCH  24  25
BRANCH  24  29
HETATM   29  C12 UNL     1      11.835 -16.900  59.803  1.00  0.00     0.251 C 
HETATM   30  C13 UNL     1      11.094 -16.100  58.778  1.00  0.00     0.269 C 
HETATM   31  N6  UNL     1      11.946 -15.050  58.217  1.00  0.00    -0.057 N 
HETATM   32  C14 UNL     1      13.097 -15.725  57.637  1.00  0.00     0.311 C 
ATOM     33  H62 UNL     1      11.459 -14.442  57.559  1.00  0.00     0.278 HD
ATOM     34  H61 UNL     1      12.198 -14.329  58.893  1.00  0.00     0.278 HD
HETATM   35  C16 UNL     1      13.874 -16.455  58.704  1.00  0.00     0.277 C 
HETATM   36  N7  UNL     1      13.200 -16.438  59.987  1.00  0.00    -0.064 N 
ATOM     37  H72 UNL     1      13.246 -15.525  60.439  1.00  0.00     0.277 HD
ATOM     38  H71 UNL     1      13.701 -16.973  60.698  1.00  0.00     0.277 HD
BRANCH  32  39
HETATM   39  C15 UNL     1      13.951 -14.781  56.876  1.00  0.00     0.206 C 
HETATM   40  O6  UNL     1      13.621 -14.257  55.806  1.00  0.00    -0.646 OA
HETATM   41  O7  UNL     1      15.191 -14.483  57.413  1.00  0.00    -0.646 OA
ENDBRANCH  32  39
ENDBRANCH  24  29
ENDBRANCH   3  24
TORSDOF 9
ENDMDL
MODEL 5
REMARK VINA RESULT: -6.238081000      2.467      7.230
REMARK  9 active torsions:
REMARK  status: ('A' for Active; 'I' for Inactive)
REMARK    1  A    between atoms: O1_2  and  C2_3 
REMARK    2  A    between atoms: C2_3  and  C3_5 
REMARK    3  A    between atoms: C3_5  and  N1_6 
REMARK    4  A    between atoms: C9_16  and  N3_17 
REMARK    5  A    between atoms: N3_17  and  N4_19 
REMARK       I    between atoms: N4_19  and  C10_21 
REMARK    6  A    between atoms: C10_21  and  C11_23 
REMARK    7  A    between atoms: C11_23  and  N5_24 
REMARK    8  A    between atoms: C11_23  and  C12_28 
REMARK    9  A    between atoms: C14_33  and  C15_34 
ROOT
HETATM    1  N4  UNL     1      11.623 -13.310  62.898  1.00  0.00    -0.271 N 
ATOM      2  H4  UNL     1      10.685 -13.134  62.540  1.00  0.00     0.189 HD
HETATM    3  C10 UNL     1      12.392 -12.204  63.303  1.00  0.00     0.268 C 
HETATM    4  O5  UNL     1      13.542 -12.351  63.751  1.00  0.00    -0.269 OA
ENDROOT
BRANCH   1   5
HETATM    5  N3  UNL     1      12.048 -14.588  62.954  1.00  0.00    -0.316 N 
ATOM      6  H3  UNL     1      12.551 -14.936  63.771  1.00  0.00     0.181 HD
BRANCH   5   7
HETATM    7  C9  UNL     1      11.775 -15.451  61.836  1.00  0.00     0.201 A 
HETATM    8  C8  UNL     1      12.990 -16.059  61.248  1.00  0.00     0.202 A 
HETATM    9  N2  UNL     1      13.188 -15.768  59.888  1.00  0.00    -0.276 N 
HETATM   10  S1  UNL     1      14.475 -15.709  62.259  1.00  0.00    -0.066 SA
HETATM   11  C6  UNL     1      12.367 -14.929  59.278  1.00  0.00     0.084 A 
HETATM   12  C7  UNL     1      14.188 -16.282  59.088  1.00  0.00     0.334 A 
HETATM   13  C5  UNL     1      12.442 -14.554  57.952  1.00  0.00     0.112 A 
HETATM   14  S2  UNL     1      11.179 -14.392  60.493  1.00  0.00    -0.082 SA
HETATM   15  C4  UNL     1      13.453 -15.085  57.176  1.00  0.00     0.254 A 
HETATM   16  N1  UNL     1      14.287 -15.943  57.820  1.00  0.00    -0.257 N 
HETATM   17  O3  UNL     1      13.599 -14.801  55.964  1.00  0.00    -0.268 OA
HETATM   18  O4  UNL     1      15.029 -17.088  59.557  1.00  0.00    -0.246 OA
BRANCH  16  19
HETATM   19  C3  UNL     1      15.369 -16.505  57.016  1.00  0.00     0.248 C 
BRANCH  19  20
HETATM   20  C2  UNL     1      16.445 -15.489  56.941  1.00  0.00     0.277 C 
HETATM   21  O2  UNL     1      17.069 -15.105  57.986  1.00  0.00    -0.263 OA
BRANCH  20  22
HETATM   22  O1  UNL     1      16.822 -14.912  55.731  1.00  0.00    -0.325 OA
HETATM   23  C1  UNL     1      18.174 -14.917  55.331  1.00  0.00     0.213 C 
ENDBRANCH  20  22
ENDBRANCH  19  20
ENDBRANCH  16  19
ENDBRANCH   5   7
ENDBRANCH   1   5
BRANCH   3  24
HETATM   24  C11 UNL     1      11.846 -10.809  63.205  1.00  0.00     0.308 C 
BRANCH  24  25
HETATM   25  N5  UNL     1      12.365  -9.995  64.279  1.00  0.00    -0.064 N 
ATOM     26  H53 UNL     1      12.791 -10.560  65.014  1.00  0.00     0.275 HD
ATOM     27  H52 UNL     1      13.193  -9.471  63.994  1.00  0.00     0.275 HD
ATOM     28  H51 UNL     1      11.633  -9.385  64.642  1.00  0.00     0.275 HD
ENDBRANCH  24  25
BRANCH  24  29
HETATM   29  C12 UNL     1      12.213 -10.201  61.864  1.00  0.00     0.251 C 
HETATM   30  C13 UNL     1      11.909  -8.735  61.913  1.00  0.00     0.269 C 
HETATM   31  N6  UNL     1      13.105  -7.943  61.624  1.00  0.00    -0.057 N 
HETATM   32  C14 UNL     1      13.556  -8.350  60.302  1.00  0.00     0.311 C 
ATOM     33  H62 UNL     1      12.955  -6.938  61.709  1.00  0.00     0.278 HD
ATOM     34  H61 UNL     1      13.827  -8.023  62.341  1.00  0.00     0.278 HD
HETATM   35  C16 UNL     1      13.936  -9.810  60.301  1.00  0.00     0.277 C 
HETATM   36  N7  UNL     1      13.607 -10.468  61.549  1.00  0.00    -0.064 N 
ATOM     37  H72 UNL     1      14.236 -10.203  62.307  1.00  0.00     0.277 HD
ATOM     38  H71 UNL     1      13.818 -11.466  61.532  1.00  0.00     0.277 HD
BRANCH  32  39
HETATM   39  C15 UNL     1      14.662  -7.488  59.818  1.00  0.00     0.206 C 
HETATM   40  O6  UNL     1      14.531  -6.615  58.953  1.00  0.00    -0.646 OA
HETATM   41  O7  UNL     1      15.909  -7.691  60.382  1.00  0.00    -0.646 OA
ENDBRANCH  32  39
ENDBRANCH  24  29
ENDBRANCH   3  24
TORSDOF 9
ENDMDL
