MODEL 1
REMARK VINA RESULT: -8.011251322      0.000      0.000
REMARK  10 active torsions:
REMARK  status: ('A' for Active; 'I' for Inactive)
REMARK    1  A    between atoms: N1_1  and  C1_4 
REMARK    2  A    between atoms: N3_9  and  C3_10 
REMARK    3  A    between atoms: C4_11  and  O2_12 
REMARK    4  A    between atoms: C5_14  and  N4_15 
REMARK    5  A    between atoms: C7_17  and  C8_18 
REMARK       I    between atoms: C8_18  and  N5_20 
REMARK       I    between atoms: N5_20  and  C9_22 
REMARK    6  A    between atoms: N7_24  and  C10_26 
REMARK    7  A    between atoms: C10_26  and  C11_27 
REMARK    8  A    between atoms: C11_27  and  N8_28 
REMARK    9  A    between atoms: C14_40  and  O5_41 
REMARK   10  A    between atoms: C14_40  and  C15_43 
ROOT
HETATM    1  N4  UNL     1      19.795  42.423  19.241  1.00  0.00    -0.255 N 
HETATM    2  C6  UNL     1      20.487  42.278  18.106  1.00  0.00     0.151 A 
HETATM    3  C7  UNL     1      19.900  43.091  17.170  1.00  0.00     0.134 A 
HETATM    4  N11 UNL     1      18.870  43.705  17.766  1.00  0.00    -0.280 N 
ATOM      5  H11 UNL     1      18.235  44.375  17.334  1.00  0.00     0.189 HD
HETATM    6  N12 UNL     1      18.828  43.284  19.017  1.00  0.00    -0.238 N 
ATOM      7  H12 UNL     1      18.144  43.584  19.711  1.00  0.00     0.208 HD
ENDROOT
BRANCH   1   8
HETATM    8  C5  UNL     1      20.057  41.760  20.477  1.00  0.00     0.280 C 
HETATM    9  C4  UNL     1      20.303  40.287  20.257  1.00  0.00     0.199 C 
HETATM   10  C3  UNL     1      19.200  39.651  21.035  1.00  0.00     0.220 C 
HETATM   11  C14 UNL     1      18.220  40.737  21.264  1.00  0.00     0.281 C 
HETATM   12  O4  UNL     1      19.037  41.886  21.382  1.00  0.00    -0.315 OA
BRANCH   9  13
HETATM   13  O2  UNL     1      21.566  39.997  20.817  1.00  0.00    -0.389 OA
ATOM     14  H2  UNL     1      21.723  40.505  21.603  1.00  0.00     0.210 HD
ENDBRANCH   9  13
BRANCH  10  15
HETATM   15  N3  UNL     1      18.671  38.448  20.439  1.00  0.00    -0.214 N 
HETATM   16  C2  UNL     1      19.354  37.301  20.399  1.00  0.00     0.356 A 
HETATM   17  N2  UNL     1      18.599  36.374  19.785  1.00  0.00    -0.139 N 
HETATM   18  O1  UNL     1      20.507  37.025  20.830  1.00  0.00    -0.244 OA
HETATM   19  C1  UNL     1      17.452  36.979  19.457  1.00  0.00     0.694 A 
ATOM     20  H2  UNL     1      18.851  35.401  19.605  1.00  0.00     0.189 HD
HETATM   21  N13 UNL     1      17.503  38.250  19.859  1.00  0.00    -0.125 N 
ATOM     22  H13 UNL     1      16.768  38.947  19.740  1.00  0.00     0.206 HD
BRANCH  19  23
HETATM   23  N1  UNL     1      16.428  36.442  18.840  1.00  0.00    -0.233 N 
ATOM     24  H12 UNL     1      16.497  35.664  18.184  1.00  0.00     0.174 HD
ATOM     25  H11 UNL     1      15.449  36.716  18.926  1.00  0.00     0.174 HD
ENDBRANCH  19  23
ENDBRANCH  10  15
BRANCH  11  26
HETATM   26  O5  UNL     1      17.361  40.991  20.219  1.00  0.00    -0.355 OA
ATOM     27  H5  UNL     1      16.792  41.744  20.330  1.00  0.00     0.213 HD
ENDBRANCH  11  26
BRANCH  11  28
HETATM   28  C15 UNL     1      17.540  40.569  22.556  1.00  0.00     0.241 C 
HETATM   29  O6  UNL     1      16.392  41.021  22.782  1.00  0.00    -0.644 OA
HETATM   30  O7  UNL     1      18.187  39.883  23.571  1.00  0.00    -0.644 OA
ENDBRANCH  11  28
ENDBRANCH   1   8
BRANCH   3  31
HETATM   31  C8  UNL     1      20.363  43.217  15.797  1.00  0.00     0.277 C 
HETATM   32  O3  UNL     1      21.520  42.872  15.442  1.00  0.00    -0.266 OA
HETATM   33  N5  UNL     1      19.471  43.749  14.828  1.00  0.00    -0.296 N 
HETATM   34  C9  UNL     1      19.846  43.904  13.466  1.00  0.00     0.191 C 
ATOM     35  H5  UNL     1      18.534  44.028  15.119  1.00  0.00     0.171 HD
HETATM   36  N6  UNL     1      21.136  43.530  13.029  1.00  0.00    -0.063 NA
HETATM   37  N7  UNL     1      19.013  44.388  12.618  1.00  0.00    -0.363 N 
ATOM     38  H7  UNL     1      19.285  44.498  11.642  1.00  0.00     0.162 HD
BRANCH  37  39
HETATM   39  C10 UNL     1      17.684  44.779  13.049  1.00  0.00     0.144 C 
BRANCH  39  40
HETATM   40  C11 UNL     1      16.647  43.762  12.620  1.00  0.00     0.169 C 
BRANCH  40  41
HETATM   41  N8  UNL     1      16.445  42.847  13.703  1.00  0.00    -0.285 N 
HETATM   42  C12 UNL     1      15.806  43.079  14.847  1.00  0.00     0.201 A 
HETATM   43  N9  UNL     1      15.844  41.960  15.587  1.00  0.00    -0.346 N 
HETATM   44  C13 UNL     1      16.506  41.041  14.892  1.00  0.00     0.198 A 
ATOM     45  H9  UNL     1      15.438  41.837  16.515  1.00  0.00     0.167 HD
HETATM   46  N10 UNL     1      16.872  41.601  13.731  1.00  0.00    -0.293 N 
ATOM     47  H10 UNL     1      17.397  41.137  12.989  1.00  0.00     0.188 HD
ENDBRANCH  40  41
ENDBRANCH  39  40
ENDBRANCH  37  39
ENDBRANCH   3  31
TORSDOF 10
ENDMDL
MODEL 2
REMARK VINA RESULT: -7.856536431      1.878      2.445
REMARK  10 active torsions:
REMARK  status: ('A' for Active; 'I' for Inactive)
REMARK    1  A    between atoms: N1_1  and  C1_4 
REMARK    2  A    between atoms: N3_9  and  C3_10 
REMARK    3  A    between atoms: C4_11  and  O2_12 
REMARK    4  A    between atoms: C5_14  and  N4_15 
REMARK    5  A    between atoms: C7_17  and  C8_18 
REMARK       I    between atoms: C8_18  and  N5_20 
REMARK       I    between atoms: N5_20  and  C9_22 
REMARK    6  A    between atoms: N7_24  and  C10_26 
REMARK    7  A    between atoms: C10_26  and  C11_27 
REMARK    8  A    between atoms: C11_27  and  N8_28 
REMARK    9  A    between atoms: C14_40  and  O5_41 
REMARK   10  A    between atoms: C14_40  and  C15_43 
ROOT
HETATM    1  N4  UNL     1      19.443  42.431  19.722  1.00  0.00    -0.255 N 
HETATM    2  C6  UNL     1      19.475  42.122  18.422  1.00  0.00     0.151 A 
HETATM    3  C7  UNL     1      18.895  43.164  17.745  1.00  0.00     0.134 A 
HETATM    4  N11 UNL     1      18.529  44.075  18.656  1.00  0.00    -0.280 N 
ATOM      5  H11 UNL     1      18.070  44.966  18.468  1.00  0.00     0.189 HD
HETATM    6  N12 UNL     1      18.872  43.607  19.843  1.00  0.00    -0.238 N 
ATOM      7  H12 UNL     1      18.715  44.091  20.728  1.00  0.00     0.208 HD
ENDROOT
BRANCH   1   8
HETATM    8  C5  UNL     1      19.940  41.627  20.791  1.00  0.00     0.280 C 
HETATM    9  C4  UNL     1      20.204  40.215  20.325  1.00  0.00     0.199 C 
HETATM   10  C3  UNL     1      19.277  39.411  21.175  1.00  0.00     0.220 C 
HETATM   11  C14 UNL     1      18.307  40.392  21.714  1.00  0.00     0.281 C 
HETATM   12  O4  UNL     1      19.086  41.565  21.860  1.00  0.00    -0.315 OA
BRANCH   9  13
HETATM   13  O2  UNL     1      21.555  39.934  20.623  1.00  0.00    -0.389 OA
ATOM     14  H2  UNL     1      21.782  40.210  21.503  1.00  0.00     0.210 HD
ENDBRANCH   9  13
BRANCH  10  15
HETATM   15  N3  UNL     1      18.703  38.268  20.508  1.00  0.00    -0.214 N 
HETATM   16  C2  UNL     1      19.376  37.130  20.318  1.00  0.00     0.356 A 
HETATM   17  N2  UNL     1      18.577  36.262  19.674  1.00  0.00    -0.139 N 
HETATM   18  O1  UNL     1      20.553  36.817  20.643  1.00  0.00    -0.244 OA
HETATM   19  C1  UNL     1      17.413  36.894  19.479  1.00  0.00     0.694 A 
ATOM     20  H2  UNL     1      18.811  35.310  19.389  1.00  0.00     0.189 HD
HETATM   21  N13 UNL     1      17.498  38.123  19.992  1.00  0.00    -0.125 N 
ATOM     22  H13 UNL     1      16.760  38.827  19.987  1.00  0.00     0.206 HD
BRANCH  19  23
HETATM   23  N1  UNL     1      16.348  36.415  18.886  1.00  0.00    -0.233 N 
ATOM     24  H12 UNL     1      15.929  36.818  18.047  1.00  0.00     0.174 HD
ATOM     25  H11 UNL     1      15.804  35.600  19.167  1.00  0.00     0.174 HD
ENDBRANCH  19  23
ENDBRANCH  10  15
BRANCH  11  26
HETATM   26  O5  UNL     1      17.273  40.728  20.871  1.00  0.00    -0.355 OA
ATOM     27  H5  UNL     1      16.708  40.011  20.609  1.00  0.00     0.213 HD
ENDBRANCH  11  26
BRANCH  11  28
HETATM   28  C15 UNL     1      17.866  40.009  23.063  1.00  0.00     0.241 C 
HETATM   29  O6  UNL     1      18.263  40.596  24.098  1.00  0.00    -0.644 OA
HETATM   30  O7  UNL     1      16.975  38.957  23.205  1.00  0.00    -0.644 OA
ENDBRANCH  11  28
ENDBRANCH   1   8
BRANCH   3  31
HETATM   31  C8  UNL     1      18.737  43.209  16.300  1.00  0.00     0.277 C 
HETATM   32  O3  UNL     1      19.643  43.637  15.537  1.00  0.00    -0.266 OA
HETATM   33  N5  UNL     1      17.516  42.752  15.737  1.00  0.00    -0.296 N 
HETATM   34  C9  UNL     1      17.283  42.761  14.336  1.00  0.00     0.191 C 
ATOM     35  H5  UNL     1      16.784  42.405  16.359  1.00  0.00     0.171 HD
HETATM   36  N6  UNL     1      18.274  43.235  13.446  1.00  0.00    -0.063 NA
HETATM   37  N7  UNL     1      16.167  42.339  13.863  1.00  0.00    -0.363 N 
ATOM     38  H7  UNL     1      16.003  42.348  12.857  1.00  0.00     0.162 HD
BRANCH  37  39
HETATM   39  C10 UNL     1      15.138  41.850  14.762  1.00  0.00     0.144 C 
BRANCH  39  40
HETATM   40  C11 UNL     1      14.070  42.897  14.995  1.00  0.00     0.169 C 
BRANCH  40  41
HETATM   41  N8  UNL     1      12.804  42.232  15.080  1.00  0.00    -0.285 N 
HETATM   42  C12 UNL     1      12.392  41.188  14.366  1.00  0.00     0.201 A 
HETATM   43  N9  UNL     1      11.146  40.875  14.756  1.00  0.00    -0.346 N 
HETATM   44  C13 UNL     1      10.798  41.728  15.711  1.00  0.00     0.198 A 
ATOM     45  H9  UNL     1      10.571  40.118  14.385  1.00  0.00     0.167 HD
HETATM   46  N10 UNL     1      11.829  42.562  15.903  1.00  0.00    -0.293 N 
ATOM     47  H10 UNL     1      11.855  43.328  16.576  1.00  0.00     0.188 HD
ENDBRANCH  40  41
ENDBRANCH  39  40
ENDBRANCH  37  39
ENDBRANCH   3  31
TORSDOF 10
ENDMDL
MODEL 3
REMARK VINA RESULT: -7.738467083      1.555      2.013
REMARK  10 active torsions:
REMARK  status: ('A' for Active; 'I' for Inactive)
REMARK    1  A    between atoms: N1_1  and  C1_4 
REMARK    2  A    between atoms: N3_9  and  C3_10 
REMARK    3  A    between atoms: C4_11  and  O2_12 
REMARK    4  A    between atoms: C5_14  and  N4_15 
REMARK    5  A    between atoms: C7_17  and  C8_18 
REMARK       I    between atoms: C8_18  and  N5_20 
REMARK       I    between atoms: N5_20  and  C9_22 
REMARK    6  A    between atoms: N7_24  and  C10_26 
REMARK    7  A    between atoms: C10_26  and  C11_27 
REMARK    8  A    between atoms: C11_27  and  N8_28 
REMARK    9  A    between atoms: C14_40  and  O5_41 
REMARK   10  A    between atoms: C14_40  and  C15_43 
ROOT
HETATM    1  N4  UNL     1      19.548  42.397  19.957  1.00  0.00    -0.255 N 
HETATM    2  C6  UNL     1      19.693  42.162  18.648  1.00  0.00     0.151 A 
HETATM    3  C7  UNL     1      19.130  43.222  17.984  1.00  0.00     0.134 A 
HETATM    4  N11 UNL     1      18.661  44.068  18.910  1.00  0.00    -0.280 N 
ATOM      5  H11 UNL     1      18.187  44.953  18.734  1.00  0.00     0.189 HD
HETATM    6  N12 UNL     1      18.927  43.545  20.094  1.00  0.00    -0.238 N 
ATOM      7  H12 UNL     1      18.684  43.973  20.987  1.00  0.00     0.208 HD
ENDROOT
BRANCH   1   8
HETATM    8  C5  UNL     1      19.988  41.550  21.017  1.00  0.00     0.280 C 
HETATM    9  C4  UNL     1      20.251  40.150  20.516  1.00  0.00     0.199 C 
HETATM   10  C3  UNL     1      19.277  39.334  21.299  1.00  0.00     0.220 C 
HETATM   11  C14 UNL     1      18.301  40.312  21.831  1.00  0.00     0.281 C 
HETATM   12  O4  UNL     1      19.090  41.467  22.047  1.00  0.00    -0.315 OA
BRANCH   9  13
HETATM   13  O2  UNL     1      21.583  39.838  20.859  1.00  0.00    -0.389 OA
ATOM     14  H2  UNL     1      21.787  40.109  21.746  1.00  0.00     0.210 HD
ENDBRANCH   9  13
BRANCH  10  15
HETATM   15  N3  UNL     1      18.714  38.222  20.571  1.00  0.00    -0.214 N 
HETATM   16  C2  UNL     1      19.401  37.106  20.314  1.00  0.00     0.356 A 
HETATM   17  N2  UNL     1      18.609  36.265  19.625  1.00  0.00    -0.139 N 
HETATM   18  O1  UNL     1      20.584  36.791  20.615  1.00  0.00    -0.244 OA
HETATM   19  C1  UNL     1      17.437  36.892  19.473  1.00  0.00     0.694 A 
ATOM     20  H2  UNL     1      18.854  35.335  19.286  1.00  0.00     0.189 HD
HETATM   21  N13 UNL     1      17.509  38.091  20.054  1.00  0.00    -0.125 N 
ATOM     22  H13 UNL     1      16.761  38.784  20.092  1.00  0.00     0.206 HD
BRANCH  19  23
HETATM   23  N1  UNL     1      16.374  36.434  18.859  1.00  0.00    -0.233 N 
ATOM     24  H12 UNL     1      16.401  35.767  18.087  1.00  0.00     0.174 HD
ATOM     25  H11 UNL     1      15.402  36.668  19.059  1.00  0.00     0.174 HD
ENDBRANCH  19  23
ENDBRANCH  10  15
BRANCH  11  26
HETATM   26  O5  UNL     1      17.307  40.693  20.958  1.00  0.00    -0.355 OA
ATOM     27  H5  UNL     1      17.348  41.593  20.659  1.00  0.00     0.213 HD
ENDBRANCH  11  26
BRANCH  11  28
HETATM   28  C15 UNL     1      17.798  39.892  23.147  1.00  0.00     0.241 C 
HETATM   29  O6  UNL     1      17.002  38.934  23.294  1.00  0.00    -0.644 OA
HETATM   30  O7  UNL     1      18.217  40.577  24.276  1.00  0.00    -0.644 OA
ENDBRANCH  11  28
ENDBRANCH   1   8
BRANCH   3  31
HETATM   31  C8  UNL     1      19.085  43.343  16.535  1.00  0.00     0.277 C 
HETATM   32  O3  UNL     1      19.894  44.063  15.894  1.00  0.00    -0.266 OA
HETATM   33  N5  UNL     1      18.089  42.619  15.826  1.00  0.00    -0.296 N 
HETATM   34  C9  UNL     1      17.979  42.682  14.411  1.00  0.00     0.191 C 
ATOM     35  H5  UNL     1      17.435  42.037  16.349  1.00  0.00     0.171 HD
HETATM   36  N6  UNL     1      18.867  43.481  13.655  1.00  0.00    -0.063 NA
HETATM   37  N7  UNL     1      17.067  42.014  13.804  1.00  0.00    -0.363 N 
ATOM     38  H7  UNL     1      16.990  42.062  12.788  1.00  0.00     0.162 HD
BRANCH  37  39
HETATM   39  C10 UNL     1      16.145  41.190  14.563  1.00  0.00     0.144 C 
BRANCH  39  40
HETATM   40  C11 UNL     1      15.002  42.013  15.118  1.00  0.00     0.169 C 
BRANCH  40  41
HETATM   41  N8  UNL     1      14.078  42.267  14.054  1.00  0.00    -0.285 N 
HETATM   42  C12 UNL     1      13.459  43.413  13.779  1.00  0.00     0.201 A 
HETATM   43  N9  UNL     1      12.681  43.224  12.701  1.00  0.00    -0.346 N 
HETATM   44  C13 UNL     1      12.825  41.961  12.317  1.00  0.00     0.198 A 
ATOM     45  H9  UNL     1      12.085  43.924  12.258  1.00  0.00     0.167 HD
HETATM   46  N10 UNL     1      13.690  41.380  13.160  1.00  0.00    -0.293 N 
ATOM     47  H10 UNL     1      13.998  40.408  13.117  1.00  0.00     0.188 HD
ENDBRANCH  40  41
ENDBRANCH  39  40
ENDBRANCH  37  39
ENDBRANCH   3  31
TORSDOF 10
ENDMDL
MODEL 4
REMARK VINA RESULT: -7.581124031      5.635      9.835
REMARK  10 active torsions:
REMARK  status: ('A' for Active; 'I' for Inactive)
REMARK    1  A    between atoms: N1_1  and  C1_4 
REMARK    2  A    between atoms: N3_9  and  C3_10 
REMARK    3  A    between atoms: C4_11  and  O2_12 
REMARK    4  A    between atoms: C5_14  and  N4_15 
REMARK    5  A    between atoms: C7_17  and  C8_18 
REMARK       I    between atoms: C8_18  and  N5_20 
REMARK       I    between atoms: N5_20  and  C9_22 
REMARK    6  A    between atoms: N7_24  and  C10_26 
REMARK    7  A    between atoms: C10_26  and  C11_27 
REMARK    8  A    between atoms: C11_27  and  N8_28 
REMARK    9  A    between atoms: C14_40  and  O5_41 
REMARK   10  A    between atoms: C14_40  and  C15_43 
ROOT
HETATM    1  N4  UNL     1      21.019  41.619  22.849  1.00  0.00    -0.255 N 
HETATM    2  C6  UNL     1      21.671  41.316  23.977  1.00  0.00     0.151 A 
HETATM    3  C7  UNL     1      23.002  41.557  23.749  1.00  0.00     0.134 A 
HETATM    4  N11 UNL     1      23.117  42.000  22.491  1.00  0.00    -0.280 N 
ATOM      5  H11 UNL     1      23.982  42.268  22.022  1.00  0.00     0.189 HD
HETATM    6  N12 UNL     1      21.904  42.028  21.969  1.00  0.00    -0.238 N 
ATOM      7  H12 UNL     1      21.684  42.325  21.019  1.00  0.00     0.208 HD
ENDROOT
BRANCH   1   8
HETATM    8  C5  UNL     1      19.611  41.515  22.638  1.00  0.00     0.280 C 
HETATM    9  C4  UNL     1      19.119  40.124  22.956  1.00  0.00     0.199 C 
HETATM   10  C3  UNL     1      18.573  39.663  21.646  1.00  0.00     0.220 C 
HETATM   11  C14 UNL     1      19.148  40.590  20.645  1.00  0.00     0.281 C 
HETATM   12  O4  UNL     1      19.237  41.812  21.355  1.00  0.00    -0.315 OA
BRANCH   9  13
HETATM   13  O2  UNL     1      18.100  40.263  23.922  1.00  0.00    -0.389 OA
ATOM     14  H2  UNL     1      17.918  41.177  24.107  1.00  0.00     0.210 HD
ENDBRANCH   9  13
BRANCH  10  15
HETATM   15  N3  UNL     1      18.771  38.258  21.382  1.00  0.00    -0.214 N 
HETATM   16  C2  UNL     1      18.135  37.300  22.059  1.00  0.00     0.356 A 
HETATM   17  N2  UNL     1      18.529  36.105  21.584  1.00  0.00    -0.139 N 
HETATM   18  O1  UNL     1      17.294  37.386  22.995  1.00  0.00    -0.244 OA
HETATM   19  C1  UNL     1      19.411  36.359  20.611  1.00  0.00     0.694 A 
ATOM     20  H2  UNL     1      18.217  35.187  21.903  1.00  0.00     0.189 HD
HETATM   21  N13 UNL     1      19.556  37.681  20.493  1.00  0.00    -0.125 N 
ATOM     22  H13 UNL     1      20.166  38.160  19.831  1.00  0.00     0.206 HD
BRANCH  19  23
HETATM   23  N1  UNL     1      20.048  35.480  19.877  1.00  0.00    -0.233 N 
ATOM     24  H12 UNL     1      19.855  35.311  18.890  1.00  0.00     0.174 HD
ATOM     25  H11 UNL     1      20.802  34.863  20.177  1.00  0.00     0.174 HD
ENDBRANCH  19  23
ENDBRANCH  10  15
BRANCH  11  26
HETATM   26  O5  UNL     1      20.430  40.299  20.234  1.00  0.00    -0.355 OA
ATOM     27  H5  UNL     1      20.526  39.503  19.726  1.00  0.00     0.213 HD
ENDBRANCH  11  26
BRANCH  11  28
HETATM   28  C15 UNL     1      18.212  40.815  19.535  1.00  0.00     0.241 C 
HETATM   29  O6  UNL     1      17.870  39.905  18.742  1.00  0.00    -0.644 OA
HETATM   30  O7  UNL     1      17.681  42.081  19.350  1.00  0.00    -0.644 OA
ENDBRANCH  11  28
ENDBRANCH   1   8
BRANCH   3  31
HETATM   31  C8  UNL     1      24.048  41.349  24.739  1.00  0.00     0.277 C 
HETATM   32  O3  UNL     1      25.269  41.331  24.436  1.00  0.00    -0.266 OA
HETATM   33  N5  UNL     1      23.668  41.162  26.095  1.00  0.00    -0.296 N 
HETATM   34  C9  UNL     1      24.627  40.954  27.123  1.00  0.00     0.191 C 
ATOM     35  H5  UNL     1      22.677  41.177  26.338  1.00  0.00     0.171 HD
HETATM   36  N6  UNL     1      26.008  40.925  26.822  1.00  0.00    -0.063 NA
HETATM   37  N7  UNL     1      24.247  40.789  28.337  1.00  0.00    -0.363 N 
ATOM     38  H7  UNL     1      24.938  40.639  29.072  1.00  0.00     0.162 HD
BRANCH  37  39
HETATM   39  C10 UNL     1      22.834  40.815  28.665  1.00  0.00     0.144 C 
BRANCH  39  40
HETATM   40  C11 UNL     1      22.444  39.620  29.510  1.00  0.00     0.169 C 
BRANCH  40  41
HETATM   41  N8  UNL     1      21.130  39.853  30.032  1.00  0.00    -0.285 N 
HETATM   42  C12 UNL     1      20.072  39.051  29.941  1.00  0.00     0.201 A 
HETATM   43  N9  UNL     1      19.040  39.643  30.562  1.00  0.00    -0.346 N 
HETATM   44  C13 UNL     1      19.468  40.808  31.035  1.00  0.00     0.198 A 
ATOM     45  H9  UNL     1      18.096  39.266  30.654  1.00  0.00     0.167 HD
HETATM   46  N10 UNL     1      20.761  40.927  30.701  1.00  0.00    -0.293 N 
ATOM     47  H10 UNL     1      21.361  41.720  30.927  1.00  0.00     0.188 HD
ENDBRANCH  40  41
ENDBRANCH  39  40
ENDBRANCH  37  39
ENDBRANCH   3  31
TORSDOF 10
ENDMDL
MODEL 5
REMARK VINA RESULT: -7.569375701      6.651      9.410
REMARK  10 active torsions:
REMARK  status: ('A' for Active; 'I' for Inactive)
REMARK    1  A    between atoms: N1_1  and  C1_4 
REMARK    2  A    between atoms: N3_9  and  C3_10 
REMARK    3  A    between atoms: C4_11  and  O2_12 
REMARK    4  A    between atoms: C5_14  and  N4_15 
REMARK    5  A    between atoms: C7_17  and  C8_18 
REMARK       I    between atoms: C8_18  and  N5_20 
REMARK       I    between atoms: N5_20  and  C9_22 
REMARK    6  A    between atoms: N7_24  and  C10_26 
REMARK    7  A    between atoms: C10_26  and  C11_27 
REMARK    8  A    between atoms: C11_27  and  N8_28 
REMARK    9  A    between atoms: C14_40  and  O5_41 
REMARK   10  A    between atoms: C14_40  and  C15_43 
ROOT
HETATM    1  N4  UNL     1      21.548  41.239  25.919  1.00  0.00    -0.255 N 
HETATM    2  C6  UNL     1      20.813  41.365  24.809  1.00  0.00     0.151 A 
HETATM    3  C7  UNL     1      21.474  40.696  23.810  1.00  0.00     0.134 A 
HETATM    4  N11 UNL     1      22.589  40.183  24.345  1.00  0.00    -0.280 N 
ATOM      5  H11 UNL     1      23.292  39.629  23.858  1.00  0.00     0.189 HD
HETATM    6  N12 UNL     1      22.609  40.526  25.621  1.00  0.00    -0.238 N 
ATOM      7  H12 UNL     1      23.345  40.272  26.281  1.00  0.00     0.208 HD
ENDROOT
BRANCH   1   8
HETATM    8  C5  UNL     1      21.236  41.783  27.201  1.00  0.00     0.280 C 
HETATM    9  C4  UNL     1      22.491  42.009  28.010  1.00  0.00     0.199 C 
HETATM   10  C3  UNL     1      22.284  41.119  29.191  1.00  0.00     0.220 C 
HETATM   11  C14 UNL     1      21.207  40.188  28.782  1.00  0.00     0.281 C 
HETATM   12  O4  UNL     1      20.400  40.985  27.935  1.00  0.00    -0.315 OA
BRANCH   9  13
HETATM   13  O2  UNL     1      22.496  43.370  28.382  1.00  0.00    -0.389 OA
ATOM     14  H2  UNL     1      23.131  43.866  27.880  1.00  0.00     0.210 HD
ENDBRANCH   9  13
BRANCH  10  15
HETATM   15  N3  UNL     1      23.489  40.500  29.685  1.00  0.00    -0.214 N 
HETATM   16  C2  UNL     1      24.386  41.155  30.427  1.00  0.00     0.356 A 
HETATM   17  N2  UNL     1      25.390  40.314  30.730  1.00  0.00    -0.139 N 
HETATM   18  O1  UNL     1      24.391  42.351  30.830  1.00  0.00    -0.244 OA
HETATM   19  C1  UNL     1      25.084  39.143  30.160  1.00  0.00     0.694 A 
ATOM     20  H2  UNL     1      26.220  40.527  31.284  1.00  0.00     0.189 HD
HETATM   21  N13 UNL     1      23.918  39.264  29.521  1.00  0.00    -0.125 N 
ATOM     22  H13 UNL     1      23.443  38.529  28.997  1.00  0.00     0.206 HD
BRANCH  19  23
HETATM   23  N1  UNL     1      25.790  38.040  30.202  1.00  0.00    -0.233 N 
ATOM     24  H12 UNL     1      26.074  37.509  29.378  1.00  0.00     0.174 HD
ATOM     25  H11 UNL     1      26.145  37.570  31.035  1.00  0.00     0.174 HD
ENDBRANCH  19  23
ENDBRANCH  10  15
BRANCH  11  26
HETATM   26  O5  UNL     1      21.608  39.114  28.020  1.00  0.00    -0.355 OA
ATOM     27  H5  UNL     1      21.778  38.312  28.499  1.00  0.00     0.213 HD
ENDBRANCH  11  26
BRANCH  11  28
HETATM   28  C15 UNL     1      20.371  39.813  29.931  1.00  0.00     0.241 C 
HETATM   29  O6  UNL     1      20.396  38.669  30.444  1.00  0.00    -0.644 OA
HETATM   30  O7  UNL     1      19.516  40.758  30.476  1.00  0.00    -0.644 OA
ENDBRANCH  11  28
ENDBRANCH   1   8
BRANCH   3  31
HETATM   31  C8  UNL     1      20.994  40.599  22.441  1.00  0.00     0.277 C 
HETATM   32  O3  UNL     1      20.807  41.614  21.719  1.00  0.00    -0.266 OA
HETATM   33  N5  UNL     1      20.729  39.310  21.906  1.00  0.00    -0.296 N 
HETATM   34  C9  UNL     1      20.260  39.129  20.577  1.00  0.00     0.191 C 
ATOM     35  H5  UNL     1      20.882  38.490  22.493  1.00  0.00     0.171 HD
HETATM   36  N6  UNL     1      20.036  40.243  19.736  1.00  0.00    -0.063 NA
HETATM   37  N7  UNL     1      20.032  37.949  20.128  1.00  0.00    -0.363 N 
ATOM     38  H7  UNL     1      19.694  37.823  19.174  1.00  0.00     0.162 HD
BRANCH  37  39
HETATM   39  C10 UNL     1      20.255  36.794  20.977  1.00  0.00     0.144 C 
BRANCH  39  40
HETATM   40  C11 UNL     1      19.084  35.835  20.919  1.00  0.00     0.169 C 
BRANCH  40  41
HETATM   41  N8  UNL     1      17.904  36.550  21.304  1.00  0.00    -0.285 N 
HETATM   42  C12 UNL     1      16.764  36.652  20.624  1.00  0.00     0.201 A 
HETATM   43  N9  UNL     1      15.915  37.410  21.335  1.00  0.00    -0.346 N 
HETATM   44  C13 UNL     1      16.536  37.771  22.452  1.00  0.00     0.198 A 
ATOM     45  H9  UNL     1      14.964  37.663  21.066  1.00  0.00     0.167 HD
HETATM   46  N10 UNL     1      17.764  37.234  22.421  1.00  0.00    -0.293 N 
ATOM     47  H10 UNL     1      18.475  37.339  23.145  1.00  0.00     0.188 HD
ENDBRANCH  40  41
ENDBRANCH  39  40
ENDBRANCH  37  39
ENDBRANCH   3  31
TORSDOF 10
ENDMDL
