MODEL 1
REMARK VINA RESULT: -7.689639870      0.000      0.000
REMARK  11 active torsions:
REMARK  status: ('A' for Active; 'I' for Inactive)
REMARK       I    between atoms: C1_4  and  N2_5 
REMARK       I    between atoms: C1_4  and  N7_23 
REMARK    1  A    between atoms: N2_5  and  C2_7 
REMARK    2  A    between atoms: C2_7  and  C3_8 
REMARK    3  A    between atoms: C4_12  and  C5_13 
REMARK    4  A    between atoms: N7_23  and  C9_25 
REMARK    5  A    between atoms: C9_25  and  C10_26 
REMARK    6  A    between atoms: C12_29  and  N8_30 
REMARK    7  A    between atoms: C13_34  and  C14_35 
REMARK    8  A    between atoms: C14_35  and  N9_36 
REMARK    9  A    between atoms: C15_37  and  C16_38 
REMARK   10  A    between atoms: C17_44  and  N13_45 
REMARK   11  A    between atoms: C18_49  and  O4_50 
ROOT
HETATM    1  C10 UNL     1      19.973  42.202  19.786  1.00  0.00     0.105 C 
HETATM    2  C11 UNL     1      20.803  41.198  20.461  1.00  0.00     0.166 C 
HETATM    3  O2  UNL     1      21.967  41.261  20.839  1.00  0.00    -0.295 OA
HETATM    4  C12 UNL     1      19.948  40.002  20.624  1.00  0.00     0.264 C 
HETATM    5  C13 UNL     1      19.080  39.958  19.329  1.00  0.00     0.092 C 
HETATM    6  C18 UNL     1      19.170  41.369  18.796  1.00  0.00     0.142 C 
ENDROOT
BRANCH   1   7
HETATM    7  C9  UNL     1      19.122  42.973  20.711  1.00  0.00     0.153 C 
BRANCH   7   8
HETATM    8  N7  UNL     1      19.272  42.696  22.090  1.00  0.00    -0.226 N 
HETATM    9  C1  UNL     1      19.219  43.615  23.149  1.00  0.00     0.667 C 
HETATM   10  N1  UNL     1      19.802  44.754  23.065  1.00  0.00    -0.235 N 
HETATM   11  N2  UNL     1      18.523  43.271  24.344  1.00  0.00    -0.220 N 
ATOM     12  H12 UNL     1      19.763  45.422  23.835  1.00  0.00     0.174 HD
ATOM     13  H11 UNL     1      20.300  45.001  22.210  1.00  0.00     0.174 HD
ATOM     14  H2  UNL     1      17.757  42.602  24.264  1.00  0.00     0.178 HD
ATOM     15  H7  UNL     1      19.436  41.721  22.342  1.00  0.00     0.177 HD
BRANCH  11  16
HETATM   16  C2  UNL     1      18.813  43.789  25.648  1.00  0.00     0.216 C 
BRANCH  16  17
HETATM   17  C3  UNL     1      19.389  42.712  26.496  1.00  0.00     0.122 A 
HETATM   18  N3  UNL     1      20.347  41.807  26.261  1.00  0.00    -0.245 N 
HETATM   19  O1  UNL     1      20.523  41.058  27.304  1.00  0.00    -0.216 OA
ATOM     20  H3  UNL     1      20.865  41.720  25.386  1.00  0.00     0.196 HD
HETATM   21  C4  UNL     1      19.702  41.417  28.274  1.00  0.00     0.200 A 
HETATM   22  N6  UNL     1      19.000  42.443  27.771  1.00  0.00    -0.320 N 
ATOM     23  H6  UNL     1      18.274  42.951  28.276  1.00  0.00     0.169 HD
BRANCH  21  24
HETATM   24  C5  UNL     1      19.567  40.843  29.601  1.00  0.00     0.101 A 
HETATM   25  C6  UNL     1      19.901  39.534  29.878  1.00  0.00     0.121 A 
HETATM   26  N4  UNL     1      19.768  39.017  31.117  1.00  0.00    -0.372 N 
HETATM   27  C7  UNL     1      19.312  39.749  32.127  1.00  0.00     0.104 A 
ATOM     28  H4  UNL     1      20.024  38.043  31.282  1.00  0.00     0.164 HD
HETATM   29  C8  UNL     1      18.971  41.083  31.849  1.00  0.00     0.105 A 
HETATM   30  N5  UNL     1      19.105  41.584  30.615  1.00  0.00    -0.360 N 
ATOM     31  H5  UNL     1      18.847  42.557  30.442  1.00  0.00     0.165 HD
ENDBRANCH  21  24
ENDBRANCH  16  17
ENDBRANCH  11  16
ENDBRANCH   7   8
ENDBRANCH   1   7
BRANCH   6  32
HETATM   32  O4  UNL     1      19.907  41.307  17.616  1.00  0.00    -0.394 OA
ATOM     33  H4  UNL     1      20.341  42.147  17.513  1.00  0.00     0.210 HD
ENDBRANCH   6  32
BRANCH   4  34
HETATM   34  N8  UNL     1      20.785  38.832  20.717  1.00  0.00    -0.068 N 
ATOM     35  H83 UNL     1      21.623  38.997  21.273  1.00  0.00     0.275 HD
ATOM     36  H82 UNL     1      20.369  38.103  21.297  1.00  0.00     0.275 HD
ATOM     37  H81 UNL     1      21.002  38.501  19.776  1.00  0.00     0.275 HD
ENDBRANCH   4  34
BRANCH   5  38
HETATM   38  C14 UNL     1      17.722  39.584  19.781  1.00  0.00     0.079 C 
BRANCH  38  39
HETATM   39  N9  UNL     1      17.477  38.789  20.890  1.00  0.00    -0.298 N 
HETATM   40  C15 UNL     1      17.641  38.877  22.275  1.00  0.00     0.188 C 
HETATM   41  N11 UNL     1      17.753  37.653  22.781  1.00  0.00    -0.281 N 
HETATM   42  N12 UNL     1      17.663  36.712  21.763  1.00  0.00    -0.084 NA
ATOM     43  H11 UNL     1      17.885  37.437  23.770  1.00  0.00     0.184 HD
HETATM   44  C17 UNL     1      16.853  37.428  20.742  1.00  0.00     0.404 C 
BRANCH  40  45
HETATM   45  C16 UNL     1      17.611  40.061  23.120  1.00  0.00     0.300 C 
HETATM   46  N10 UNL     1      16.641  41.082  22.808  1.00  0.00    -0.054 NA
HETATM   47  O3  UNL     1      18.322  40.317  24.097  1.00  0.00    -0.268 OA
ENDBRANCH  40  45
BRANCH  44  48
HETATM   48  N13 UNL     1      17.166  36.844  19.480  1.00  0.00    -0.042 N 
ATOM     49 3H13 UNL     1      16.664  35.967  19.339  1.00  0.00     0.278 HD
ATOM     50 2H13 UNL     1      16.765  37.380  18.711  1.00  0.00     0.278 HD
ATOM     51 1H13 UNL     1      18.172  36.721  19.364  1.00  0.00     0.278 HD
ENDBRANCH  44  48
ENDBRANCH  38  39
ENDBRANCH   5  38
TORSDOF 11
ENDMDL
MODEL 2
REMARK VINA RESULT: -7.670793440      1.414      1.637
REMARK  11 active torsions:
REMARK  status: ('A' for Active; 'I' for Inactive)
REMARK       I    between atoms: C1_4  and  N2_5 
REMARK       I    between atoms: C1_4  and  N7_23 
REMARK    1  A    between atoms: N2_5  and  C2_7 
REMARK    2  A    between atoms: C2_7  and  C3_8 
REMARK    3  A    between atoms: C4_12  and  C5_13 
REMARK    4  A    between atoms: N7_23  and  C9_25 
REMARK    5  A    between atoms: C9_25  and  C10_26 
REMARK    6  A    between atoms: C12_29  and  N8_30 
REMARK    7  A    between atoms: C13_34  and  C14_35 
REMARK    8  A    between atoms: C14_35  and  N9_36 
REMARK    9  A    between atoms: C15_37  and  C16_38 
REMARK   10  A    between atoms: C17_44  and  N13_45 
REMARK   11  A    between atoms: C18_49  and  O4_50 
ROOT
HETATM    1  C10 UNL     1      19.546  42.109  20.060  1.00  0.00     0.105 C 
HETATM    2  C11 UNL     1      20.994  42.132  19.824  1.00  0.00     0.166 C 
HETATM    3  O2  UNL     1      21.701  43.007  19.335  1.00  0.00    -0.295 OA
HETATM    4  C12 UNL     1      21.508  40.831  20.303  1.00  0.00     0.264 C 
HETATM    5  C13 UNL     1      20.393  39.805  19.932  1.00  0.00     0.092 C 
HETATM    6  C18 UNL     1      19.171  40.670  19.729  1.00  0.00     0.142 C 
ENDROOT
BRANCH   1   7
HETATM    7  C9  UNL     1      19.172  42.500  21.432  1.00  0.00     0.153 C 
BRANCH   7   8
HETATM    8  N7  UNL     1      20.201  43.033  22.242  1.00  0.00    -0.226 N 
HETATM    9  C1  UNL     1      20.295  42.974  23.640  1.00  0.00     0.667 C 
HETATM   10  N1  UNL     1      19.270  43.184  24.381  1.00  0.00    -0.235 N 
HETATM   11  N2  UNL     1      21.553  42.693  24.249  1.00  0.00    -0.220 N 
ATOM     12  H12 UNL     1      19.338  43.140  25.398  1.00  0.00     0.174 HD
ATOM     13  H11 UNL     1      18.369  43.384  23.945  1.00  0.00     0.174 HD
ATOM     14  H2  UNL     1      22.223  42.144  23.710  1.00  0.00     0.178 HD
ATOM     15  H7  UNL     1      20.959  43.513  21.756  1.00  0.00     0.177 HD
BRANCH  11  16
HETATM   16  C2  UNL     1      21.951  43.121  25.557  1.00  0.00     0.216 C 
BRANCH  16  17
HETATM   17  C3  UNL     1      21.642  42.054  26.547  1.00  0.00     0.122 A 
HETATM   18  N3  UNL     1      21.987  40.761  26.603  1.00  0.00    -0.245 N 
HETATM   19  O1  UNL     1      21.483  40.208  27.661  1.00  0.00    -0.216 OA
ATOM     20  H3  UNL     1      22.564  40.281  25.912  1.00  0.00     0.196 HD
HETATM   21  C4  UNL     1      20.784  41.088  28.354  1.00  0.00     0.200 A 
HETATM   22  N6  UNL     1      20.884  42.232  27.662  1.00  0.00    -0.320 N 
ATOM     23  H6  UNL     1      20.451  43.115  27.934  1.00  0.00     0.169 HD
BRANCH  21  24
HETATM   24  C5  UNL     1      20.057  40.887  29.595  1.00  0.00     0.101 A 
HETATM   25  C6  UNL     1      19.636  39.642  30.012  1.00  0.00     0.121 A 
HETATM   26  N4  UNL     1      18.960  39.474  31.168  1.00  0.00    -0.372 N 
HETATM   27  C7  UNL     1      18.674  40.503  31.958  1.00  0.00     0.104 A 
ATOM     28  H4  UNL     1      18.664  38.538  31.441  1.00  0.00     0.164 HD
HETATM   29  C8  UNL     1      19.101  41.773  31.536  1.00  0.00     0.105 A 
HETATM   30  N5  UNL     1      19.768  41.928  30.386  1.00  0.00    -0.360 N 
ATOM     31  H5  UNL     1      20.065  42.863  30.105  1.00  0.00     0.165 HD
ENDBRANCH  21  24
ENDBRANCH  16  17
ENDBRANCH  11  16
ENDBRANCH   7   8
ENDBRANCH   1   7
BRANCH   6  32
HETATM   32  O4  UNL     1      18.866  40.626  18.372  1.00  0.00    -0.394 OA
ATOM     33  H4  UNL     1      18.083  41.148  18.243  1.00  0.00     0.210 HD
ENDBRANCH   6  32
BRANCH   4  34
HETATM   34  N8  UNL     1      22.735  40.523  19.611  1.00  0.00    -0.068 N 
ATOM     35  H83 UNL     1      23.444  41.244  19.740  1.00  0.00     0.275 HD
ATOM     36  H82 UNL     1      23.238  39.747  20.040  1.00  0.00     0.275 HD
ATOM     37  H81 UNL     1      22.529  40.353  18.626  1.00  0.00     0.275 HD
ENDBRANCH   4  34
BRANCH   5  38
HETATM   38  C14 UNL     1      20.289  38.901  21.098  1.00  0.00     0.079 C 
BRANCH  38  39
HETATM   39  N9  UNL     1      19.103  38.312  21.505  1.00  0.00    -0.298 N 
HETATM   40  C15 UNL     1      18.150  38.506  22.509  1.00  0.00     0.188 C 
HETATM   41  N11 UNL     1      17.539  37.353  22.760  1.00  0.00    -0.281 N 
HETATM   42  N12 UNL     1      18.052  36.358  21.938  1.00  0.00    -0.084 NA
ATOM     43  H11 UNL     1      16.802  37.218  23.454  1.00  0.00     0.184 HD
HETATM   44  C17 UNL     1      18.529  37.135  20.764  1.00  0.00     0.404 C 
BRANCH  40  45
HETATM   45  C16 UNL     1      17.757  39.745  23.162  1.00  0.00     0.300 C 
HETATM   46  N10 UNL     1      16.638  40.469  22.606  1.00  0.00    -0.054 NA
HETATM   47  O3  UNL     1      18.263  40.277  24.155  1.00  0.00    -0.268 OA
ENDBRANCH  40  45
BRANCH  44  48
HETATM   48  N13 UNL     1      19.553  36.361  20.142  1.00  0.00    -0.042 N 
ATOM     49 3H13 UNL     1      20.422  36.394  20.675  1.00  0.00     0.278 HD
ATOM     50 2H13 UNL     1      19.361  35.362  20.215  1.00  0.00     0.278 HD
ATOM     51 1H13 UNL     1      19.698  36.643  19.173  1.00  0.00     0.278 HD
ENDBRANCH  44  48
ENDBRANCH  38  39
ENDBRANCH   5  38
TORSDOF 11
ENDMDL
MODEL 3
REMARK VINA RESULT: -7.337469472      2.374      3.635
REMARK  11 active torsions:
REMARK  status: ('A' for Active; 'I' for Inactive)
REMARK       I    between atoms: C1_4  and  N2_5 
REMARK       I    between atoms: C1_4  and  N7_23 
REMARK    1  A    between atoms: N2_5  and  C2_7 
REMARK    2  A    between atoms: C2_7  and  C3_8 
REMARK    3  A    between atoms: C4_12  and  C5_13 
REMARK    4  A    between atoms: N7_23  and  C9_25 
REMARK    5  A    between atoms: C9_25  and  C10_26 
REMARK    6  A    between atoms: C12_29  and  N8_30 
REMARK    7  A    between atoms: C13_34  and  C14_35 
REMARK    8  A    between atoms: C14_35  and  N9_36 
REMARK    9  A    between atoms: C15_37  and  C16_38 
REMARK   10  A    between atoms: C17_44  and  N13_45 
REMARK   11  A    between atoms: C18_49  and  O4_50 
ROOT
HETATM    1  C10 UNL     1      20.124  42.187  19.306  1.00  0.00     0.105 C 
HETATM    2  C11 UNL     1      19.248  42.303  18.135  1.00  0.00     0.166 C 
HETATM    3  O2  UNL     1      19.174  43.187  17.289  1.00  0.00    -0.295 OA
HETATM    4  C12 UNL     1      18.398  41.093  18.138  1.00  0.00     0.264 C 
HETATM    5  C13 UNL     1      18.114  40.812  19.645  1.00  0.00     0.092 C 
HETATM    6  C18 UNL     1      19.206  41.576  20.357  1.00  0.00     0.142 C 
ENDROOT
BRANCH   1   7
HETATM    7  C9  UNL     1      21.329  41.375  19.055  1.00  0.00     0.153 C 
BRANCH   7   8
HETATM    8  N7  UNL     1      21.762  40.540  20.111  1.00  0.00    -0.226 N 
HETATM    9  C1  UNL     1      22.314  40.941  21.336  1.00  0.00     0.667 C 
HETATM   10  N1  UNL     1      23.189  41.876  21.392  1.00  0.00    -0.235 N 
HETATM   11  N2  UNL     1      21.909  40.288  22.537  1.00  0.00    -0.220 N 
ATOM     12  H12 UNL     1      23.591  42.169  22.283  1.00  0.00     0.174 HD
ATOM     13  H11 UNL     1      23.479  42.344  20.533  1.00  0.00     0.174 HD
ATOM     14  H2  UNL     1      20.977  39.876  22.555  1.00  0.00     0.178 HD
ATOM     15  H7  UNL     1      21.661  39.535  19.966  1.00  0.00     0.177 HD
BRANCH  11  16
HETATM   16  C2  UNL     1      22.708  40.165  23.720  1.00  0.00     0.216 C 
BRANCH  16  17
HETATM   17  C3  UNL     1      21.962  40.711  24.885  1.00  0.00     0.122 A 
HETATM   18  N3  UNL     1      22.069  40.483  26.200  1.00  0.00    -0.245 N 
HETATM   19  O1  UNL     1      21.200  41.191  26.851  1.00  0.00    -0.216 OA
ATOM     20  H3  UNL     1      22.738  39.843  26.628  1.00  0.00     0.196 HD
HETATM   21  C4  UNL     1      20.478  41.916  26.017  1.00  0.00     0.200 A 
HETATM   22  N6  UNL     1      20.952  41.618  24.798  1.00  0.00    -0.320 N 
ATOM     23  H6  UNL     1      20.603  42.016  23.927  1.00  0.00     0.169 HD
BRANCH  21  24
HETATM   24  C5  UNL     1      19.400  42.840  26.325  1.00  0.00     0.101 A 
HETATM   25  C6  UNL     1      18.852  42.943  27.586  1.00  0.00     0.121 A 
HETATM   26  N4  UNL     1      17.850  43.807  27.853  1.00  0.00    -0.372 N 
HETATM   27  C7  UNL     1      17.350  44.599  26.912  1.00  0.00     0.104 A 
ATOM     28  H4  UNL     1      17.470  43.852  28.798  1.00  0.00     0.164 HD
HETATM   29  C8  UNL     1      17.905  44.496  25.626  1.00  0.00     0.105 A 
HETATM   30  N5  UNL     1      18.898  43.634  25.372  1.00  0.00    -0.360 N 
ATOM     31  H5  UNL     1      19.281  43.581  24.427  1.00  0.00     0.165 HD
ENDBRANCH  21  24
ENDBRANCH  16  17
ENDBRANCH  11  16
ENDBRANCH   7   8
ENDBRANCH   1   7
BRANCH   6  32
HETATM   32  O4  UNL     1      18.590  42.629  21.027  1.00  0.00    -0.394 OA
ATOM     33  H4  UNL     1      17.953  42.250  21.622  1.00  0.00     0.210 HD
ENDBRANCH   6  32
BRANCH   4  34
HETATM   34  N8  UNL     1      17.172  41.374  17.432  1.00  0.00    -0.068 N 
ATOM     35  H83 UNL     1      16.431  40.713  17.662  1.00  0.00     0.275 HD
ATOM     36  H82 UNL     1      16.717  42.223  17.769  1.00  0.00     0.275 HD
ATOM     37  H81 UNL     1      17.364  41.409  16.431  1.00  0.00     0.275 HD
ENDBRANCH   4  34
BRANCH   5  38
HETATM   38  C14 UNL     1      18.225  39.345  19.798  1.00  0.00     0.079 C 
BRANCH  38  39
HETATM   39  N9  UNL     1      17.667  38.642  20.854  1.00  0.00    -0.298 N 
HETATM   40  C15 UNL     1      17.584  38.769  22.243  1.00  0.00     0.188 C 
HETATM   41  N11 UNL     1      17.420  37.564  22.783  1.00  0.00    -0.281 N 
HETATM   42  N12 UNL     1      17.382  36.601  21.782  1.00  0.00    -0.084 NA
ATOM     43  H11 UNL     1      17.335  37.376  23.782  1.00  0.00     0.184 HD
HETATM   44  C17 UNL     1      16.887  37.378  20.615  1.00  0.00     0.404 C 
BRANCH  40  45
HETATM   45  C16 UNL     1      17.574  39.981  23.048  1.00  0.00     0.300 C 
HETATM   46  N10 UNL     1      16.575  40.976  22.745  1.00  0.00    -0.054 NA
HETATM   47  O3  UNL     1      18.324  40.281  23.981  1.00  0.00    -0.268 OA
ENDBRANCH  40  45
BRANCH  44  48
HETATM   48  N13 UNL     1      17.337  36.700  19.445  1.00  0.00    -0.042 N 
ATOM     49 3H13 UNL     1      16.579  36.188  18.995  1.00  0.00     0.278 HD
ATOM     50 2H13 UNL     1      17.552  37.355  18.693  1.00  0.00     0.278 HD
ATOM     51 1H13 UNL     1      18.131  36.092  19.647  1.00  0.00     0.278 HD
ENDBRANCH  44  48
ENDBRANCH  38  39
ENDBRANCH   5  38
TORSDOF 11
ENDMDL
MODEL 4
REMARK VINA RESULT: -7.284300792      2.096      2.939
REMARK  11 active torsions:
REMARK  status: ('A' for Active; 'I' for Inactive)
REMARK       I    between atoms: C1_4  and  N2_5 
REMARK       I    between atoms: C1_4  and  N7_23 
REMARK    1  A    between atoms: N2_5  and  C2_7 
REMARK    2  A    between atoms: C2_7  and  C3_8 
REMARK    3  A    between atoms: C4_12  and  C5_13 
REMARK    4  A    between atoms: N7_23  and  C9_25 
REMARK    5  A    between atoms: C9_25  and  C10_26 
REMARK    6  A    between atoms: C12_29  and  N8_30 
REMARK    7  A    between atoms: C13_34  and  C14_35 
REMARK    8  A    between atoms: C14_35  and  N9_36 
REMARK    9  A    between atoms: C15_37  and  C16_38 
REMARK   10  A    between atoms: C17_44  and  N13_45 
REMARK   11  A    between atoms: C18_49  and  O4_50 
ROOT
HETATM    1  C10 UNL     1      20.107  42.240  19.227  1.00  0.00     0.105 C 
HETATM    2  C11 UNL     1      19.207  42.337  18.072  1.00  0.00     0.166 C 
HETATM    3  O2  UNL     1      19.106  43.214  17.222  1.00  0.00    -0.295 OA
HETATM    4  C12 UNL     1      18.372  41.117  18.101  1.00  0.00     0.264 C 
HETATM    5  C13 UNL     1      18.122  40.844  19.615  1.00  0.00     0.092 C 
HETATM    6  C18 UNL     1      19.218  41.626  20.301  1.00  0.00     0.142 C 
ENDROOT
BRANCH   1   7
HETATM    7  C9  UNL     1      21.318  41.441  18.958  1.00  0.00     0.153 C 
BRANCH   7   8
HETATM    8  N7  UNL     1      21.909  40.795  20.067  1.00  0.00    -0.226 N 
HETATM    9  C1  UNL     1      22.400  41.397  21.236  1.00  0.00     0.667 C 
HETATM   10  N1  UNL     1      23.095  42.473  21.183  1.00  0.00    -0.235 N 
HETATM   11  N2  UNL     1      22.138  40.794  22.500  1.00  0.00    -0.220 N 
ATOM     12  H12 UNL     1      23.451  42.911  22.032  1.00  0.00     0.174 HD
ATOM     13  H11 UNL     1      23.282  42.905  20.277  1.00  0.00     0.174 HD
ATOM     14  H2  UNL     1      21.295  40.226  22.583  1.00  0.00     0.178 HD
ATOM     15  H7  UNL     1      21.987  39.779  20.013  1.00  0.00     0.177 HD
BRANCH  11  16
HETATM   16  C2  UNL     1      22.965  40.922  23.664  1.00  0.00     0.216 C 
BRANCH  16  17
HETATM   17  C3  UNL     1      22.109  41.030  24.875  1.00  0.00     0.122 A 
HETATM   18  N3  UNL     1      20.881  41.531  25.059  1.00  0.00    -0.245 N 
HETATM   19  O1  UNL     1      20.527  41.410  26.300  1.00  0.00    -0.216 OA
ATOM     20  H3  UNL     1      20.306  41.948  24.326  1.00  0.00     0.196 HD
HETATM   21  C4  UNL     1      21.487  40.833  26.999  1.00  0.00     0.200 A 
HETATM   22  N6  UNL     1      22.467  40.598  26.114  1.00  0.00    -0.320 N 
ATOM     23  H6  UNL     1      23.358  40.156  26.339  1.00  0.00     0.169 HD
BRANCH  21  24
HETATM   24  C5  UNL     1      21.505  40.514  28.416  1.00  0.00     0.101 A 
HETATM   25  C6  UNL     1      20.475  40.861  29.265  1.00  0.00     0.121 A 
HETATM   26  N4  UNL     1      20.509  40.556  30.579  1.00  0.00    -0.372 N 
HETATM   27  C7  UNL     1      21.536  39.905  31.113  1.00  0.00     0.104 A 
ATOM     28  H4  UNL     1      19.729  40.832  31.175  1.00  0.00     0.164 HD
HETATM   29  C8  UNL     1      22.588  39.551  30.251  1.00  0.00     0.105 A 
HETATM   30  N5  UNL     1      22.544  39.860  28.949  1.00  0.00    -0.360 N 
ATOM     31  H5  UNL     1      23.323  39.590  28.347  1.00  0.00     0.165 HD
ENDBRANCH  21  24
ENDBRANCH  16  17
ENDBRANCH  11  16
ENDBRANCH   7   8
ENDBRANCH   1   7
BRANCH   6  32
HETATM   32  O4  UNL     1      18.602  42.677  20.975  1.00  0.00    -0.394 OA
ATOM     33  H4  UNL     1      18.774  43.469  20.478  1.00  0.00     0.210 HD
ENDBRANCH   6  32
BRANCH   4  34
HETATM   34  N8  UNL     1      17.130  41.379  17.417  1.00  0.00    -0.068 N 
ATOM     35  H83 UNL     1      16.687  40.525  17.078  1.00  0.00     0.275 HD
ATOM     36  H82 UNL     1      16.392  41.679  18.055  1.00  0.00     0.275 HD
ATOM     37  H81 UNL     1      17.295  42.054  16.671  1.00  0.00     0.275 HD
ENDBRANCH   4  34
BRANCH   5  38
HETATM   38  C14 UNL     1      18.253  39.379  19.776  1.00  0.00     0.079 C 
BRANCH  38  39
HETATM   39  N9  UNL     1      17.704  38.675  20.837  1.00  0.00    -0.298 N 
HETATM   40  C15 UNL     1      17.626  38.804  22.226  1.00  0.00     0.188 C 
HETATM   41  N11 UNL     1      17.474  37.600  22.769  1.00  0.00    -0.281 N 
HETATM   42  N12 UNL     1      17.439  36.634  21.771  1.00  0.00    -0.084 NA
ATOM     43  H11 UNL     1      17.395  37.413  23.769  1.00  0.00     0.184 HD
HETATM   44  C17 UNL     1      16.934  37.404  20.604  1.00  0.00     0.404 C 
BRANCH  40  45
HETATM   45  C16 UNL     1      17.610  40.018  23.027  1.00  0.00     0.300 C 
HETATM   46  N10 UNL     1      16.611  41.011  22.717  1.00  0.00    -0.054 NA
HETATM   47  O3  UNL     1      18.356  40.322  23.964  1.00  0.00    -0.268 OA
ENDBRANCH  40  45
BRANCH  44  48
HETATM   48  N13 UNL     1      17.384  36.727  19.433  1.00  0.00    -0.042 N 
ATOM     49 3H13 UNL     1      17.371  37.341  18.618  1.00  0.00     0.278 HD
ATOM     50 2H13 UNL     1      18.386  36.540  19.472  1.00  0.00     0.278 HD
ATOM     51 1H13 UNL     1      16.851  35.873  19.267  1.00  0.00     0.278 HD
ENDBRANCH  44  48
ENDBRANCH  38  39
ENDBRANCH   5  38
TORSDOF 11
ENDMDL
MODEL 5
REMARK VINA RESULT: -7.268111413      1.697      2.515
REMARK  11 active torsions:
REMARK  status: ('A' for Active; 'I' for Inactive)
REMARK       I    between atoms: C1_4  and  N2_5 
REMARK       I    between atoms: C1_4  and  N7_23 
REMARK    1  A    between atoms: N2_5  and  C2_7 
REMARK    2  A    between atoms: C2_7  and  C3_8 
REMARK    3  A    between atoms: C4_12  and  C5_13 
REMARK    4  A    between atoms: N7_23  and  C9_25 
REMARK    5  A    between atoms: C9_25  and  C10_26 
REMARK    6  A    between atoms: C12_29  and  N8_30 
REMARK    7  A    between atoms: C13_34  and  C14_35 
REMARK    8  A    between atoms: C14_35  and  N9_36 
REMARK    9  A    between atoms: C15_37  and  C16_38 
REMARK   10  A    between atoms: C17_44  and  N13_45 
REMARK   11  A    between atoms: C18_49  and  O4_50 
ROOT
HETATM    1  C10 UNL     1      19.342  42.274  20.047  1.00  0.00     0.105 C 
HETATM    2  C11 UNL     1      20.795  42.149  19.886  1.00  0.00     0.166 C 
HETATM    3  O2  UNL     1      21.611  42.946  19.436  1.00  0.00    -0.295 OA
HETATM    4  C12 UNL     1      21.149  40.804  20.388  1.00  0.00     0.264 C 
HETATM    5  C13 UNL     1      19.957  39.895  19.957  1.00  0.00     0.092 C 
HETATM    6  C18 UNL     1      18.841  40.879  19.694  1.00  0.00     0.142 C 
ENDROOT
BRANCH   1   7
HETATM    7  C9  UNL     1      18.939  42.704  21.398  1.00  0.00     0.153 C 
BRANCH   7   8
HETATM    8  N7  UNL     1      19.961  43.219  22.230  1.00  0.00    -0.226 N 
HETATM    9  C1  UNL     1      20.033  43.141  23.629  1.00  0.00     0.667 C 
HETATM   10  N1  UNL     1      18.998  43.351  24.357  1.00  0.00    -0.235 N 
HETATM   11  N2  UNL     1      21.279  42.842  24.253  1.00  0.00    -0.220 N 
ATOM     12  H12 UNL     1      19.050  43.294  25.374  1.00  0.00     0.174 HD
ATOM     13  H11 UNL     1      18.106  43.565  23.911  1.00  0.00     0.174 HD
ATOM     14  H2  UNL     1      21.952  42.295  23.717  1.00  0.00     0.178 HD
ATOM     15  H7  UNL     1      20.729  43.698  21.762  1.00  0.00     0.177 HD
BRANCH  11  16
HETATM   16  C2  UNL     1      21.661  43.250  25.573  1.00  0.00     0.216 C 
BRANCH  16  17
HETATM   17  C3  UNL     1      21.474  42.117  26.518  1.00  0.00     0.122 A 
HETATM   18  N3  UNL     1      21.908  40.851  26.492  1.00  0.00    -0.245 N 
HETATM   19  O1  UNL     1      21.497  40.213  27.542  1.00  0.00    -0.216 OA
ATOM     20  H3  UNL     1      22.481  40.447  25.751  1.00  0.00     0.196 HD
HETATM   21  C4  UNL     1      20.775  41.007  28.311  1.00  0.00     0.200 A 
HETATM   22  N6  UNL     1      20.762  42.188  27.675  1.00  0.00    -0.320 N 
ATOM     23  H6  UNL     1      20.284  43.023  28.013  1.00  0.00     0.169 HD
BRANCH  21  24
HETATM   24  C5  UNL     1      20.126  40.695  29.572  1.00  0.00     0.101 A 
HETATM   25  C6  UNL     1      19.937  39.401  30.007  1.00  0.00     0.121 A 
HETATM   26  N4  UNL     1      19.331  39.130  31.182  1.00  0.00    -0.372 N 
HETATM   27  C7  UNL     1      18.890  40.101  31.974  1.00  0.00     0.104 A 
ATOM     28  H4  UNL     1      19.208  38.159  31.468  1.00  0.00     0.164 HD
HETATM   29  C8  UNL     1      19.080  41.422  31.533  1.00  0.00     0.105 A 
HETATM   30  N5  UNL     1      19.681  41.679  30.365  1.00  0.00    -0.360 N 
ATOM     31  H5  UNL     1      19.803  42.648  30.071  1.00  0.00     0.165 HD
ENDBRANCH  21  24
ENDBRANCH  16  17
ENDBRANCH  11  16
ENDBRANCH   7   8
ENDBRANCH   1   7
BRANCH   6  32
HETATM   32  O4  UNL     1      18.603  40.862  18.322  1.00  0.00    -0.394 OA
ATOM     33  H4  UNL     1      18.633  41.763  18.021  1.00  0.00     0.210 HD
ENDBRANCH   6  32
BRANCH   4  34
HETATM   34  N8  UNL     1      22.372  40.371  19.759  1.00  0.00    -0.068 N 
ATOM     35  H83 UNL     1      23.054  41.125  19.679  1.00  0.00     0.275 HD
ATOM     36  H82 UNL     1      22.916  39.749  20.357  1.00  0.00     0.275 HD
ATOM     37  H81 UNL     1      22.153  39.948  18.857  1.00  0.00     0.275 HD
ENDBRANCH   4  34
BRANCH   5  38
HETATM   38  C14 UNL     1      19.702  39.010  21.114  1.00  0.00     0.079 C 
BRANCH  38  39
HETATM   39  N9  UNL     1      18.458  38.473  21.407  1.00  0.00    -0.298 N 
HETATM   40  C15 UNL     1      17.492  37.702  20.755  1.00  0.00     0.188 C 
HETATM   41  N11 UNL     1      16.301  37.947  21.292  1.00  0.00    -0.281 N 
HETATM   42  N12 UNL     1      16.428  38.878  22.316  1.00  0.00    -0.084 NA
ATOM     43  H11 UNL     1      15.424  37.517  20.997  1.00  0.00     0.184 HD
HETATM   44  C17 UNL     1      17.831  38.667  22.761  1.00  0.00     0.404 C 
BRANCH  40  45
HETATM   45  C16 UNL     1      17.677  36.700  19.716  1.00  0.00     0.300 C 
HETATM   46  N10 UNL     1      18.950  36.025  19.656  1.00  0.00    -0.054 NA
HETATM   47  O3  UNL     1      16.869  36.339  18.855  1.00  0.00    -0.268 OA
ENDBRANCH  40  45
BRANCH  44  48
HETATM   48  N13 UNL     1      18.262  39.884  23.366  1.00  0.00    -0.042 N 
ATOM     49 3H13 UNL     1      19.275  39.986  23.319  1.00  0.00     0.278 HD
ATOM     50 2H13 UNL     1      17.997  40.694  22.805  1.00  0.00     0.278 HD
ATOM     51 1H13 UNL     1      17.921  39.966  24.324  1.00  0.00     0.278 HD
ENDBRANCH  44  48
ENDBRANCH  38  39
ENDBRANCH   5  38
TORSDOF 11
ENDMDL
