MODEL 1
REMARK VINA RESULT: -6.671949044      0.000      0.000
REMARK  12 active torsions:
REMARK  status: ('A' for Active; 'I' for Inactive)
REMARK    1  A    between atoms: N1_1  and  N2_4 
REMARK       I    between atoms: N2_4  and  C1_6 
REMARK    2  A    between atoms: C1_6  and  C2_8 
REMARK    3  A    between atoms: C2_8  and  S1_9 
REMARK    4  A    between atoms: S1_9  and  C3_10 
REMARK    5  A    between atoms: C4_13  and  C5_14 
REMARK    6  A    between atoms: N4_18  and  C7_19 
REMARK    7  A    between atoms: C8_20  and  O4_21 
REMARK    8  A    between atoms: C9_23  and  N5_24 
REMARK    9  A    between atoms: C14_34  and  C15_35 
REMARK   10  A    between atoms: C15_35  and  O8_36 
REMARK   11  A    between atoms: C15_35  and  C16_38 
REMARK       I    between atoms: C16_38  and  N7_40 
REMARK   12  A    between atoms: N7_40  and  N8_42 
ROOT
HETATM    1  C7  UNL     1      19.730  41.562  20.964  1.00  0.00     0.156 C 
HETATM    2  C8  UNL     1      20.932  42.235  20.397  1.00  0.00     0.193 C 
HETATM    3  C9  UNL     1      20.525  42.067  18.915  1.00  0.00     0.263 C 
HETATM    4  O7  UNL     1      20.163  40.757  18.850  1.00  0.00    -0.353 OA
HETATM    5  C14 UNL     1      19.693  40.334  20.105  1.00  0.00     0.188 C 
ENDROOT
BRANCH   1   6
HETATM    6  N4  UNL     1      19.570  41.455  22.350  1.00  0.00    -0.325 N 
HETATM    7  C3  UNL     1      18.614  40.910  23.110  1.00  0.00     0.148 A 
HETATM    8  N3  UNL     1      18.965  41.055  24.400  1.00  0.00    -0.330 N 
HETATM    9  C4  UNL     1      20.137  41.686  24.481  1.00  0.00     0.127 A 
ATOM     10  H3  UNL     1      18.417  40.731  25.196  1.00  0.00     0.168 HD
HETATM   11  C6  UNL     1      20.513  41.936  23.204  1.00  0.00     0.130 A 
BRANCH   7  12
HETATM   12  S1  UNL     1      17.110  40.080  22.530  1.00  0.00    -0.084 SA
BRANCH  12  13
HETATM   13  C2  UNL     1      16.955  38.486  23.332  1.00  0.00     0.186 C 
BRANCH  13  14
HETATM   14  C1  UNL     1      17.026  37.411  22.327  1.00  0.00     0.245 C 
HETATM   15  N2  UNL     1      16.222  37.466  21.172  1.00  0.00    -0.276 N 
ATOM     16  H2  UNL     1      15.596  38.262  21.053  1.00  0.00     0.189 HD
HETATM   17  O1  UNL     1      17.795  36.445  22.488  1.00  0.00    -0.271 OA
BRANCH  15  18
HETATM   18  N1  UNL     1      16.240  36.484  20.186  1.00  0.00    -0.343 N 
ATOM     19  H12 UNL     1      16.535  35.547  20.461  1.00  0.00     0.176 HD
ATOM     20  H11 UNL     1      15.974  36.663  19.218  1.00  0.00     0.176 HD
ENDBRANCH  15  18
ENDBRANCH  13  14
ENDBRANCH  12  13
ENDBRANCH   7  12
BRANCH   9  21
HETATM   21  C5  UNL     1      20.868  42.040  25.691  1.00  0.00     0.228 C 
HETATM   22  O2  UNL     1      21.018  41.197  26.619  1.00  0.00    -0.643 OA
HETATM   23  O3  UNL     1      21.410  43.303  25.847  1.00  0.00    -0.643 OA
ENDBRANCH   9  21
ENDBRANCH   1   6
BRANCH   2  24
HETATM   24  O4  UNL     1      22.067  41.563  20.689  1.00  0.00    -0.389 OA
ATOM     25  H4  UNL     1      22.731  41.686  20.020  1.00  0.00     0.210 HD
ENDBRANCH   2  24
BRANCH   5  26
HETATM   26  C15 UNL     1      20.519  39.163  20.496  1.00  0.00     0.242 C 
BRANCH  26  27
HETATM   27  O8  UNL     1      20.705  39.040  21.894  1.00  0.00    -0.383 OA
ATOM     28  H8  UNL     1      20.712  38.141  22.200  1.00  0.00     0.210 HD
ENDBRANCH  26  27
BRANCH  26  29
HETATM   29  C16 UNL     1      19.781  37.889  20.145  1.00  0.00     0.267 C 
HETATM   30  O9  UNL     1      18.708  37.933  19.502  1.00  0.00    -0.269 OA
HETATM   31  N7  UNL     1      20.258  36.623  20.523  1.00  0.00    -0.274 N 
ATOM     32  H7  UNL     1      21.128  36.566  21.053  1.00  0.00     0.189 HD
BRANCH  31  33
HETATM   33  N8  UNL     1      19.590  35.439  20.203  1.00  0.00    -0.343 N 
ATOM     34  H82 UNL     1      19.668  35.096  19.246  1.00  0.00     0.176 HD
ATOM     35  H81 UNL     1      19.037  34.917  20.883  1.00  0.00     0.176 HD
ENDBRANCH  31  33
ENDBRANCH  26  29
ENDBRANCH   5  26
BRANCH   3  36
HETATM   36  N5  UNL     1      21.478  42.542  17.996  1.00  0.00    -0.280 N 
HETATM   37  C10 UNL     1      22.500  41.808  17.554  1.00  0.00     0.104 A 
HETATM   38  C11 UNL     1      23.384  42.349  16.659  1.00  0.00     0.092 A 
HETATM   39  C12 UNL     1      23.206  43.641  16.228  1.00  0.00     0.250 A 
HETATM   40  O5  UNL     1      24.028  44.128  15.401  1.00  0.00    -0.268 OA
HETATM   41  N6  UNL     1      22.178  44.387  16.666  1.00  0.00    -0.275 N 
HETATM   42  C13 UNL     1      21.352  43.795  17.542  1.00  0.00     0.331 A 
ATOM     43  H6  UNL     1      22.035  45.347  16.352  1.00  0.00     0.173 HD
HETATM   44  O6  UNL     1      20.382  44.534  17.941  1.00  0.00    -0.246 OA
ENDBRANCH   3  36
TORSDOF 12
ENDMDL
MODEL 2
REMARK VINA RESULT: -6.637867133      2.627      7.320
REMARK  12 active torsions:
REMARK  status: ('A' for Active; 'I' for Inactive)
REMARK    1  A    between atoms: N1_1  and  N2_4 
REMARK       I    between atoms: N2_4  and  C1_6 
REMARK    2  A    between atoms: C1_6  and  C2_8 
REMARK    3  A    between atoms: C2_8  and  S1_9 
REMARK    4  A    between atoms: S1_9  and  C3_10 
REMARK    5  A    between atoms: C4_13  and  C5_14 
REMARK    6  A    between atoms: N4_18  and  C7_19 
REMARK    7  A    between atoms: C8_20  and  O4_21 
REMARK    8  A    between atoms: C9_23  and  N5_24 
REMARK    9  A    between atoms: C14_34  and  C15_35 
REMARK   10  A    between atoms: C15_35  and  O8_36 
REMARK   11  A    between atoms: C15_35  and  C16_38 
REMARK       I    between atoms: C16_38  and  N7_40 
REMARK   12  A    between atoms: N7_40  and  N8_42 
ROOT
HETATM    1  C7  UNL     1      18.770  41.287  21.923  1.00  0.00     0.156 C 
HETATM    2  C8  UNL     1      18.272  41.281  23.327  1.00  0.00     0.193 C 
HETATM    3  C9  UNL     1      19.120  42.483  23.803  1.00  0.00     0.263 C 
HETATM    4  O7  UNL     1      20.360  42.181  23.330  1.00  0.00    -0.353 OA
HETATM    5  C14 UNL     1      20.245  41.392  22.173  1.00  0.00     0.188 C 
ENDROOT
BRANCH   1   6
HETATM    6  N4  UNL     1      18.279  40.362  20.996  1.00  0.00    -0.325 N 
HETATM    7  C3  UNL     1      17.986  40.454  19.694  1.00  0.00     0.148 A 
HETATM    8  N3  UNL     1      17.570  39.249  19.268  1.00  0.00    -0.330 N 
HETATM    9  C4  UNL     1      17.592  38.380  20.279  1.00  0.00     0.127 A 
ATOM     10  H3  UNL     1      17.281  39.032  18.314  1.00  0.00     0.168 HD
HETATM   11  C6  UNL     1      18.033  39.073  21.355  1.00  0.00     0.130 A 
BRANCH   7  12
HETATM   12  S1  UNL     1      18.146  41.928  18.650  1.00  0.00    -0.084 SA
BRANCH  12  13
HETATM   13  C2  UNL     1      19.702  41.872  17.765  1.00  0.00     0.186 C 
BRANCH  13  14
HETATM   14  C1  UNL     1      20.802  42.270  18.661  1.00  0.00     0.245 C 
HETATM   15  N2  UNL     1      21.891  41.402  18.875  1.00  0.00    -0.276 N 
ATOM     16  H2  UNL     1      21.896  40.501  18.397  1.00  0.00     0.189 HD
HETATM   17  O1  UNL     1      20.781  43.373  19.237  1.00  0.00    -0.271 OA
BRANCH  15  18
HETATM   18  N1  UNL     1      22.961  41.716  19.708  1.00  0.00    -0.343 N 
ATOM     19  H12 UNL     1      23.003  42.664  20.081  1.00  0.00     0.176 HD
ATOM     20  H11 UNL     1      23.690  41.047  19.954  1.00  0.00     0.176 HD
ENDBRANCH  15  18
ENDBRANCH  13  14
ENDBRANCH  12  13
ENDBRANCH   7  12
BRANCH   9  21
HETATM   21  C5  UNL     1      17.218  36.971  20.241  1.00  0.00     0.228 C 
HETATM   22  O2  UNL     1      17.155  36.355  19.141  1.00  0.00    -0.643 OA
HETATM   23  O3  UNL     1      16.928  36.284  21.406  1.00  0.00    -0.643 OA
ENDBRANCH   9  21
ENDBRANCH   1   6
BRANCH   2  24
HETATM   24  O4  UNL     1      18.605  40.141  23.971  1.00  0.00    -0.389 OA
ATOM     25  H4  UNL     1      19.194  40.306  24.698  1.00  0.00     0.210 HD
ENDBRANCH   2  24
BRANCH   5  26
HETATM   26  C15 UNL     1      21.017  40.149  22.428  1.00  0.00     0.242 C 
BRANCH  26  27
HETATM   27  O8  UNL     1      21.513  39.537  21.252  1.00  0.00    -0.383 OA
ATOM     28  H8  UNL     1      21.011  39.746  20.472  1.00  0.00     0.210 HD
ENDBRANCH  26  27
BRANCH  26  29
HETATM   29  C16 UNL     1      22.282  40.489  23.185  1.00  0.00     0.267 C 
HETATM   30  O9  UNL     1      23.294  40.905  22.577  1.00  0.00    -0.269 OA
HETATM   31  N7  UNL     1      22.375  40.352  24.580  1.00  0.00    -0.274 N 
ATOM     32  H7  UNL     1      21.563  40.009  25.093  1.00  0.00     0.189 HD
BRANCH  31  33
HETATM   33  N8  UNL     1      23.534  40.666  25.292  1.00  0.00    -0.343 N 
ATOM     34  H82 UNL     1      23.535  41.527  25.838  1.00  0.00     0.176 HD
ATOM     35  H81 UNL     1      24.364  40.072  25.283  1.00  0.00     0.176 HD
ENDBRANCH  31  33
ENDBRANCH  26  29
ENDBRANCH   5  26
BRANCH   3  36
HETATM   36  N5  UNL     1      18.984  42.782  25.171  1.00  0.00    -0.280 N 
HETATM   37  C10 UNL     1      19.529  42.046  26.140  1.00  0.00     0.104 A 
HETATM   38  C11 UNL     1      19.345  42.408  27.449  1.00  0.00     0.092 A 
HETATM   39  C12 UNL     1      18.602  43.525  27.744  1.00  0.00     0.250 A 
HETATM   40  O5  UNL     1      18.441  43.849  28.955  1.00  0.00    -0.268 OA
HETATM   41  N6  UNL     1      18.050  44.272  26.774  1.00  0.00    -0.275 N 
HETATM   42  C13 UNL     1      18.269  43.860  25.516  1.00  0.00     0.331 A 
ATOM     43  H6  UNL     1      17.498  45.104  26.981  1.00  0.00     0.173 HD
HETATM   44  O6  UNL     1      17.729  44.594  24.614  1.00  0.00    -0.246 OA
ENDBRANCH   3  36
TORSDOF 12
ENDMDL
MODEL 3
REMARK VINA RESULT: -6.609484644      3.303      7.350
REMARK  12 active torsions:
REMARK  status: ('A' for Active; 'I' for Inactive)
REMARK    1  A    between atoms: N1_1  and  N2_4 
REMARK       I    between atoms: N2_4  and  C1_6 
REMARK    2  A    between atoms: C1_6  and  C2_8 
REMARK    3  A    between atoms: C2_8  and  S1_9 
REMARK    4  A    between atoms: S1_9  and  C3_10 
REMARK    5  A    between atoms: C4_13  and  C5_14 
REMARK    6  A    between atoms: N4_18  and  C7_19 
REMARK    7  A    between atoms: C8_20  and  O4_21 
REMARK    8  A    between atoms: C9_23  and  N5_24 
REMARK    9  A    between atoms: C14_34  and  C15_35 
REMARK   10  A    between atoms: C15_35  and  O8_36 
REMARK   11  A    between atoms: C15_35  and  C16_38 
REMARK       I    between atoms: C16_38  and  N7_40 
REMARK   12  A    between atoms: N7_40  and  N8_42 
ROOT
HETATM    1  C7  UNL     1      18.791  41.355  21.981  1.00  0.00     0.156 C 
HETATM    2  C8  UNL     1      18.370  41.261  23.407  1.00  0.00     0.193 C 
HETATM    3  C9  UNL     1      19.207  42.463  23.901  1.00  0.00     0.263 C 
HETATM    4  O7  UNL     1      20.428  42.226  23.348  1.00  0.00    -0.353 OA
HETATM    5  C14 UNL     1      20.274  41.494  22.159  1.00  0.00     0.188 C 
ENDROOT
BRANCH   1   6
HETATM    6  N4  UNL     1      18.278  40.464  21.033  1.00  0.00    -0.325 N 
HETATM    7  C3  UNL     1      17.908  40.614  19.757  1.00  0.00     0.148 A 
HETATM    8  N3  UNL     1      17.508  39.420  19.288  1.00  0.00    -0.330 N 
HETATM    9  C4  UNL     1      17.617  38.499  20.247  1.00  0.00     0.127 A 
ATOM     10  H3  UNL     1      17.172  39.244  18.342  1.00  0.00     0.168 HD
HETATM   11  C6  UNL     1      18.095  39.149  21.334  1.00  0.00     0.130 A 
BRANCH   7  12
HETATM   12  S1  UNL     1      17.960  42.146  18.788  1.00  0.00    -0.084 SA
BRANCH  12  13
HETATM   13  C2  UNL     1      18.774  41.840  17.222  1.00  0.00     0.186 C 
BRANCH  13  14
HETATM   14  C1  UNL     1      17.769  41.559  16.182  1.00  0.00     0.245 C 
HETATM   15  N2  UNL     1      17.980  41.991  14.858  1.00  0.00    -0.276 N 
ATOM     16  H2  UNL     1      18.839  42.497  14.643  1.00  0.00     0.189 HD
HETATM   17  O1  UNL     1      16.727  40.939  16.461  1.00  0.00    -0.271 OA
BRANCH  15  18
HETATM   18  N1  UNL     1      17.072  41.758  13.829  1.00  0.00    -0.343 N 
ATOM     19  H12 UNL     1      17.377  41.163  13.059  1.00  0.00     0.176 HD
ATOM     20  H11 UNL     1      16.132  42.152  13.817  1.00  0.00     0.176 HD
ENDBRANCH  15  18
ENDBRANCH  13  14
ENDBRANCH  12  13
ENDBRANCH   7  12
BRANCH   9  21
HETATM   21  C5  UNL     1      17.287  37.082  20.152  1.00  0.00     0.228 C 
HETATM   22  O2  UNL     1      17.481  36.450  19.077  1.00  0.00    -0.643 OA
HETATM   23  O3  UNL     1      16.758  36.404  21.236  1.00  0.00    -0.643 OA
ENDBRANCH   9  21
ENDBRANCH   1   6
BRANCH   2  24
HETATM   24  O4  UNL     1      18.770  40.100  23.971  1.00  0.00    -0.389 OA
ATOM     25  H4  UNL     1      18.093  39.724  24.521  1.00  0.00     0.210 HD
ENDBRANCH   2  24
BRANCH   5  26
HETATM   26  C15 UNL     1      21.094  40.264  22.307  1.00  0.00     0.242 C 
BRANCH  26  27
HETATM   27  O8  UNL     1      21.580  39.754  21.079  1.00  0.00    -0.383 OA
ATOM     28  H8  UNL     1      22.331  40.227  20.740  1.00  0.00     0.210 HD
ENDBRANCH  26  27
BRANCH  26  29
HETATM   29  C16 UNL     1      22.366  40.596  23.056  1.00  0.00     0.267 C 
HETATM   30  O9  UNL     1      23.328  41.140  22.465  1.00  0.00    -0.269 OA
HETATM   31  N7  UNL     1      22.523  40.311  24.422  1.00  0.00    -0.274 N 
ATOM     32  H7  UNL     1      21.754  39.863  24.920  1.00  0.00     0.189 HD
BRANCH  31  33
HETATM   33  N8  UNL     1      23.689  40.616  25.127  1.00  0.00    -0.343 N 
ATOM     34  H82 UNL     1      24.136  41.513  24.937  1.00  0.00     0.176 HD
ATOM     35  H81 UNL     1      24.100  39.981  25.812  1.00  0.00     0.176 HD
ENDBRANCH  31  33
ENDBRANCH  26  29
ENDBRANCH   5  26
BRANCH   3  36
HETATM   36  N5  UNL     1      19.136  42.687  25.288  1.00  0.00    -0.280 N 
HETATM   37  C10 UNL     1      19.892  42.039  26.175  1.00  0.00     0.104 A 
HETATM   38  C11 UNL     1      19.757  42.317  27.510  1.00  0.00     0.092 A 
HETATM   39  C12 UNL     1      18.845  43.261  27.916  1.00  0.00     0.250 A 
HETATM   40  O5  UNL     1      18.731  43.509  29.149  1.00  0.00    -0.268 OA
HETATM   41  N6  UNL     1      18.081  43.919  27.029  1.00  0.00    -0.275 N 
HETATM   42  C13 UNL     1      18.264  43.597  25.739  1.00  0.00     0.331 A 
ATOM     43  H6  UNL     1      17.402  44.623  27.318  1.00  0.00     0.173 HD
HETATM   44  O6  UNL     1      17.519  44.242  24.919  1.00  0.00    -0.246 OA
ENDBRANCH   3  36
TORSDOF 12
ENDMDL
MODEL 4
REMARK VINA RESULT: -6.581290510      3.035      6.886
REMARK  12 active torsions:
REMARK  status: ('A' for Active; 'I' for Inactive)
REMARK    1  A    between atoms: N1_1  and  N2_4 
REMARK       I    between atoms: N2_4  and  C1_6 
REMARK    2  A    between atoms: C1_6  and  C2_8 
REMARK    3  A    between atoms: C2_8  and  S1_9 
REMARK    4  A    between atoms: S1_9  and  C3_10 
REMARK    5  A    between atoms: C4_13  and  C5_14 
REMARK    6  A    between atoms: N4_18  and  C7_19 
REMARK    7  A    between atoms: C8_20  and  O4_21 
REMARK    8  A    between atoms: C9_23  and  N5_24 
REMARK    9  A    between atoms: C14_34  and  C15_35 
REMARK   10  A    between atoms: C15_35  and  O8_36 
REMARK   11  A    between atoms: C15_35  and  C16_38 
REMARK       I    between atoms: C16_38  and  N7_40 
REMARK   12  A    between atoms: N7_40  and  N8_42 
ROOT
HETATM    1  C7  UNL     1      19.192  41.883  22.371  1.00  0.00     0.156 C 
HETATM    2  C8  UNL     1      19.192  41.160  23.674  1.00  0.00     0.193 C 
HETATM    3  C9  UNL     1      19.984  42.236  24.453  1.00  0.00     0.263 C 
HETATM    4  O7  UNL     1      21.026  42.504  23.620  1.00  0.00    -0.353 OA
HETATM    5  C14 UNL     1      20.639  42.267  22.289  1.00  0.00     0.188 C 
ENDROOT
BRANCH   1   6
HETATM    6  N4  UNL     1      18.548  41.331  21.259  1.00  0.00    -0.325 N 
HETATM    7  C3  UNL     1      17.710  40.299  21.118  1.00  0.00     0.148 A 
HETATM    8  N3  UNL     1      17.358  40.212  19.824  1.00  0.00    -0.330 N 
HETATM    9  C4  UNL     1      17.959  41.177  19.127  1.00  0.00     0.127 A 
ATOM     10  H3  UNL     1      16.726  39.513  19.434  1.00  0.00     0.168 HD
HETATM   11  C6  UNL     1      18.700  41.874  20.020  1.00  0.00     0.130 A 
BRANCH   7  12
HETATM   12  S1  UNL     1      17.105  39.209  22.435  1.00  0.00    -0.084 SA
BRANCH  12  13
HETATM   13  C2  UNL     1      17.793  37.569  22.223  1.00  0.00     0.186 C 
BRANCH  13  14
HETATM   14  C1  UNL     1      17.722  37.176  20.805  1.00  0.00     0.245 C 
HETATM   15  N2  UNL     1      16.490  36.795  20.237  1.00  0.00    -0.276 N 
ATOM     16  H2  UNL     1      15.660  36.800  20.828  1.00  0.00     0.189 HD
HETATM   17  O1  UNL     1      18.745  37.175  20.096  1.00  0.00    -0.271 OA
BRANCH  15  18
HETATM   18  N1  UNL     1      16.354  36.412  18.905  1.00  0.00    -0.343 N 
ATOM     19  H12 UNL     1      17.180  36.040  18.437  1.00  0.00     0.176 HD
ATOM     20  H11 UNL     1      15.476  36.489  18.392  1.00  0.00     0.176 HD
ENDBRANCH  15  18
ENDBRANCH  13  14
ENDBRANCH  12  13
ENDBRANCH   7  12
BRANCH   9  21
HETATM   21  C5  UNL     1      17.846  41.435  17.697  1.00  0.00     0.228 C 
HETATM   22  O2  UNL     1      16.720  41.660  17.173  1.00  0.00    -0.643 OA
HETATM   23  O3  UNL     1      18.968  41.438  16.887  1.00  0.00    -0.643 OA
ENDBRANCH   9  21
ENDBRANCH   1   6
BRANCH   2  24
HETATM   24  O4  UNL     1      19.866  39.992  23.598  1.00  0.00    -0.389 OA
ATOM     25  H4  UNL     1      19.324  39.295  23.246  1.00  0.00     0.210 HD
ENDBRANCH   2  24
BRANCH   5  26
HETATM   26  C15 UNL     1      21.608  41.289  21.733  1.00  0.00     0.242 C 
BRANCH  26  27
HETATM   27  O8  UNL     1      22.103  41.644  20.455  1.00  0.00    -0.383 OA
ATOM     28  H8  UNL     1      23.044  41.777  20.434  1.00  0.00     0.210 HD
ENDBRANCH  26  27
BRANCH  26  29
HETATM   29  C16 UNL     1      22.859  41.280  22.584  1.00  0.00     0.267 C 
HETATM   30  O9  UNL     1      23.726  42.174  22.448  1.00  0.00    -0.269 OA
HETATM   31  N7  UNL     1      23.100  40.285  23.545  1.00  0.00    -0.274 N 
ATOM     32  H7  UNL     1      22.409  39.546  23.668  1.00  0.00     0.189 HD
BRANCH  31  33
HETATM   33  N8  UNL     1      24.248  40.268  24.341  1.00  0.00    -0.343 N 
ATOM     34  H82 UNL     1      24.169  39.869  25.276  1.00  0.00     0.176 HD
ATOM     35  H81 UNL     1      25.145  40.634  24.021  1.00  0.00     0.176 HD
ENDBRANCH  31  33
ENDBRANCH  26  29
ENDBRANCH   5  26
BRANCH   3  36
HETATM   36  N5  UNL     1      20.270  41.891  25.787  1.00  0.00    -0.280 N 
HETATM   37  C10 UNL     1      21.411  41.316  26.168  1.00  0.00     0.104 A 
HETATM   38  C11 UNL     1      21.608  41.012  27.488  1.00  0.00     0.092 A 
HETATM   39  C12 UNL     1      20.626  41.304  28.404  1.00  0.00     0.250 A 
HETATM   40  O5  UNL     1      20.819  41.019  29.620  1.00  0.00    -0.268 OA
HETATM   41  N6  UNL     1      19.474  41.884  28.029  1.00  0.00    -0.275 N 
HETATM   42  C13 UNL     1      19.347  42.153  26.721  1.00  0.00     0.331 A 
ATOM     43  H6  UNL     1      18.738  42.107  28.700  1.00  0.00     0.173 HD
HETATM   44  O6  UNL     1      18.237  42.706  26.397  1.00  0.00    -0.246 OA
ENDBRANCH   3  36
TORSDOF 12
ENDMDL
MODEL 5
REMARK VINA RESULT: -6.563051472      3.227      4.801
REMARK  12 active torsions:
REMARK  status: ('A' for Active; 'I' for Inactive)
REMARK    1  A    between atoms: N1_1  and  N2_4 
REMARK       I    between atoms: N2_4  and  C1_6 
REMARK    2  A    between atoms: C1_6  and  C2_8 
REMARK    3  A    between atoms: C2_8  and  S1_9 
REMARK    4  A    between atoms: S1_9  and  C3_10 
REMARK    5  A    between atoms: C4_13  and  C5_14 
REMARK    6  A    between atoms: N4_18  and  C7_19 
REMARK    7  A    between atoms: C8_20  and  O4_21 
REMARK    8  A    between atoms: C9_23  and  N5_24 
REMARK    9  A    between atoms: C14_34  and  C15_35 
REMARK   10  A    between atoms: C15_35  and  O8_36 
REMARK   11  A    between atoms: C15_35  and  C16_38 
REMARK       I    between atoms: C16_38  and  N7_40 
REMARK   12  A    between atoms: N7_40  and  N8_42 
ROOT
HETATM    1  C7  UNL     1      18.676  40.771  19.561  1.00  0.00     0.156 C 
HETATM    2  C8  UNL     1      17.698  41.800  19.110  1.00  0.00     0.193 C 
HETATM    3  C9  UNL     1      17.810  41.477  17.602  1.00  0.00     0.263 C 
HETATM    4  O7  UNL     1      19.156  41.427  17.405  1.00  0.00    -0.353 OA
HETATM    5  C14 UNL     1      19.793  41.036  18.596  1.00  0.00     0.188 C 
ENDROOT
BRANCH   1   6
HETATM    6  N4  UNL     1      18.950  40.607  20.923  1.00  0.00    -0.325 N 
HETATM    7  C3  UNL     1      19.645  39.688  21.601  1.00  0.00     0.148 A 
HETATM    8  N3  UNL     1      19.620  40.015  22.905  1.00  0.00    -0.330 N 
HETATM    9  C4  UNL     1      18.918  41.135  23.076  1.00  0.00     0.127 A 
ATOM     10  H3  UNL     1      20.071  39.486  23.651  1.00  0.00     0.168 HD
HETATM   11  C6  UNL     1      18.500  41.504  21.842  1.00  0.00     0.130 A 
BRANCH   7  12
HETATM   12  S1  UNL     1      20.514  38.256  20.906  1.00  0.00    -0.084 SA
BRANCH  12  13
HETATM   13  C2  UNL     1      19.339  37.175  20.094  1.00  0.00     0.186 C 
BRANCH  13  14
HETATM   14  C1  UNL     1      18.150  36.997  20.946  1.00  0.00     0.245 C 
HETATM   15  N2  UNL     1      16.926  37.592  20.586  1.00  0.00    -0.276 N 
ATOM     16  H2  UNL     1      16.886  38.143  19.729  1.00  0.00     0.189 HD
HETATM   17  O1  UNL     1      18.215  36.321  21.989  1.00  0.00    -0.271 OA
BRANCH  15  18
HETATM   18  N1  UNL     1      15.766  37.464  21.345  1.00  0.00    -0.343 N 
ATOM     19  H12 UNL     1      15.374  38.314  21.751  1.00  0.00     0.176 HD
ATOM     20  H11 UNL     1      15.303  36.570  21.508  1.00  0.00     0.176 HD
ENDBRANCH  15  18
ENDBRANCH  13  14
ENDBRANCH  12  13
ENDBRANCH   7  12
BRANCH   9  21
HETATM   21  C5  UNL     1      18.649  41.827  24.330  1.00  0.00     0.228 C 
HETATM   22  O2  UNL     1      19.002  41.318  25.431  1.00  0.00    -0.643 OA
HETATM   23  O3  UNL     1      18.005  43.051  24.341  1.00  0.00    -0.643 OA
ENDBRANCH   9  21
ENDBRANCH   1   6
BRANCH   2  24
HETATM   24  O4  UNL     1      18.122  43.051  19.392  1.00  0.00    -0.389 OA
ATOM     25  H4  UNL     1      17.394  43.646  19.532  1.00  0.00     0.210 HD
ENDBRANCH   2  24
BRANCH   5  26
HETATM   26  C15 UNL     1      20.780  42.098  18.918  1.00  0.00     0.242 C 
BRANCH  26  27
HETATM   27  O8  UNL     1      22.024  41.599  19.370  1.00  0.00    -0.383 OA
ATOM     28  H8  UNL     1      22.751  42.192  19.220  1.00  0.00     0.210 HD
ENDBRANCH  26  27
BRANCH  26  29
HETATM   29  C16 UNL     1      21.157  42.835  17.652  1.00  0.00     0.267 C 
HETATM   30  O9  UNL     1      22.145  42.470  16.974  1.00  0.00    -0.269 OA
HETATM   31  N7  UNL     1      20.430  43.944  17.190  1.00  0.00    -0.274 N 
ATOM     32  H7  UNL     1      19.625  44.262  17.731  1.00  0.00     0.189 HD
BRANCH  31  33
HETATM   33  N8  UNL     1      20.764  44.631  16.021  1.00  0.00    -0.343 N 
ATOM     34  H82 UNL     1      21.741  44.893  15.888  1.00  0.00     0.176 HD
ATOM     35  H81 UNL     1      20.075  44.874  15.309  1.00  0.00     0.176 HD
ENDBRANCH  31  33
ENDBRANCH  26  29
ENDBRANCH   5  26
BRANCH   3  36
HETATM   36  N5  UNL     1      17.046  42.318  16.772  1.00  0.00    -0.280 N 
HETATM   37  C10 UNL     1      16.882  43.621  17.001  1.00  0.00     0.104 A 
HETATM   38  C11 UNL     1      16.120  44.368  16.142  1.00  0.00     0.092 A 
HETATM   39  C12 UNL     1      15.535  43.764  15.055  1.00  0.00     0.250 A 
HETATM   40  O5  UNL     1      14.836  44.464  14.270  1.00  0.00    -0.268 OA
HETATM   41  N6  UNL     1      15.697  42.452  14.817  1.00  0.00    -0.275 N 
HETATM   42  C13 UNL     1      16.454  41.781  15.698  1.00  0.00     0.331 A 
ATOM     43  H6  UNL     1      15.270  41.992  14.012  1.00  0.00     0.173 HD
HETATM   44  O6  UNL     1      16.588  40.532  15.442  1.00  0.00    -0.246 OA
ENDBRANCH   3  36
TORSDOF 12
ENDMDL
