MODEL 1
REMARK VINA RESULT: -7.115981902      0.000      0.000
REMARK  9 active torsions:
REMARK  status: ('A' for Active; 'I' for Inactive)
REMARK    1  A    between atoms: C2_5  and  N2_6 
REMARK       I    between atoms: N2_6  and  C3_8 
REMARK    2  A    between atoms: C3_8  and  C4_10 
REMARK    3  A    between atoms: C4_10  and  N3_11 
REMARK    4  A    between atoms: C4_10  and  C5_15 
REMARK    5  A    between atoms: C8_22  and  C9_23 
REMARK    6  A    between atoms: N7_28  and  C10_29 
REMARK    7  A    between atoms: C10_29  and  C11_30 
REMARK    8  A    between atoms: C11_30  and  N8_31 
REMARK    9  A    between atoms: C15_43  and  C16_44 
ROOT
HETATM    1  N1  UNL     1      17.427  39.918  18.803  1.00  0.00    -0.387 N 
ATOM      2  H11 UNL     1      16.812  39.242  19.256  1.00  0.00     0.157 HD
ATOM      3  H12 UNL     1      16.888  39.747  17.954  1.00  0.00     0.157 HD
HETATM    4  C1  UNL     1      18.412  40.653  19.114  1.00  0.00     0.106 C 
HETATM    5  C2  UNL     1      19.320  41.652  18.446  1.00  0.00     0.202 C 
HETATM    6  C6  UNL     1      19.263  42.285  19.815  1.00  0.00     0.323 C 
HETATM    7  N4  UNL     1      20.534  42.809  20.305  1.00  0.00    -0.047 N 
ATOM      8  H41 UNL     1      20.782  43.720  19.919  1.00  0.00     0.280 HD
ATOM      9  H42 UNL     1      21.350  42.307  19.954  1.00  0.00     0.280 HD
HETATM   10  C7  UNL     1      20.414  42.797  21.735  1.00  0.00     0.280 C 
HETATM   11  C8  UNL     1      20.379  41.356  22.235  1.00  0.00     0.048 C 
HETATM   12  C15 UNL     1      19.760  40.469  21.506  1.00  0.00     0.127 C 
HETATM   13  N13 UNL     1      19.150  40.888  20.279  1.00  0.00    -0.297 N 
ENDROOT
BRANCH  11  14
HETATM   14  C9  UNL     1      20.983  41.121  23.535  1.00  0.00     0.147 A 
HETATM   15  N5  UNL     1      21.986  40.358  23.929  1.00  0.00    -0.268 N 
HETATM   16  N6  UNL     1      22.157  40.505  25.244  1.00  0.00    -0.224 N 
ATOM     17  H5  UNL     1      22.542  39.754  23.324  1.00  0.00     0.190 HD
HETATM   18  N7  UNL     1      21.264  41.359  25.700  1.00  0.00    -0.216 N 
ATOM     19  H6  UNL     1      22.863  40.030  25.807  1.00  0.00     0.210 HD
HETATM   20  N12 UNL     1      20.550  41.740  24.680  1.00  0.00    -0.266 N 
ATOM     21  H12 UNL     1      19.778  42.405  24.726  1.00  0.00     0.190 HD
BRANCH  18  22
HETATM   22  C10 UNL     1      21.072  41.832  27.093  1.00  0.00     0.191 C 
BRANCH  22  23
HETATM   23  C11 UNL     1      21.622  40.801  28.001  1.00  0.00     0.149 C 
BRANCH  23  24
HETATM   24  N8  UNL     1      20.953  40.502  29.206  1.00  0.00    -0.344 N 
HETATM   25  C12 UNL     1      20.756  41.657  30.131  1.00  0.00     0.229 C 
HETATM   26  C13 UNL     1      19.463  41.480  30.838  1.00  0.00     0.254 C 
HETATM   27  O2  UNL     1      18.800  42.501  31.138  1.00  0.00    -0.270 OA
HETATM   28  N9  UNL     1      19.011  40.172  31.155  1.00  0.00    -0.266 N 
HETATM   29  N10 UNL     1      19.540  39.085  30.495  1.00  0.00    -0.271 N 
ATOM     30  H9  UNL     1      18.295  40.036  31.869  1.00  0.00     0.190 HD
HETATM   31  C14 UNL     1      20.457  39.244  29.575  1.00  0.00     0.205 C 
ATOM     32  H10 UNL     1      19.214  38.147  30.725  1.00  0.00     0.189 HD
HETATM   33  N11 UNL     1      20.960  38.080  28.941  1.00  0.00    -0.062 NA
ENDBRANCH  23  24
ENDBRANCH  22  23
ENDBRANCH  18  22
ENDBRANCH  11  14
BRANCH  12  34
HETATM   34  C16 UNL     1      19.683  39.073  21.898  1.00  0.00     0.227 C 
HETATM   35  O3  UNL     1      20.714  38.319  21.689  1.00  0.00    -0.643 OA
HETATM   36  O4  UNL     1      18.618  38.454  22.482  1.00  0.00    -0.643 OA
ENDBRANCH  12  34
BRANCH   5  37
HETATM   37  N2  UNL     1      18.697  42.404  17.407  1.00  0.00    -0.344 N 
HETATM   38  C3  UNL     1      18.972  42.145  16.052  1.00  0.00     0.249 C 
HETATM   39  O1  UNL     1      19.783  41.236  15.757  1.00  0.00    -0.271 OA
ATOM     40  H2  UNL     1      18.039  43.144  17.651  1.00  0.00     0.163 HD
BRANCH  38  41
HETATM   41  C4  UNL     1      18.336  42.913  14.957  1.00  0.00     0.284 C 
BRANCH  41  42
HETATM   42  N3  UNL     1      19.298  43.232  13.923  1.00  0.00    -0.066 N 
ATOM     43  H33 UNL     1      19.607  44.202  13.984  1.00  0.00     0.275 HD
ATOM     44  H32 UNL     1      20.194  42.775  14.087  1.00  0.00     0.275 HD
ATOM     45  H31 UNL     1      18.926  43.012  12.999  1.00  0.00     0.275 HD
ENDBRANCH  41  42
BRANCH  41  46
HETATM   46  C5  UNL     1      17.244  42.095  14.302  1.00  0.00     0.128 C 
HETATM   47  S1  UNL     1      15.699  42.416  15.227  1.00  0.00    -0.095 SA
ENDBRANCH  41  46
ENDBRANCH  38  41
ENDBRANCH   5  37
TORSDOF 9
ENDMDL
MODEL 2
REMARK VINA RESULT: -7.111189706      4.154      4.799
REMARK  9 active torsions:
REMARK  status: ('A' for Active; 'I' for Inactive)
REMARK    1  A    between atoms: C2_5  and  N2_6 
REMARK       I    between atoms: N2_6  and  C3_8 
REMARK    2  A    between atoms: C3_8  and  C4_10 
REMARK    3  A    between atoms: C4_10  and  N3_11 
REMARK    4  A    between atoms: C4_10  and  C5_15 
REMARK    5  A    between atoms: C8_22  and  C9_23 
REMARK    6  A    between atoms: N7_28  and  C10_29 
REMARK    7  A    between atoms: C10_29  and  C11_30 
REMARK    8  A    between atoms: C11_30  and  N8_31 
REMARK    9  A    between atoms: C15_43  and  C16_44 
ROOT
HETATM    1  N1  UNL     1      16.993  40.998  22.515  1.00  0.00    -0.387 N 
ATOM      2  H11 UNL     1      16.454  41.860  22.593  1.00  0.00     0.157 HD
ATOM      3  H12 UNL     1      16.241  40.656  21.916  1.00  0.00     0.157 HD
HETATM    4  C1  UNL     1      18.089  40.528  22.944  1.00  0.00     0.106 C 
HETATM    5  C2  UNL     1      18.884  39.253  22.829  1.00  0.00     0.202 C 
HETATM    6  C6  UNL     1      20.035  40.227  22.899  1.00  0.00     0.323 C 
HETATM    7  N4  UNL     1      21.159  39.794  23.724  1.00  0.00    -0.047 N 
ATOM      8  H41 UNL     1      21.779  39.129  23.262  1.00  0.00     0.280 HD
ATOM      9  H42 UNL     1      20.892  39.186  24.499  1.00  0.00     0.280 HD
HETATM   10  C7  UNL     1      21.808  41.007  24.134  1.00  0.00     0.280 C 
HETATM   11  C8  UNL     1      20.904  41.774  25.095  1.00  0.00     0.048 C 
HETATM   12  C15 UNL     1      19.618  41.745  24.882  1.00  0.00     0.127 C 
HETATM   13  N13 UNL     1      19.120  40.997  23.765  1.00  0.00    -0.297 N 
ENDROOT
BRANCH  11  14
HETATM   14  C9  UNL     1      21.581  42.538  26.128  1.00  0.00     0.147 A 
HETATM   15  N5  UNL     1      22.275  43.662  26.097  1.00  0.00    -0.268 N 
HETATM   16  N6  UNL     1      22.687  43.955  27.332  1.00  0.00    -0.224 N 
ATOM     17  H5  UNL     1      22.464  44.217  25.263  1.00  0.00     0.190 HD
HETATM   18  N7  UNL     1      22.262  43.022  28.158  1.00  0.00    -0.216 N 
ATOM     19  H6  UNL     1      23.243  44.770  27.593  1.00  0.00     0.210 HD
HETATM   20  N12 UNL     1      21.593  42.162  27.447  1.00  0.00    -0.266 N 
ATOM     21  H12 UNL     1      21.142  41.326  27.817  1.00  0.00     0.190 HD
BRANCH  18  22
HETATM   22  C10 UNL     1      22.474  42.927  29.624  1.00  0.00     0.191 C 
BRANCH  22  23
HETATM   23  C11 UNL     1      22.586  41.493  29.974  1.00  0.00     0.149 C 
BRANCH  23  24
HETATM   24  N8  UNL     1      21.455  40.800  30.453  1.00  0.00    -0.344 N 
HETATM   25  C12 UNL     1      20.734  41.458  31.583  1.00  0.00     0.229 C 
HETATM   26  C13 UNL     1      19.284  41.175  31.444  1.00  0.00     0.254 C 
HETATM   27  O2  UNL     1      18.465  42.047  31.818  1.00  0.00    -0.270 OA
HETATM   28  N9  UNL     1      18.861  39.934  30.896  1.00  0.00    -0.266 N 
HETATM   29  N10 UNL     1      19.741  39.177  30.155  1.00  0.00    -0.271 N 
ATOM     30  H9  UNL     1      17.908  39.605  31.051  1.00  0.00     0.190 HD
HETATM   31  C14 UNL     1      20.965  39.588  29.948  1.00  0.00     0.205 C 
ATOM     32  H10 UNL     1      19.435  38.287  29.764  1.00  0.00     0.189 HD
HETATM   33  N11 UNL     1      21.817  38.754  29.180  1.00  0.00    -0.062 NA
ENDBRANCH  23  24
ENDBRANCH  22  23
ENDBRANCH  18  22
ENDBRANCH  11  14
BRANCH  12  34
HETATM   34  C16 UNL     1      18.682  42.437  25.749  1.00  0.00     0.227 C 
HETATM   35  O3  UNL     1      18.056  43.466  25.279  1.00  0.00    -0.643 OA
HETATM   36  O4  UNL     1      18.380  42.110  27.039  1.00  0.00    -0.643 OA
ENDBRANCH  12  34
BRANCH   5  37
HETATM   37  N2  UNL     1      18.736  38.584  21.579  1.00  0.00    -0.344 N 
HETATM   38  C3  UNL     1      18.107  37.328  21.492  1.00  0.00     0.249 C 
HETATM   39  O1  UNL     1      17.673  36.791  22.538  1.00  0.00    -0.271 OA
ATOM     40  H2  UNL     1      19.093  39.024  20.731  1.00  0.00     0.163 HD
BRANCH  38  41
HETATM   41  C4  UNL     1      17.942  36.615  20.206  1.00  0.00     0.284 C 
BRANCH  41  42
HETATM   42  N3  UNL     1      17.210  37.426  19.255  1.00  0.00    -0.066 N 
ATOM     43  H33 UNL     1      16.345  36.973  18.962  1.00  0.00     0.275 HD
ATOM     44  H32 UNL     1      16.809  38.254  19.696  1.00  0.00     0.275 HD
ATOM     45  H31 UNL     1      17.797  37.672  18.458  1.00  0.00     0.275 HD
ENDBRANCH  41  42
BRANCH  41  46
HETATM   46  C5  UNL     1      19.292  36.323  19.585  1.00  0.00     0.128 C 
HETATM   47  S1  UNL     1      20.099  35.050  20.621  1.00  0.00    -0.095 SA
ENDBRANCH  41  46
ENDBRANCH  38  41
ENDBRANCH   5  37
TORSDOF 9
ENDMDL
MODEL 3
REMARK VINA RESULT: -7.056674171      5.371      6.866
REMARK  9 active torsions:
REMARK  status: ('A' for Active; 'I' for Inactive)
REMARK    1  A    between atoms: C2_5  and  N2_6 
REMARK       I    between atoms: N2_6  and  C3_8 
REMARK    2  A    between atoms: C3_8  and  C4_10 
REMARK    3  A    between atoms: C4_10  and  N3_11 
REMARK    4  A    between atoms: C4_10  and  C5_15 
REMARK    5  A    between atoms: C8_22  and  C9_23 
REMARK    6  A    between atoms: N7_28  and  C10_29 
REMARK    7  A    between atoms: C10_29  and  C11_30 
REMARK    8  A    between atoms: C11_30  and  N8_31 
REMARK    9  A    between atoms: C15_43  and  C16_44 
ROOT
HETATM    1  N1  UNL     1      16.987  46.096  16.079  1.00  0.00    -0.387 N 
ATOM      2  H11 UNL     1      17.693  46.818  16.218  1.00  0.00     0.157 HD
ATOM      3  H12 UNL     1      16.429  46.818  15.621  1.00  0.00     0.157 HD
HETATM    4  C1  UNL     1      16.832  44.865  16.336  1.00  0.00     0.106 C 
HETATM    5  C2  UNL     1      15.788  43.798  16.131  1.00  0.00     0.202 C 
HETATM    6  C6  UNL     1      17.018  42.936  15.983  1.00  0.00     0.323 C 
HETATM    7  N4  UNL     1      16.933  41.628  16.625  1.00  0.00    -0.047 N 
ATOM      8  H41 UNL     1      16.411  40.936  16.087  1.00  0.00     0.280 HD
ATOM      9  H42 UNL     1      16.335  41.611  17.451  1.00  0.00     0.280 HD
HETATM   10  C7  UNL     1      18.295  41.254  16.886  1.00  0.00     0.280 C 
HETATM   11  C8  UNL     1      18.881  42.168  17.958  1.00  0.00     0.048 C 
HETATM   12  C15 UNL     1      18.521  43.421  17.960  1.00  0.00     0.127 C 
HETATM   13  N13 UNL     1      17.598  43.875  16.963  1.00  0.00    -0.297 N 
ENDROOT
BRANCH  11  14
HETATM   14  C9  UNL     1      19.860  41.559  18.843  1.00  0.00     0.147 A 
HETATM   15  N5  UNL     1      21.148  41.778  19.036  1.00  0.00    -0.268 N 
HETATM   16  N6  UNL     1      21.596  40.948  19.979  1.00  0.00    -0.224 N 
ATOM     17  H5  UNL     1      21.710  42.472  18.541  1.00  0.00     0.190 HD
HETATM   18  N7  UNL     1      20.600  40.194  20.395  1.00  0.00    -0.216 N 
ATOM     19  H6  UNL     1      22.556  40.905  20.322  1.00  0.00     0.210 HD
HETATM   20  N12 UNL     1      19.547  40.551  19.719  1.00  0.00    -0.266 N 
ATOM     21  H12 UNL     1      18.620  40.140  19.826  1.00  0.00     0.190 HD
BRANCH  18  22
HETATM   22  C10 UNL     1      20.623  39.131  21.431  1.00  0.00     0.191 C 
BRANCH  22  23
HETATM   23  C11 UNL     1      20.090  37.892  20.821  1.00  0.00     0.149 C 
BRANCH  23  24
HETATM   24  N8  UNL     1      18.763  37.496  21.089  1.00  0.00    -0.344 N 
HETATM   25  C12 UNL     1      18.186  38.015  22.364  1.00  0.00     0.229 C 
HETATM   26  C13 UNL     1      16.737  38.262  22.159  1.00  0.00     0.254 C 
HETATM   27  O2  UNL     1      16.199  39.214  22.772  1.00  0.00    -0.270 OA
HETATM   28  N9  UNL     1      16.000  37.423  21.281  1.00  0.00    -0.266 N 
HETATM   29  N10 UNL     1      16.664  36.656  20.349  1.00  0.00    -0.271 N 
ATOM     30  H9  UNL     1      14.983  37.388  21.341  1.00  0.00     0.190 HD
HETATM   31  C14 UNL     1      17.968  36.693  20.261  1.00  0.00     0.205 C 
ATOM     32  H10 UNL     1      16.132  36.054  19.722  1.00  0.00     0.189 HD
HETATM   33  N11 UNL     1      18.583  35.872  19.280  1.00  0.00    -0.062 NA
ENDBRANCH  23  24
ENDBRANCH  22  23
ENDBRANCH  18  22
ENDBRANCH  11  14
BRANCH  12  34
HETATM   34  C16 UNL     1      19.021  44.360  18.948  1.00  0.00     0.227 C 
HETATM   35  O3  UNL     1      18.199  44.807  19.841  1.00  0.00    -0.643 OA
HETATM   36  O4  UNL     1      20.297  44.833  19.042  1.00  0.00    -0.643 OA
ENDBRANCH  12  34
BRANCH   5  37
HETATM   37  N2  UNL     1      15.017  43.958  14.943  1.00  0.00    -0.344 N 
HETATM   38  C3  UNL     1      14.194  42.923  14.461  1.00  0.00     0.249 C 
HETATM   39  O1  UNL     1      14.143  41.841  15.091  1.00  0.00    -0.271 OA
ATOM     40  H2  UNL     1      15.062  44.839  14.432  1.00  0.00     0.163 HD
BRANCH  38  41
HETATM   41  C4  UNL     1      13.384  43.067  13.230  1.00  0.00     0.284 C 
BRANCH  41  42
HETATM   42  N3  UNL     1      13.266  41.801  12.538  1.00  0.00    -0.066 N 
ATOM     43  H33 UNL     1      13.055  41.931  11.549  1.00  0.00     0.275 HD
ATOM     44  H32 UNL     1      14.169  41.337  12.443  1.00  0.00     0.275 HD
ATOM     45  H31 UNL     1      12.580  41.199  12.994  1.00  0.00     0.275 HD
ENDBRANCH  41  42
BRANCH  41  46
HETATM   46  C5  UNL     1      11.978  43.514  13.571  1.00  0.00     0.128 C 
HETATM   47  S1  UNL     1      10.899  42.043  13.448  1.00  0.00    -0.095 SA
ENDBRANCH  41  46
ENDBRANCH  38  41
ENDBRANCH   5  37
TORSDOF 9
ENDMDL
MODEL 4
REMARK VINA RESULT: -6.998075456      1.142      1.272
REMARK  9 active torsions:
REMARK  status: ('A' for Active; 'I' for Inactive)
REMARK    1  A    between atoms: C2_5  and  N2_6 
REMARK       I    between atoms: N2_6  and  C3_8 
REMARK    2  A    between atoms: C3_8  and  C4_10 
REMARK    3  A    between atoms: C4_10  and  N3_11 
REMARK    4  A    between atoms: C4_10  and  C5_15 
REMARK    5  A    between atoms: C8_22  and  C9_23 
REMARK    6  A    between atoms: N7_28  and  C10_29 
REMARK    7  A    between atoms: C10_29  and  C11_30 
REMARK    8  A    between atoms: C11_30  and  N8_31 
REMARK    9  A    between atoms: C15_43  and  C16_44 
ROOT
HETATM    1  N1  UNL     1      17.447  40.148  18.981  1.00  0.00    -0.387 N 
ATOM      2  H11 UNL     1      16.841  39.417  19.354  1.00  0.00     0.157 HD
ATOM      3  H12 UNL     1      17.101  39.878  18.060  1.00  0.00     0.157 HD
HETATM    4  C1  UNL     1      18.264  41.011  19.421  1.00  0.00     0.106 C 
HETATM    5  C2  UNL     1      19.159  42.091  18.870  1.00  0.00     0.202 C 
HETATM    6  C6  UNL     1      18.772  42.763  20.165  1.00  0.00     0.323 C 
HETATM    7  N4  UNL     1      19.860  43.460  20.845  1.00  0.00    -0.047 N 
ATOM      8  H41 UNL     1      20.068  44.380  20.456  1.00  0.00     0.280 HD
ATOM      9  H42 UNL     1      20.779  43.052  20.679  1.00  0.00     0.280 HD
HETATM   10  C7  UNL     1      19.475  43.487  22.228  1.00  0.00     0.280 C 
HETATM   11  C8  UNL     1      19.514  42.073  22.799  1.00  0.00     0.048 C 
HETATM   12  C15 UNL     1      19.151  41.088  22.025  1.00  0.00     0.127 C 
HETATM   13  N13 UNL     1      18.738  41.382  20.684  1.00  0.00    -0.297 N 
ENDROOT
BRANCH  11  14
HETATM   14  C9  UNL     1      19.886  41.965  24.199  1.00  0.00     0.147 A 
HETATM   15  N5  UNL     1      21.033  41.707  24.801  1.00  0.00    -0.268 N 
HETATM   16  N6  UNL     1      20.848  41.730  26.122  1.00  0.00    -0.224 N 
ATOM     17  H5  UNL     1      21.919  41.521  24.331  1.00  0.00     0.190 HD
HETATM   18  N7  UNL     1      19.585  42.001  26.374  1.00  0.00    -0.216 N 
ATOM     19  H6  UNL     1      21.570  41.564  26.824  1.00  0.00     0.210 HD
HETATM   20  N12 UNL     1      18.992  42.146  25.224  1.00  0.00    -0.266 N 
ATOM     21  H12 UNL     1      18.004  42.364  25.102  1.00  0.00     0.190 HD
BRANCH  18  22
HETATM   22  C10 UNL     1      18.917  42.131  27.693  1.00  0.00     0.191 C 
BRANCH  22  23
HETATM   23  C11 UNL     1      19.971  42.158  28.733  1.00  0.00     0.149 C 
BRANCH  23  24
HETATM   24  N8  UNL     1      20.005  41.151  29.719  1.00  0.00    -0.344 N 
HETATM   25  C12 UNL     1      19.517  41.561  31.069  1.00  0.00     0.229 C 
HETATM   26  C13 UNL     1      18.844  40.398  31.699  1.00  0.00     0.254 C 
HETATM   27  O2  UNL     1      17.868  40.610  32.458  1.00  0.00    -0.270 OA
HETATM   28  N9  UNL     1      19.315  39.085  31.431  1.00  0.00    -0.266 N 
HETATM   29  N10 UNL     1      20.107  38.853  30.329  1.00  0.00    -0.271 N 
ATOM     30  H9  UNL     1      19.067  38.315  32.053  1.00  0.00     0.190 HD
HETATM   31  C14 UNL     1      20.432  39.830  29.523  1.00  0.00     0.205 C 
ATOM     32  H10 UNL     1      20.445  37.910  30.140  1.00  0.00     0.189 HD
HETATM   33  N11 UNL     1      21.256  39.518  28.411  1.00  0.00    -0.062 NA
ENDBRANCH  23  24
ENDBRANCH  22  23
ENDBRANCH  18  22
ENDBRANCH  11  14
BRANCH  12  34
HETATM   34  C16 UNL     1      19.165  39.710  22.480  1.00  0.00     0.227 C 
HETATM   35  O3  UNL     1      20.189  38.977  22.185  1.00  0.00    -0.643 OA
HETATM   36  O4  UNL     1      18.193  39.088  23.207  1.00  0.00    -0.643 OA
ENDBRANCH  12  34
BRANCH   5  37
HETATM   37  N2  UNL     1      18.659  42.719  17.692  1.00  0.00    -0.344 N 
HETATM   38  C3  UNL     1      19.015  42.258  16.411  1.00  0.00     0.249 C 
HETATM   39  O1  UNL     1      19.790  41.278  16.309  1.00  0.00    -0.271 OA
ATOM     40  H2  UNL     1      18.030  43.517  17.779  1.00  0.00     0.163 HD
BRANCH  38  41
HETATM   41  C4  UNL     1      18.508  42.894  15.174  1.00  0.00     0.284 C 
BRANCH  41  42
HETATM   42  N3  UNL     1      19.570  43.060  14.204  1.00  0.00    -0.066 N 
ATOM     43  H33 UNL     1      19.906  44.022  14.175  1.00  0.00     0.275 HD
ATOM     44  H32 UNL     1      20.431  42.605  14.506  1.00  0.00     0.275 HD
ATOM     45  H31 UNL     1      19.276  42.735  13.283  1.00  0.00     0.275 HD
ENDBRANCH  41  42
BRANCH  41  46
HETATM   46  C5  UNL     1      17.453  42.023  14.525  1.00  0.00     0.128 C 
HETATM   47  S1  UNL     1      15.852  42.443  15.304  1.00  0.00    -0.095 SA
ENDBRANCH  41  46
ENDBRANCH  38  41
ENDBRANCH   5  37
TORSDOF 9
ENDMDL
MODEL 5
REMARK VINA RESULT: -6.983083191      1.969      2.157
REMARK  9 active torsions:
REMARK  status: ('A' for Active; 'I' for Inactive)
REMARK    1  A    between atoms: C2_5  and  N2_6 
REMARK       I    between atoms: N2_6  and  C3_8 
REMARK    2  A    between atoms: C3_8  and  C4_10 
REMARK    3  A    between atoms: C4_10  and  N3_11 
REMARK    4  A    between atoms: C4_10  and  C5_15 
REMARK    5  A    between atoms: C8_22  and  C9_23 
REMARK    6  A    between atoms: N7_28  and  C10_29 
REMARK    7  A    between atoms: C10_29  and  C11_30 
REMARK    8  A    between atoms: C11_30  and  N8_31 
REMARK    9  A    between atoms: C15_43  and  C16_44 
ROOT
HETATM    1  N1  UNL     1      18.141  41.436  19.448  1.00  0.00    -0.387 N 
ATOM      2  H11 UNL     1      17.239  41.560  19.906  1.00  0.00     0.157 HD
ATOM      3  H12 UNL     1      17.625  41.450  18.567  1.00  0.00     0.157 HD
HETATM    4  C1  UNL     1      19.359  41.317  19.778  1.00  0.00     0.106 C 
HETATM    5  C2  UNL     1      20.692  41.134  19.101  1.00  0.00     0.202 C 
HETATM    6  C6  UNL     1      21.147  41.991  20.257  1.00  0.00     0.323 C 
HETATM    7  N4  UNL     1      22.412  41.588  20.862  1.00  0.00    -0.047 N 
ATOM      8  H41 UNL     1      23.235  41.892  20.341  1.00  0.00     0.280 HD
ATOM      9  H42 UNL     1      22.599  40.586  20.800  1.00  0.00     0.280 HD
HETATM   10  C7  UNL     1      22.357  42.088  22.206  1.00  0.00     0.280 C 
HETATM   11  C8  UNL     1      21.297  41.323  22.994  1.00  0.00     0.048 C 
HETATM   12  C15 UNL     1      20.210  40.963  22.372  1.00  0.00     0.127 C 
HETATM   13  N13 UNL     1      20.066  41.299  20.986  1.00  0.00    -0.297 N 
ENDROOT
BRANCH  11  14
HETATM   14  C9  UNL     1      21.574  41.133  24.408  1.00  0.00     0.147 A 
HETATM   15  N5  UNL     1      22.309  40.254  25.064  1.00  0.00    -0.268 N 
HETATM   16  N6  UNL     1      22.241  40.515  26.370  1.00  0.00    -0.224 N 
ATOM     17  H5  UNL     1      22.844  39.496  24.639  1.00  0.00     0.190 HD
HETATM   18  N7  UNL     1      21.463  41.560  26.559  1.00  0.00    -0.216 N 
ATOM     19  H6  UNL     1      22.716  39.989  27.105  1.00  0.00     0.210 HD
HETATM   20  N12 UNL     1      21.054  41.944  25.385  1.00  0.00    -0.266 N 
ATOM     21  H12 UNL     1      20.434  42.736  25.214  1.00  0.00     0.190 HD
BRANCH  18  22
HETATM   22  C10 UNL     1      21.096  42.214  27.840  1.00  0.00     0.191 C 
BRANCH  22  23
HETATM   23  C11 UNL     1      21.753  41.465  28.935  1.00  0.00     0.149 C 
BRANCH  23  24
HETATM   24  N8  UNL     1      20.969  40.736  29.852  1.00  0.00    -0.344 N 
HETATM   25  C12 UNL     1      20.522  41.497  31.057  1.00  0.00     0.229 C 
HETATM   26  C13 UNL     1      19.175  41.011  31.448  1.00  0.00     0.254 C 
HETATM   27  O2  UNL     1      18.367  41.826  31.951  1.00  0.00    -0.270 OA
HETATM   28  N9  UNL     1      18.836  39.646  31.245  1.00  0.00    -0.266 N 
HETATM   29  N10 UNL     1      19.568  38.882  30.364  1.00  0.00    -0.271 N 
ATOM     30  H9  UNL     1      18.053  39.233  31.751  1.00  0.00     0.190 HD
HETATM   31  C14 UNL     1      20.575  39.399  29.708  1.00  0.00     0.205 C 
ATOM     32  H10 UNL     1      19.324  37.903  30.222  1.00  0.00     0.189 HD
HETATM   33  N11 UNL     1      21.286  38.551  28.821  1.00  0.00    -0.062 NA
ENDBRANCH  23  24
ENDBRANCH  22  23
ENDBRANCH  18  22
ENDBRANCH  11  14
BRANCH  12  34
HETATM   34  C16 UNL     1      19.153  40.225  23.039  1.00  0.00     0.227 C 
HETATM   35  O3  UNL     1      18.842  39.054  22.586  1.00  0.00    -0.643 OA
HETATM   36  O4  UNL     1      18.435  40.641  24.121  1.00  0.00    -0.643 OA
ENDBRANCH  12  34
BRANCH   5  37
HETATM   37  N2  UNL     1      20.785  41.751  17.819  1.00  0.00    -0.344 N 
HETATM   38  C3  UNL     1      22.007  41.812  17.124  1.00  0.00     0.249 C 
HETATM   39  O1  UNL     1      23.031  41.313  17.647  1.00  0.00    -0.271 OA
ATOM     40  H2  UNL     1      19.949  42.157  17.398  1.00  0.00     0.163 HD
BRANCH  38  41
HETATM   41  C4  UNL     1      22.126  42.447  15.792  1.00  0.00     0.284 C 
BRANCH  41  42
HETATM   42  N3  UNL     1      23.101  41.755  14.974  1.00  0.00    -0.066 N 
ATOM     43  H33 UNL     1      22.702  40.924  14.537  1.00  0.00     0.275 HD
ATOM     44  H32 UNL     1      23.326  42.281  14.130  1.00  0.00     0.275 HD
ATOM     45  H31 UNL     1      23.937  41.533  15.514  1.00  0.00     0.275 HD
ENDBRANCH  41  42
BRANCH  41  46
HETATM   46  C5  UNL     1      20.806  42.381  15.053  1.00  0.00     0.128 C 
HETATM   47  S1  UNL     1      20.827  43.704  13.791  1.00  0.00    -0.095 SA
ENDBRANCH  41  46
ENDBRANCH  38  41
ENDBRANCH   5  37
TORSDOF 9
ENDMDL
