MODEL 1
REMARK VINA RESULT: -5.240208871      0.000      0.000
REMARK  3 active torsions:
REMARK  status: ('A' for Active; 'I' for Inactive)
REMARK    1  A    between atoms: C1_4  and  C2_5 
REMARK    2  A    between atoms: C1_4  and  N2_7 
REMARK    3  A    between atoms: N2_7  and  C3_9 
ROOT
HETATM    1  N2  UNL     1      -6.421  11.889  -3.458  1.00  0.00    -0.366 N 
ATOM      2  H2  UNL     1      -7.276  11.895  -2.901  1.00  0.00     0.162 HD
ENDROOT
BRANCH   1   3
HETATM    3  C1  UNL     1      -6.162  10.825  -4.361  1.00  0.00     0.085 C 
HETATM    4  N1  UNL     1      -6.675  10.847  -5.539  1.00  0.00    -0.388 N 
ATOM      5  H12 UNL     1      -6.489  10.083  -6.187  1.00  0.00     0.157 HD
ATOM      6  H11 UNL     1      -7.262  11.644  -5.783  1.00  0.00     0.157 HD
BRANCH   3   7
HETATM    7  C2  UNL     1      -5.308   9.664  -4.005  1.00  0.00     0.190 C 
HETATM    8 CL1  UNL     1      -6.276   8.234  -3.654  1.00  0.00    -0.122 Cl
ENDBRANCH   3   7
ENDBRANCH   1   3
BRANCH   1   9
HETATM    9  C3  UNL     1      -5.471  12.957  -3.338  1.00  0.00     0.145 C 
HETATM   10  C4  UNL     1      -4.457  12.785  -2.295  1.00  0.00     0.037 C 
HETATM   11  C5  UNL     1      -4.260  13.918  -1.428  1.00  0.00     0.013 C 
HETATM   12  C6  UNL     1      -4.859  15.168  -1.931  1.00  0.00     0.076 C 
HETATM   13  S1  UNL     1      -6.268  14.534  -2.924  1.00  0.00    -0.144 SA
ENDBRANCH   1   9
TORSDOF 3
ENDMDL
MODEL 2
REMARK VINA RESULT: -5.186366558      1.291      1.591
REMARK  3 active torsions:
REMARK  status: ('A' for Active; 'I' for Inactive)
REMARK    1  A    between atoms: C1_4  and  C2_5 
REMARK    2  A    between atoms: C1_4  and  N2_7 
REMARK    3  A    between atoms: N2_7  and  C3_9 
ROOT
HETATM    1  N2  UNL     1      -5.110  11.377  -3.648  1.00  0.00    -0.366 N 
ATOM      2  H2  UNL     1      -4.098  11.333  -3.772  1.00  0.00     0.162 HD
ENDROOT
BRANCH   1   3
HETATM    3  C1  UNL     1      -5.948  10.395  -4.240  1.00  0.00     0.085 C 
HETATM    4  N1  UNL     1      -6.724  10.720  -5.211  1.00  0.00    -0.388 N 
ATOM      5  H12 UNL     1      -7.325  10.015  -5.636  1.00  0.00     0.157 HD
ATOM      6  H11 UNL     1      -6.707  11.690  -5.525  1.00  0.00     0.157 HD
BRANCH   3   7
HETATM    7  C2  UNL     1      -5.972   8.984  -3.782  1.00  0.00     0.190 C 
HETATM    8 CL1  UNL     1      -6.349   7.883  -5.106  1.00  0.00    -0.122 Cl
ENDBRANCH   3   7
ENDBRANCH   1   3
BRANCH   1   9
HETATM    9  C3  UNL     1      -5.700  12.432  -2.875  1.00  0.00     0.145 C 
HETATM   10  C4  UNL     1      -6.332  13.503  -3.648  1.00  0.00     0.037 C 
HETATM   11  C5  UNL     1      -5.974  14.843  -3.261  1.00  0.00     0.013 C 
HETATM   12  C6  UNL     1      -5.302  14.928  -1.951  1.00  0.00     0.076 C 
HETATM   13  S1  UNL     1      -4.473  13.292  -1.849  1.00  0.00    -0.144 SA
ENDBRANCH   1   9
TORSDOF 3
ENDMDL
MODEL 3
REMARK VINA RESULT: -4.859650708      3.149      4.991
REMARK  3 active torsions:
REMARK  status: ('A' for Active; 'I' for Inactive)
REMARK    1  A    between atoms: C1_4  and  C2_5 
REMARK    2  A    between atoms: C1_4  and  N2_7 
REMARK    3  A    between atoms: N2_7  and  C3_9 
ROOT
HETATM    1  N2  UNL     1      -5.872  12.019  -2.923  1.00  0.00    -0.366 N 
ATOM      2  H2  UNL     1      -6.533  11.652  -2.238  1.00  0.00     0.162 HD
ENDROOT
BRANCH   1   3
HETATM    3  C1  UNL     1      -5.218  13.258  -2.695  1.00  0.00     0.085 C 
HETATM    4  N1  UNL     1      -4.297  13.339  -1.801  1.00  0.00    -0.388 N 
ATOM      5  H12 UNL     1      -3.827  14.229  -1.637  1.00  0.00     0.157 HD
ATOM      6  H11 UNL     1      -4.069  12.493  -1.281  1.00  0.00     0.157 HD
BRANCH   3   7
HETATM    7  C2  UNL     1      -5.551  14.489  -3.453  1.00  0.00     0.190 C 
HETATM    8 CL1  UNL     1      -6.678  15.511  -2.562  1.00  0.00    -0.122 Cl
ENDBRANCH   3   7
ENDBRANCH   1   3
BRANCH   1   9
HETATM    9  C3  UNL     1      -5.594  11.288  -4.126  1.00  0.00     0.145 C 
HETATM   10  C4  UNL     1      -6.733  10.575  -4.708  1.00  0.00     0.037 C 
HETATM   11  C5  UNL     1      -6.488   9.201  -5.065  1.00  0.00     0.013 C 
HETATM   12  C6  UNL     1      -5.059   8.837  -5.101  1.00  0.00     0.076 C 
HETATM   13  S1  UNL     1      -4.348   9.993  -3.863  1.00  0.00    -0.144 SA
ENDBRANCH   1   9
TORSDOF 3
ENDMDL
MODEL 4
REMARK VINA RESULT: -4.804918490      1.082      1.195
REMARK  3 active torsions:
REMARK  status: ('A' for Active; 'I' for Inactive)
REMARK    1  A    between atoms: C1_4  and  C2_5 
REMARK    2  A    between atoms: C1_4  and  N2_7 
REMARK    3  A    between atoms: N2_7  and  C3_9 
ROOT
HETATM    1  N2  UNL     1      -6.048  11.692  -3.247  1.00  0.00    -0.366 N 
ATOM      2  H2  UNL     1      -6.944  11.667  -2.761  1.00  0.00     0.162 HD
ENDROOT
BRANCH   1   3
HETATM    3  C1  UNL     1      -5.619  10.581  -4.019  1.00  0.00     0.085 C 
HETATM    4  N1  UNL     1      -4.477  10.041  -3.780  1.00  0.00    -0.388 N 
ATOM      5  H12 UNL     1      -4.168   9.243  -4.334  1.00  0.00     0.157 HD
ATOM      6  H11 UNL     1      -3.912  10.442  -3.032  1.00  0.00     0.157 HD
BRANCH   3   7
HETATM    7  C2  UNL     1      -6.441   9.998  -5.108  1.00  0.00     0.190 C 
HETATM    8 CL1  UNL     1      -6.522   8.242  -4.986  1.00  0.00    -0.122 Cl
ENDBRANCH   3   7
ENDBRANCH   1   3
BRANCH   1   9
HETATM    9  C3  UNL     1      -5.208  12.852  -3.157  1.00  0.00     0.145 C 
HETATM   10  C4  UNL     1      -4.391  12.947  -1.946  1.00  0.00     0.037 C 
HETATM   11  C5  UNL     1      -4.430  14.219  -1.269  1.00  0.00     0.013 C 
HETATM   12  C6  UNL     1      -5.010  15.309  -2.075  1.00  0.00     0.076 C 
HETATM   13  S1  UNL     1      -6.171  14.392  -3.164  1.00  0.00    -0.144 SA
ENDBRANCH   1   9
TORSDOF 3
ENDMDL
MODEL 5
REMARK VINA RESULT: -4.730025005      3.022      4.880
REMARK  3 active torsions:
REMARK  status: ('A' for Active; 'I' for Inactive)
REMARK    1  A    between atoms: C1_4  and  C2_5 
REMARK    2  A    between atoms: C1_4  and  N2_7 
REMARK    3  A    between atoms: N2_7  and  C3_9 
ROOT
HETATM    1  N2  UNL     1      -6.229  11.972  -3.279  1.00  0.00    -0.366 N 
ATOM      2  H2  UNL     1      -7.010  11.707  -2.679  1.00  0.00     0.162 HD
ENDROOT
BRANCH   1   3
HETATM    3  C1  UNL     1      -5.538  13.192  -3.060  1.00  0.00     0.085 C 
HETATM    4  N1  UNL     1      -5.814  14.220  -3.780  1.00  0.00    -0.388 N 
ATOM      5  H12 UNL     1      -5.317  15.097  -3.623  1.00  0.00     0.157 HD
ATOM      6  H11 UNL     1      -6.532  14.116  -4.497  1.00  0.00     0.157 HD
BRANCH   3   7
HETATM    7  C2  UNL     1      -4.493  13.343  -2.018  1.00  0.00     0.190 C 
HETATM    8 CL1  UNL     1      -4.662  14.868  -1.150  1.00  0.00    -0.122 Cl
ENDBRANCH   3   7
ENDBRANCH   1   3
BRANCH   1   9
HETATM    9  C3  UNL     1      -5.820  11.115  -4.355  1.00  0.00     0.145 C 
HETATM   10  C4  UNL     1      -6.859  10.235  -4.892  1.00  0.00     0.037 C 
HETATM   11  C5  UNL     1      -6.484   8.852  -5.044  1.00  0.00     0.013 C 
HETATM   12  C6  UNL     1      -5.032   8.613  -4.956  1.00  0.00     0.076 C 
HETATM   13  S1  UNL     1      -4.494   9.980  -3.854  1.00  0.00    -0.144 SA
ENDBRANCH   1   9
TORSDOF 3
ENDMDL
