MODEL 1
REMARK VINA RESULT: -5.353262933      0.000      0.000
REMARK  3 active torsions:
REMARK  status: ('A' for Active; 'I' for Inactive)
REMARK    1  A    between atoms: C5_5  and  N1_6 
REMARK    2  A    between atoms: N1_6  and  N2_7 
REMARK    3  A    between atoms: N1_6  and  C6_10 
ROOT
HETATM    1  C1  UNL     1      -4.445  15.012  -2.603  1.00  0.00     0.010 C 
HETATM    2  C2  UNL     1      -5.417  13.937  -2.095  1.00  0.00    -0.019 C 
HETATM    3  C3  UNL     1      -6.603  13.816  -2.961  1.00  0.00     0.006 C 
HETATM    4  C4  UNL     1      -6.798  12.591  -3.732  1.00  0.00     0.027 C 
HETATM    5  C5  UNL     1      -5.830  11.451  -3.481  1.00  0.00     0.102 C 
HETATM    6  C9  UNL     1      -4.469  12.025  -3.251  1.00  0.00     0.027 C 
HETATM    7  C10 UNL     1      -4.610  12.704  -1.887  1.00  0.00     0.006 C 
ENDROOT
BRANCH   5   8
HETATM    8  N1  UNL     1      -5.826  10.519  -4.537  1.00  0.00    -0.326 N 
BRANCH   8   9
HETATM    9  N2  UNL     1      -6.797  10.598  -5.485  1.00  0.00    -0.347 N 
ATOM     10  H22 UNL     1      -7.762  10.548  -5.158  1.00  0.00     0.176 HD
ATOM     11  H21 UNL     1      -6.654  11.212  -6.287  1.00  0.00     0.176 HD
ENDBRANCH   8   9
BRANCH   8  12
HETATM   12  C6  UNL     1      -5.396   9.221  -4.171  1.00  0.00     0.094 C 
HETATM   13  C7  UNL     1      -5.183   8.390  -5.417  1.00  0.00     0.033 C 
HETATM   14  C8  UNL     1      -6.235   8.484  -3.191  1.00  0.00     0.033 C 
ENDBRANCH   8  12
ENDBRANCH   5   8
TORSDOF 3
ENDMDL
MODEL 2
REMARK VINA RESULT: -5.154836589      1.115      1.649
REMARK  3 active torsions:
REMARK  status: ('A' for Active; 'I' for Inactive)
REMARK    1  A    between atoms: C5_5  and  N1_6 
REMARK    2  A    between atoms: N1_6  and  N2_7 
REMARK    3  A    between atoms: N1_6  and  C6_10 
ROOT
HETATM    1  C1  UNL     1      -5.323  15.149  -3.376  1.00  0.00     0.010 C 
HETATM    2  C2  UNL     1      -6.014  13.989  -2.644  1.00  0.00    -0.019 C 
HETATM    3  C3  UNL     1      -6.839  13.178  -3.557  1.00  0.00     0.006 C 
HETATM    4  C4  UNL     1      -6.442  11.801  -3.840  1.00  0.00     0.027 C 
HETATM    5  C5  UNL     1      -5.270  11.242  -3.056  1.00  0.00     0.102 C 
HETATM    6  C9  UNL     1      -4.260  12.328  -2.872  1.00  0.00     0.027 C 
HETATM    7  C10 UNL     1      -4.950  13.275  -1.888  1.00  0.00     0.006 C 
ENDROOT
BRANCH   5   8
HETATM    8  N1  UNL     1      -4.707  10.113  -3.682  1.00  0.00    -0.326 N 
BRANCH   8   9
HETATM    9  N2  UNL     1      -3.432  10.190  -4.150  1.00  0.00    -0.347 N 
ATOM     10  H22 UNL     1      -3.153   9.489  -4.836  1.00  0.00     0.176 HD
ATOM     11  H21 UNL     1      -3.015  11.110  -4.292  1.00  0.00     0.176 HD
ENDBRANCH   8   9
BRANCH   8  12
HETATM   12  C6  UNL     1      -5.622   9.351  -4.448  1.00  0.00     0.094 C 
HETATM   13  C7  UNL     1      -6.147   8.205  -3.612  1.00  0.00     0.033 C 
HETATM   14  C8  UNL     1      -5.151   8.859  -5.768  1.00  0.00     0.033 C 
ENDBRANCH   8  12
ENDBRANCH   5   8
TORSDOF 3
ENDMDL
MODEL 3
REMARK VINA RESULT: -5.135631742      1.409      5.324
REMARK  3 active torsions:
REMARK  status: ('A' for Active; 'I' for Inactive)
REMARK    1  A    between atoms: C5_5  and  N1_6 
REMARK    2  A    between atoms: N1_6  and  N2_7 
REMARK    3  A    between atoms: N1_6  and  C6_10 
ROOT
HETATM    1  C1  UNL     1      -6.725   5.313  -3.913  1.00  0.00     0.010 C 
HETATM    2  C2  UNL     1      -5.516   6.227  -4.163  1.00  0.00    -0.019 C 
HETATM    3  C3  UNL     1      -5.605   6.912  -5.464  1.00  0.00     0.006 C 
HETATM    4  C4  UNL     1      -5.784   8.361  -5.494  1.00  0.00     0.027 C 
HETATM    5  C5  UNL     1      -5.724   9.095  -4.169  1.00  0.00     0.102 C 
HETATM    6  C9  UNL     1      -6.375   8.246  -3.125  1.00  0.00     0.027 C 
HETATM    7  C10 UNL     1      -5.386   7.091  -2.958  1.00  0.00     0.006 C 
ENDROOT
BRANCH   5   8
HETATM    8  N1  UNL     1      -6.321  10.369  -4.244  1.00  0.00    -0.326 N 
BRANCH   8   9
HETATM    9  N2  UNL     1      -6.752  10.822  -5.451  1.00  0.00    -0.347 N 
ATOM     10  H22 UNL     1      -7.595  11.395  -5.451  1.00  0.00     0.176 HD
ATOM     11  H21 UNL     1      -6.060  11.088  -6.152  1.00  0.00     0.176 HD
ENDBRANCH   8   9
BRANCH   8  12
HETATM   12  C6  UNL     1      -5.763  11.329  -3.365  1.00  0.00     0.094 C 
HETATM   13  C7  UNL     1      -6.392  12.679  -3.629  1.00  0.00     0.033 C 
HETATM   14  C8  UNL     1      -4.283  11.441  -3.339  1.00  0.00     0.033 C 
ENDBRANCH   8  12
ENDBRANCH   5   8
TORSDOF 3
ENDMDL
MODEL 4
REMARK VINA RESULT: -5.032895082      1.374      2.361
REMARK  3 active torsions:
REMARK  status: ('A' for Active; 'I' for Inactive)
REMARK    1  A    between atoms: C5_5  and  N1_6 
REMARK    2  A    between atoms: N1_6  and  N2_7 
REMARK    3  A    between atoms: N1_6  and  C6_10 
ROOT
HETATM    1  C1  UNL     1      -6.912  15.360  -1.968  1.00  0.00     0.010 C 
HETATM    2  C2  UNL     1      -5.581  14.998  -2.644  1.00  0.00    -0.019 C 
HETATM    3  C3  UNL     1      -4.701  14.230  -1.746  1.00  0.00     0.006 C 
HETATM    4  C4  UNL     1      -4.404  12.836  -2.063  1.00  0.00     0.027 C 
HETATM    5  C5  UNL     1      -4.911  12.303  -3.389  1.00  0.00     0.102 C 
HETATM    6  C9  UNL     1      -6.255  12.899  -3.658  1.00  0.00     0.027 C 
HETATM    7  C10 UNL     1      -5.927  14.366  -3.945  1.00  0.00     0.006 C 
ENDROOT
BRANCH   5   8
HETATM    8  N1  UNL     1      -4.957  10.895  -3.409  1.00  0.00    -0.326 N 
BRANCH   8   9
HETATM    9  N2  UNL     1      -3.814  10.205  -3.666  1.00  0.00    -0.347 N 
ATOM     10  H22 UNL     1      -2.936  10.705  -3.528  1.00  0.00     0.176 HD
ATOM     11  H21 UNL     1      -3.776   9.212  -3.434  1.00  0.00     0.176 HD
ENDBRANCH   8   9
BRANCH   8  12
HETATM   12  C6  UNL     1      -6.158  10.356  -3.930  1.00  0.00     0.094 C 
HETATM   13  C7  UNL     1      -6.302   8.919  -3.480  1.00  0.00     0.033 C 
HETATM   14  C8  UNL     1      -6.366  10.465  -5.396  1.00  0.00     0.033 C 
ENDBRANCH   8  12
ENDBRANCH   5   8
TORSDOF 3
ENDMDL
MODEL 5
REMARK VINA RESULT: -5.022256640      2.518      6.142
REMARK  3 active torsions:
REMARK  status: ('A' for Active; 'I' for Inactive)
REMARK    1  A    between atoms: C5_5  and  N1_6 
REMARK    2  A    between atoms: N1_6  and  N2_7 
REMARK    3  A    between atoms: N1_6  and  C6_10 
ROOT
HETATM    1  C1  UNL     1      -6.341   3.938  -4.257  1.00  0.00     0.010 C 
HETATM    2  C2  UNL     1      -7.251   5.123  -3.901  1.00  0.00    -0.019 C 
HETATM    3  C3  UNL     1      -6.636   6.003  -2.892  1.00  0.00     0.006 C 
HETATM    4  C4  UNL     1      -6.244   7.358  -3.272  1.00  0.00     0.027 C 
HETATM    5  C5  UNL     1      -6.630   7.827  -4.662  1.00  0.00     0.102 C 
HETATM    6  C9  UNL     1      -6.495   6.676  -5.606  1.00  0.00     0.027 C 
HETATM    7  C10 UNL     1      -7.643   5.754  -5.190  1.00  0.00     0.006 C 
ENDROOT
BRANCH   5   8
HETATM    8  N1  UNL     1      -5.862   8.930  -5.078  1.00  0.00    -0.326 N 
BRANCH   8   9
HETATM    9  N2  UNL     1      -4.897   8.741  -6.018  1.00  0.00    -0.347 N 
ATOM     10  H22 UNL     1      -5.203   8.389  -6.925  1.00  0.00     0.176 HD
ATOM     11  H21 UNL     1      -4.117   9.397  -6.061  1.00  0.00     0.176 HD
ENDBRANCH   8   9
BRANCH   8  12
HETATM   12  C6  UNL     1      -5.579   9.868  -4.055  1.00  0.00     0.094 C 
HETATM   13  C7  UNL     1      -6.415  11.110  -4.264  1.00  0.00     0.033 C 
HETATM   14  C8  UNL     1      -4.154  10.228  -3.846  1.00  0.00     0.033 C 
ENDBRANCH   8  12
ENDBRANCH   5   8
TORSDOF 3
ENDMDL
