MODEL 1
REMARK VINA RESULT: -6.768433936      0.000      0.000
REMARK  15 active torsions:
REMARK  status: ('A' for Active; 'I' for Inactive)
REMARK    1  A    between atoms: C2_2  and  C4_4 
REMARK    2  A    between atoms: C4_4  and  C5_5 
REMARK    3  A    between atoms: C5_5  and  C6_6 
REMARK    4  A    between atoms: C6_6  and  N1_7 
REMARK    5  A    between atoms: C6_6  and  C19_30 
REMARK       I    between atoms: N1_7  and  C7_9 
REMARK    6  A    between atoms: C7_9  and  C8_11 
REMARK    7  A    between atoms: C11_17  and  C12_18 
REMARK       I    between atoms: C12_18  and  N3_20 
REMARK    8  A    between atoms: N3_20  and  C13_22 
REMARK    9  A    between atoms: C13_22  and  C14_23 
REMARK   10  A    between atoms: C13_22  and  C15_26 
REMARK   11  A    between atoms: C14_23  and  O3_24 
REMARK   12  A    between atoms: C15_26  and  C16_27 
REMARK   13  A    between atoms: C19_30  and  O4_31 
REMARK   14  A    between atoms: C19_30  and  C20_33 
REMARK   15  A    between atoms: C20_33  and  N4_34 
ROOT
HETATM    1  N1  UNL     1      28.881 -46.693  40.888  1.00  0.00    -0.354 N 
ATOM      2  H1  UNL     1      27.905 -46.957  40.753  1.00  0.00     0.163 HD
HETATM    3  C7  UNL     1      29.856 -47.163  39.999  1.00  0.00     0.224 C 
HETATM    4  O1  UNL     1      31.044 -46.822  40.185  1.00  0.00    -0.273 OA
ENDROOT
BRANCH   3   5
HETATM    5  C8  UNL     1      29.511 -48.027  38.883  1.00  0.00     0.118 C 
HETATM    6  C9  UNL     1      30.539 -48.111  37.782  1.00  0.00     0.247 C 
HETATM    7  N2  UNL     1      29.906 -49.123  36.919  1.00  0.00    -0.073 N 
HETATM    8  C10 UNL     1      29.248 -50.066  37.783  1.00  0.00     0.247 C 
ATOM      9  H22 UNL     1      29.283 -48.719  36.220  1.00  0.00     0.277 HD
ATOM     10  H21 UNL     1      30.561 -49.562  36.272  1.00  0.00     0.277 HD
HETATM   11  C11 UNL     1      29.262 -49.459  39.201  1.00  0.00     0.118 C 
BRANCH  11  12
HETATM   12  C12 UNL     1      30.303 -50.178  39.922  1.00  0.00     0.224 C 
HETATM   13  O2  UNL     1      30.989 -51.081  39.425  1.00  0.00    -0.273 OA
HETATM   14  N3  UNL     1      30.552 -49.830  41.278  1.00  0.00    -0.354 N 
ATOM     15  H3  UNL     1      29.998 -49.087  41.705  1.00  0.00     0.162 HD
BRANCH  14  16
HETATM   16  C13 UNL     1      31.565 -50.491  42.077  1.00  0.00     0.108 C 
BRANCH  16  17
HETATM   17  C14 UNL     1      32.305 -49.379  42.825  1.00  0.00     0.189 C 
BRANCH  17  18
HETATM   18  O3  UNL     1      31.629 -48.187  42.668  1.00  0.00    -0.399 OA
ATOM     19  H3  UNL     1      31.589 -47.963  41.745  1.00  0.00     0.209 HD
ENDBRANCH  17  18
ENDBRANCH  16  17
BRANCH  16  20
HETATM   20  C15 UNL     1      30.994 -51.388  43.142  1.00  0.00     0.031 C 
BRANCH  20  21
HETATM   21  C16 UNL     1      29.568 -51.118  43.491  1.00  0.00    -0.021 C 
HETATM   22  C17 UNL     1      28.649 -52.289  43.257  1.00  0.00     0.009 C 
HETATM   23  C18 UNL     1      29.522 -50.765  44.976  1.00  0.00     0.009 C 
ENDBRANCH  20  21
ENDBRANCH  16  20
ENDBRANCH  14  16
ENDBRANCH  11  12
ENDBRANCH   3   5
BRANCH   1  24
HETATM   24  C6  UNL     1      29.262 -45.792  42.054  1.00  0.00     0.114 C 
BRANCH  24  25
HETATM   25  C5  UNL     1      28.754 -44.468  41.668  1.00  0.00     0.028 C 
BRANCH  25  26
HETATM   26  C4  UNL     1      29.475 -43.212  41.789  1.00  0.00     0.006 C 
BRANCH  26  27
HETATM   27  C2  UNL     1      28.790 -41.918  41.575  1.00  0.00    -0.023 C 
HETATM   28  C1  UNL     1      29.350 -40.707  42.226  1.00  0.00     0.009 C 
HETATM   29  C3  UNL     1      27.349 -42.082  42.128  1.00  0.00     0.009 C 
ENDBRANCH  26  27
ENDBRANCH  25  26
ENDBRANCH  24  25
BRANCH  24  30
HETATM   30  C19 UNL     1      28.425 -46.368  43.202  1.00  0.00     0.169 C 
BRANCH  30  31
HETATM   31  O4  UNL     1      29.081 -47.468  43.694  1.00  0.00    -0.392 OA
ATOM     32  H4  UNL     1      29.355 -47.273  44.582  1.00  0.00     0.210 HD
ENDBRANCH  30  31
BRANCH  30  33
HETATM   33  C20 UNL     1      27.023 -46.578  42.920  1.00  0.00     0.306 C 
BRANCH  33  34
HETATM   34  N4  UNL     1      26.588 -47.962  43.032  1.00  0.00     0.091 N 
HETATM   35  C21 UNL     1      25.875 -48.245  44.235  1.00  0.00     0.272 C 
HETATM   36  C22 UNL     1      26.012 -49.744  44.495  1.00  0.00     0.030 C 
HETATM   37  C23 UNL     1      24.885 -50.413  43.744  1.00  0.00     0.002 C 
HETATM   38  C24 UNL     1      25.226 -50.786  42.341  1.00  0.00     0.002 C 
HETATM   39  C25 UNL     1      26.229 -49.892  41.682  1.00  0.00     0.030 C 
HETATM   40  C26 UNL     1      25.918 -48.421  41.836  1.00  0.00     0.272 C 
ENDBRANCH  33  34
ENDBRANCH  30  33
ENDBRANCH  24  30
ENDBRANCH   1  24
TORSDOF 15
ENDMDL
MODEL 2
REMARK VINA RESULT: -6.718114726      1.944      4.921
REMARK  15 active torsions:
REMARK  status: ('A' for Active; 'I' for Inactive)
REMARK    1  A    between atoms: C2_2  and  C4_4 
REMARK    2  A    between atoms: C4_4  and  C5_5 
REMARK    3  A    between atoms: C5_5  and  C6_6 
REMARK    4  A    between atoms: C6_6  and  N1_7 
REMARK    5  A    between atoms: C6_6  and  C19_30 
REMARK       I    between atoms: N1_7  and  C7_9 
REMARK    6  A    between atoms: C7_9  and  C8_11 
REMARK    7  A    between atoms: C11_17  and  C12_18 
REMARK       I    between atoms: C12_18  and  N3_20 
REMARK    8  A    between atoms: N3_20  and  C13_22 
REMARK    9  A    between atoms: C13_22  and  C14_23 
REMARK   10  A    between atoms: C13_22  and  C15_26 
REMARK   11  A    between atoms: C14_23  and  O3_24 
REMARK   12  A    between atoms: C15_26  and  C16_27 
REMARK   13  A    between atoms: C19_30  and  O4_31 
REMARK   14  A    between atoms: C19_30  and  C20_33 
REMARK   15  A    between atoms: C20_33  and  N4_34 
ROOT
HETATM    1  N1  UNL     1      28.123 -47.507  41.080  1.00  0.00    -0.354 N 
ATOM      2  H1  UNL     1      28.475 -48.244  41.691  1.00  0.00     0.163 HD
HETATM    3  C7  UNL     1      26.801 -47.561  40.620  1.00  0.00     0.224 C 
HETATM    4  O1  UNL     1      26.394 -46.645  39.875  1.00  0.00    -0.273 OA
ENDROOT
BRANCH   3   5
HETATM    5  C8  UNL     1      25.913 -48.650  40.989  1.00  0.00     0.118 C 
HETATM    6  C9  UNL     1      26.549 -50.016  41.058  1.00  0.00     0.247 C 
HETATM    7  N2  UNL     1      25.407 -50.805  41.547  1.00  0.00    -0.073 N 
HETATM    8  C10 UNL     1      24.671 -49.969  42.457  1.00  0.00     0.247 C 
ATOM      9  H22 UNL     1      24.830 -51.182  40.795  1.00  0.00     0.277 HD
ATOM     10  H21 UNL     1      25.684 -51.697  41.958  1.00  0.00     0.277 HD
HETATM   11  C11 UNL     1      25.238 -48.542  42.311  1.00  0.00     0.118 C 
BRANCH  11  12
HETATM   12  C12 UNL     1      26.081 -48.336  43.480  1.00  0.00     0.224 C 
HETATM   13  O2  UNL     1      26.563 -47.241  43.799  1.00  0.00    -0.273 OA
HETATM   14  N3  UNL     1      26.375 -49.454  44.309  1.00  0.00    -0.354 N 
ATOM     15  H3  UNL     1      25.987 -50.364  44.063  1.00  0.00     0.162 HD
BRANCH  14  16
HETATM   16  C13 UNL     1      27.207 -49.347  45.492  1.00  0.00     0.108 C 
BRANCH  16  17
HETATM   17  C14 UNL     1      26.464 -50.097  46.599  1.00  0.00     0.189 C 
BRANCH  17  18
HETATM   18  O3  UNL     1      25.115 -49.818  46.522  1.00  0.00    -0.399 OA
ATOM     19  H3  UNL     1      24.618 -50.553  46.864  1.00  0.00     0.209 HD
ENDBRANCH  17  18
ENDBRANCH  16  17
BRANCH  16  20
HETATM   20  C15 UNL     1      28.535 -50.039  45.351  1.00  0.00     0.031 C 
BRANCH  20  21
HETATM   21  C16 UNL     1      29.720 -49.204  45.708  1.00  0.00    -0.021 C 
HETATM   22  C17 UNL     1      29.575 -47.749  45.345  1.00  0.00     0.009 C 
HETATM   23  C18 UNL     1      29.905 -49.301  47.221  1.00  0.00     0.009 C 
ENDBRANCH  20  21
ENDBRANCH  16  20
ENDBRANCH  14  16
ENDBRANCH  11  12
ENDBRANCH   3   5
BRANCH   1  24
HETATM   24  C6  UNL     1      29.040 -46.362  40.679  1.00  0.00     0.114 C 
BRANCH  24  25
HETATM   25  C5  UNL     1      29.145 -45.540  41.894  1.00  0.00     0.028 C 
BRANCH  25  26
HETATM   26  C4  UNL     1      29.176 -44.088  41.939  1.00  0.00     0.006 C 
BRANCH  26  27
HETATM   27  C2  UNL     1      27.948 -43.294  41.719  1.00  0.00    -0.023 C 
HETATM   28  C1  UNL     1      27.989 -41.838  42.003  1.00  0.00     0.009 C 
HETATM   29  C3  UNL     1      26.861 -43.889  42.653  1.00  0.00     0.009 C 
ENDBRANCH  26  27
ENDBRANCH  25  26
ENDBRANCH  24  25
BRANCH  24  30
HETATM   30  C19 UNL     1      30.367 -47.080  40.407  1.00  0.00     0.169 C 
BRANCH  30  31
HETATM   31  O4  UNL     1      31.042 -46.372  39.445  1.00  0.00    -0.392 OA
ATOM     32  H4  UNL     1      30.503 -46.350  38.664  1.00  0.00     0.210 HD
ENDBRANCH  30  31
BRANCH  30  33
HETATM   33  C20 UNL     1      30.276 -48.502  40.159  1.00  0.00     0.306 C 
BRANCH  33  34
HETATM   34  N4  UNL     1      30.963 -49.328  41.142  1.00  0.00     0.091 N 
HETATM   35  C21 UNL     1      31.421 -48.602  42.281  1.00  0.00     0.272 C 
HETATM   36  C22 UNL     1      32.575 -49.402  42.886  1.00  0.00     0.030 C 
HETATM   37  C23 UNL     1      31.953 -50.391  43.843  1.00  0.00     0.002 C 
HETATM   38  C24 UNL     1      31.586 -51.694  43.218  1.00  0.00     0.002 C 
HETATM   39  C25 UNL     1      31.211 -51.611  41.772  1.00  0.00     0.030 C 
HETATM   40  C26 UNL     1      30.212 -50.518  41.471  1.00  0.00     0.272 C 
ENDBRANCH  33  34
ENDBRANCH  30  33
ENDBRANCH  24  30
ENDBRANCH   1  24
TORSDOF 15
ENDMDL
MODEL 3
REMARK VINA RESULT: -6.712069450      1.992      6.252
REMARK  15 active torsions:
REMARK  status: ('A' for Active; 'I' for Inactive)
REMARK    1  A    between atoms: C2_2  and  C4_4 
REMARK    2  A    between atoms: C4_4  and  C5_5 
REMARK    3  A    between atoms: C5_5  and  C6_6 
REMARK    4  A    between atoms: C6_6  and  N1_7 
REMARK    5  A    between atoms: C6_6  and  C19_30 
REMARK       I    between atoms: N1_7  and  C7_9 
REMARK    6  A    between atoms: C7_9  and  C8_11 
REMARK    7  A    between atoms: C11_17  and  C12_18 
REMARK       I    between atoms: C12_18  and  N3_20 
REMARK    8  A    between atoms: N3_20  and  C13_22 
REMARK    9  A    between atoms: C13_22  and  C14_23 
REMARK   10  A    between atoms: C13_22  and  C15_26 
REMARK   11  A    between atoms: C14_23  and  O3_24 
REMARK   12  A    between atoms: C15_26  and  C16_27 
REMARK   13  A    between atoms: C19_30  and  O4_31 
REMARK   14  A    between atoms: C19_30  and  C20_33 
REMARK   15  A    between atoms: C20_33  and  N4_34 
ROOT
HETATM    1  N1  UNL     1      28.172 -48.589  42.068  1.00  0.00    -0.354 N 
ATOM      2  H1  UNL     1      28.897 -48.074  42.568  1.00  0.00     0.163 HD
HETATM    3  C7  UNL     1      28.366 -49.943  41.767  1.00  0.00     0.224 C 
HETATM    4  O1  UNL     1      27.461 -50.551  41.156  1.00  0.00    -0.273 OA
ENDROOT
BRANCH   3   5
HETATM    5  C8  UNL     1      29.584 -50.638  42.147  1.00  0.00     0.118 C 
HETATM    6  C9  UNL     1      29.510 -52.145  42.124  1.00  0.00     0.247 C 
HETATM    7  N2  UNL     1      30.907 -52.474  42.449  1.00  0.00    -0.073 N 
HETATM    8  C10 UNL     1      31.735 -51.478  41.824  1.00  0.00     0.247 C 
ATOM      9  H22 UNL     1      31.075 -52.561  43.451  1.00  0.00     0.277 HD
ATOM     10  H21 UNL     1      31.164 -53.427  42.190  1.00  0.00     0.277 HD
HETATM   11  C11 UNL     1      30.793 -50.362  41.325  1.00  0.00     0.118 C 
BRANCH  11  12
HETATM   12  C12 UNL     1      30.686 -50.557  39.886  1.00  0.00     0.224 C 
HETATM   13  O2  UNL     1      30.673 -51.669  39.340  1.00  0.00    -0.273 OA
HETATM   14  N3  UNL     1      30.592 -49.410  39.052  1.00  0.00    -0.354 N 
ATOM     15  H3  UNL     1      30.600 -48.485  39.484  1.00  0.00     0.162 HD
BRANCH  14  16
HETATM   16  C13 UNL     1      30.485 -49.504  37.609  1.00  0.00     0.108 C 
BRANCH  16  17
HETATM   17  C14 UNL     1      29.024 -49.193  37.273  1.00  0.00     0.189 C 
BRANCH  17  18
HETATM   18  O3  UNL     1      28.880 -47.840  37.043  1.00  0.00    -0.399 OA
ATOM     19  H3  UNL     1      28.950 -47.667  36.111  1.00  0.00     0.209 HD
ENDBRANCH  17  18
ENDBRANCH  16  17
BRANCH  16  20
HETATM   20  C15 UNL     1      31.299 -48.469  36.881  1.00  0.00     0.031 C 
BRANCH  20  21
HETATM   21  C16 UNL     1      32.145 -49.002  35.773  1.00  0.00    -0.021 C 
HETATM   22  C17 UNL     1      33.607 -48.663  35.900  1.00  0.00     0.009 C 
HETATM   23  C18 UNL     1      32.005 -50.523  35.785  1.00  0.00     0.009 C 
ENDBRANCH  20  21
ENDBRANCH  16  20
ENDBRANCH  14  16
ENDBRANCH  11  12
ENDBRANCH   3   5
BRANCH   1  24
HETATM   24  C6  UNL     1      26.892 -47.877  41.658  1.00  0.00     0.114 C 
BRANCH  24  25
HETATM   25  C5  UNL     1      26.305 -47.427  42.929  1.00  0.00     0.028 C 
BRANCH  25  26
HETATM   26  C4  UNL     1      26.271 -48.188  44.166  1.00  0.00     0.006 C 
BRANCH  26  27
HETATM   27  C2  UNL     1      25.065 -48.949  44.559  1.00  0.00    -0.023 C 
HETATM   28  C1  UNL     1      24.663 -48.947  45.988  1.00  0.00     0.009 C 
HETATM   29  C3  UNL     1      25.333 -50.431  44.184  1.00  0.00     0.009 C 
ENDBRANCH  26  27
ENDBRANCH  25  26
ENDBRANCH  24  25
BRANCH  24  30
HETATM   30  C19 UNL     1      27.421 -46.677  40.864  1.00  0.00     0.169 C 
BRANCH  30  31
HETATM   31  O4  UNL     1      27.539 -47.058  39.551  1.00  0.00    -0.392 OA
ATOM     32  H4  UNL     1      28.440 -46.916  39.284  1.00  0.00     0.210 HD
ENDBRANCH  30  31
BRANCH  30  33
HETATM   33  C20 UNL     1      28.589 -46.023  41.410  1.00  0.00     0.306 C 
BRANCH  33  34
HETATM   34  N4  UNL     1      28.506 -44.570  41.437  1.00  0.00     0.091 N 
HETATM   35  C21 UNL     1      27.301 -44.075  42.019  1.00  0.00     0.272 C 
HETATM   36  C22 UNL     1      27.080 -42.669  41.462  1.00  0.00     0.030 C 
HETATM   37  C23 UNL     1      27.833 -41.727  42.372  1.00  0.00     0.002 C 
HETATM   38  C24 UNL     1      29.250 -41.493  41.968  1.00  0.00     0.002 C 
HETATM   39  C25 UNL     1      29.899 -42.646  41.269  1.00  0.00     0.030 C 
HETATM   40  C26 UNL     1      29.704 -43.967  41.975  1.00  0.00     0.272 C 
ENDBRANCH  33  34
ENDBRANCH  30  33
ENDBRANCH  24  30
ENDBRANCH   1  24
TORSDOF 15
ENDMDL
MODEL 4
REMARK VINA RESULT: -6.703307515      2.570      6.767
REMARK  15 active torsions:
REMARK  status: ('A' for Active; 'I' for Inactive)
REMARK    1  A    between atoms: C2_2  and  C4_4 
REMARK    2  A    between atoms: C4_4  and  C5_5 
REMARK    3  A    between atoms: C5_5  and  C6_6 
REMARK    4  A    between atoms: C6_6  and  N1_7 
REMARK    5  A    between atoms: C6_6  and  C19_30 
REMARK       I    between atoms: N1_7  and  C7_9 
REMARK    6  A    between atoms: C7_9  and  C8_11 
REMARK    7  A    between atoms: C11_17  and  C12_18 
REMARK       I    between atoms: C12_18  and  N3_20 
REMARK    8  A    between atoms: N3_20  and  C13_22 
REMARK    9  A    between atoms: C13_22  and  C14_23 
REMARK   10  A    between atoms: C13_22  and  C15_26 
REMARK   11  A    between atoms: C14_23  and  O3_24 
REMARK   12  A    between atoms: C15_26  and  C16_27 
REMARK   13  A    between atoms: C19_30  and  O4_31 
REMARK   14  A    between atoms: C19_30  and  C20_33 
REMARK   15  A    between atoms: C20_33  and  N4_34 
ROOT
HETATM    1  N1  UNL     1      29.635 -44.954  42.153  1.00  0.00    -0.354 N 
ATOM      2  H1  UNL     1      29.579 -44.890  43.170  1.00  0.00     0.163 HD
HETATM    3  C7  UNL     1      30.334 -46.014  41.562  1.00  0.00     0.224 C 
HETATM    4  O1  UNL     1      30.386 -46.071  40.315  1.00  0.00    -0.273 OA
ENDROOT
BRANCH   3   5
HETATM    5  C8  UNL     1      30.993 -47.030  42.366  1.00  0.00     0.118 C 
HETATM    6  C9  UNL     1      30.256 -47.455  43.612  1.00  0.00     0.247 C 
HETATM    7  N2  UNL     1      31.147 -48.528  44.082  1.00  0.00    -0.073 N 
HETATM    8  C10 UNL     1      31.661 -49.195  42.916  1.00  0.00     0.247 C 
ATOM      9  H22 UNL     1      31.880 -48.194  44.707  1.00  0.00     0.277 HD
ATOM     10  H21 UNL     1      30.695 -49.164  44.740  1.00  0.00     0.277 HD
HETATM   11  C11 UNL     1      31.274 -48.330  41.699  1.00  0.00     0.118 C 
BRANCH  11  12
HETATM   12  C12 UNL     1      30.155 -49.019  41.071  1.00  0.00     0.224 C 
HETATM   13  O2  UNL     1      29.282 -49.630  41.700  1.00  0.00    -0.273 OA
HETATM   14  N3  UNL     1      30.054 -48.994  39.653  1.00  0.00    -0.354 N 
ATOM     15  H3  UNL     1      30.765 -48.494  39.118  1.00  0.00     0.162 HD
BRANCH  14  16
HETATM   16  C13 UNL     1      28.978 -49.653  38.939  1.00  0.00     0.108 C 
BRANCH  16  17
HETATM   17  C14 UNL     1      29.172 -49.297  37.463  1.00  0.00     0.189 C 
BRANCH  17  18
HETATM   18  O3  UNL     1      28.852 -47.970  37.262  1.00  0.00    -0.399 OA
ATOM     19  H3  UNL     1      29.610 -47.509  36.921  1.00  0.00     0.209 HD
ENDBRANCH  17  18
ENDBRANCH  16  17
BRANCH  16  20
HETATM   20  C15 UNL     1      29.048 -51.155  39.008  1.00  0.00     0.031 C 
BRANCH  20  21
HETATM   21  C16 UNL     1      27.747 -51.832  39.285  1.00  0.00    -0.021 C 
HETATM   22  C17 UNL     1      26.639 -50.891  39.681  1.00  0.00     0.009 C 
HETATM   23  C18 UNL     1      27.327 -52.549  38.003  1.00  0.00     0.009 C 
ENDBRANCH  20  21
ENDBRANCH  16  20
ENDBRANCH  14  16
ENDBRANCH  11  12
ENDBRANCH   3   5
BRANCH   1  24
HETATM   24  C6  UNL     1      28.956 -43.897  41.295  1.00  0.00     0.114 C 
BRANCH  24  25
HETATM   25  C5  UNL     1      27.528 -44.241  41.359  1.00  0.00     0.028 C 
BRANCH  25  26
HETATM   26  C4  UNL     1      26.954 -45.355  42.095  1.00  0.00     0.006 C 
BRANCH  26  27
HETATM   27  C2  UNL     1      27.162 -46.750  41.648  1.00  0.00    -0.023 C 
HETATM   28  C1  UNL     1      26.758 -47.116  40.268  1.00  0.00     0.009 C 
HETATM   29  C3  UNL     1      26.327 -47.649  42.598  1.00  0.00     0.009 C 
ENDBRANCH  26  27
ENDBRANCH  25  26
ENDBRANCH  24  25
BRANCH  24  30
HETATM   30  C19 UNL     1      29.228 -42.610  42.081  1.00  0.00     0.169 C 
BRANCH  30  31
HETATM   31  O4  UNL     1      28.020 -42.027  42.370  1.00  0.00    -0.392 OA
ATOM     32  H4  UNL     1      28.175 -41.320  42.985  1.00  0.00     0.210 HD
ENDBRANCH  30  31
BRANCH  30  33
HETATM   33  C20 UNL     1      30.208 -41.714  41.508  1.00  0.00     0.306 C 
BRANCH  33  34
HETATM   34  N4  UNL     1      30.016 -40.313  41.854  1.00  0.00     0.091 N 
HETATM   35  C21 UNL     1      30.870 -39.858  42.903  1.00  0.00     0.272 C 
HETATM   36  C22 UNL     1      30.188 -38.649  43.542  1.00  0.00     0.030 C 
HETATM   37  C23 UNL     1      30.626 -37.442  42.746  1.00  0.00     0.002 C 
HETATM   38  C24 UNL     1      29.745 -37.126  41.586  1.00  0.00     0.002 C 
HETATM   39  C25 UNL     1      29.076 -38.313  40.967  1.00  0.00     0.030 C 
HETATM   40  C26 UNL     1      30.019 -39.459  40.688  1.00  0.00     0.272 C 
ENDBRANCH  33  34
ENDBRANCH  30  33
ENDBRANCH  24  30
ENDBRANCH   1  24
TORSDOF 15
ENDMDL
MODEL 5
REMARK VINA RESULT: -6.624806802      1.969      6.068
REMARK  15 active torsions:
REMARK  status: ('A' for Active; 'I' for Inactive)
REMARK    1  A    between atoms: C2_2  and  C4_4 
REMARK    2  A    between atoms: C4_4  and  C5_5 
REMARK    3  A    between atoms: C5_5  and  C6_6 
REMARK    4  A    between atoms: C6_6  and  N1_7 
REMARK    5  A    between atoms: C6_6  and  C19_30 
REMARK       I    between atoms: N1_7  and  C7_9 
REMARK    6  A    between atoms: C7_9  and  C8_11 
REMARK    7  A    between atoms: C11_17  and  C12_18 
REMARK       I    between atoms: C12_18  and  N3_20 
REMARK    8  A    between atoms: N3_20  and  C13_22 
REMARK    9  A    between atoms: C13_22  and  C14_23 
REMARK   10  A    between atoms: C13_22  and  C15_26 
REMARK   11  A    between atoms: C14_23  and  O3_24 
REMARK   12  A    between atoms: C15_26  and  C16_27 
REMARK   13  A    between atoms: C19_30  and  O4_31 
REMARK   14  A    between atoms: C19_30  and  C20_33 
REMARK   15  A    between atoms: C20_33  and  N4_34 
ROOT
HETATM    1  N1  UNL     1      28.773 -48.074  42.462  1.00  0.00    -0.354 N 
ATOM      2  H1  UNL     1      29.373 -47.263  42.609  1.00  0.00     0.163 HD
HETATM    3  C7  UNL     1      29.248 -49.354  42.775  1.00  0.00     0.224 C 
HETATM    4  O1  UNL     1      28.491 -50.331  42.587  1.00  0.00    -0.273 OA
ENDROOT
BRANCH   3   5
HETATM    5  C8  UNL     1      30.586 -49.559  43.302  1.00  0.00     0.118 C 
HETATM    6  C9  UNL     1      30.754 -50.753  44.208  1.00  0.00     0.247 C 
HETATM    7  N2  UNL     1      32.206 -50.692  44.443  1.00  0.00    -0.073 N 
HETATM    8  C10 UNL     1      32.815 -50.236  43.223  1.00  0.00     0.247 C 
ATOM      9  H22 UNL     1      32.456 -50.124  45.252  1.00  0.00     0.277 HD
ATOM     10  H21 UNL     1      32.594 -51.575  44.778  1.00  0.00     0.277 HD
HETATM   11  C11 UNL     1      31.673 -49.755  42.305  1.00  0.00     0.118 C 
BRANCH  11  12
HETATM   12  C12 UNL     1      31.496 -50.809  41.317  1.00  0.00     0.224 C 
HETATM   13  O2  UNL     1      32.059 -51.911  41.376  1.00  0.00    -0.273 OA
HETATM   14  N3  UNL     1      30.631 -50.567  40.215  1.00  0.00    -0.354 N 
ATOM     15  H3  UNL     1      30.158 -49.665  40.150  1.00  0.00     0.162 HD
BRANCH  14  16
HETATM   16  C13 UNL     1      30.395 -51.555  39.180  1.00  0.00     0.108 C 
BRANCH  16  17
HETATM   17  C14 UNL     1      28.990 -52.107  39.436  1.00  0.00     0.189 C 
BRANCH  17  18
HETATM   18  O3  UNL     1      28.172 -51.094  39.893  1.00  0.00    -0.399 OA
ATOM     19  H3  UNL     1      28.238 -50.345  39.313  1.00  0.00     0.209 HD
ENDBRANCH  17  18
ENDBRANCH  16  17
BRANCH  16  20
HETATM   20  C15 UNL     1      30.357 -50.970  37.794  1.00  0.00     0.031 C 
BRANCH  20  21
HETATM   21  C16 UNL     1      30.600 -49.499  37.727  1.00  0.00    -0.021 C 
HETATM   22  C17 UNL     1      31.573 -49.088  36.653  1.00  0.00     0.009 C 
HETATM   23  C18 UNL     1      29.259 -48.829  37.437  1.00  0.00     0.009 C 
ENDBRANCH  20  21
ENDBRANCH  16  20
ENDBRANCH  14  16
ENDBRANCH  11  12
ENDBRANCH   3   5
BRANCH   1  24
HETATM   24  C6  UNL     1      27.370 -47.880  41.906  1.00  0.00     0.114 C 
BRANCH  24  25
HETATM   25  C5  UNL     1      26.550 -47.581  43.089  1.00  0.00     0.028 C 
BRANCH  25  26
HETATM   26  C4  UNL     1      25.701 -48.525  43.796  1.00  0.00     0.006 C 
BRANCH  26  27
HETATM   27  C2  UNL     1      25.957 -48.865  45.213  1.00  0.00    -0.023 C 
HETATM   28  C1  UNL     1      26.554 -50.188  45.524  1.00  0.00     0.009 C 
HETATM   29  C3  UNL     1      24.583 -48.828  45.933  1.00  0.00     0.009 C 
ENDBRANCH  26  27
ENDBRANCH  25  26
ENDBRANCH  24  25
BRANCH  24  30
HETATM   30  C19 UNL     1      27.529 -46.625  41.040  1.00  0.00     0.169 C 
BRANCH  30  31
HETATM   31  O4  UNL     1      27.242 -46.967  39.742  1.00  0.00    -0.392 OA
ATOM     32  H4  UNL     1      26.366 -46.657  39.545  1.00  0.00     0.210 HD
ENDBRANCH  30  31
BRANCH  30  33
HETATM   33  C20 UNL     1      28.763 -45.890  41.212  1.00  0.00     0.306 C 
BRANCH  33  34
HETATM   34  N4  UNL     1      28.592 -44.450  41.331  1.00  0.00     0.091 N 
HETATM   35  C21 UNL     1      27.361 -44.066  41.941  1.00  0.00     0.272 C 
HETATM   36  C22 UNL     1      27.054 -42.643  41.474  1.00  0.00     0.030 C 
HETATM   37  C23 UNL     1      27.752 -41.717  42.443  1.00  0.00     0.002 C 
HETATM   38  C24 UNL     1      29.150 -41.373  42.055  1.00  0.00     0.002 C 
HETATM   39  C25 UNL     1      29.866 -42.437  41.285  1.00  0.00     0.030 C 
HETATM   40  C26 UNL     1      29.753 -43.810  41.907  1.00  0.00     0.272 C 
ENDBRANCH  33  34
ENDBRANCH  30  33
ENDBRANCH  24  30
ENDBRANCH   1  24
TORSDOF 15
ENDMDL
