MODEL 1
REMARK VINA RESULT: -7.915759608      0.000      0.000
REMARK  16 active torsions:
REMARK  status: ('A' for Active; 'I' for Inactive)
REMARK    1  A    between atoms: C2_2  and  C3_3 
REMARK    2  A    between atoms: C3_3  and  C5_5 
REMARK    3  A    between atoms: C5_5  and  N1_6 
REMARK    4  A    between atoms: C5_5  and  C7_10 
REMARK    5  A    between atoms: N1_6  and  C6_8 
REMARK       I    between atoms: C7_10  and  N2_12 
REMARK    6  A    between atoms: N2_12  and  C8_14 
REMARK    7  A    between atoms: C8_14  and  C10_16 
REMARK    8  A    between atoms: C10_16  and  N4_19 
REMARK    9  A    between atoms: N4_19  and  C12_21 
REMARK   10  A    between atoms: C12_21  and  C13_22 
REMARK   11  A    between atoms: C12_21  and  C17_26 
REMARK   12  A    between atoms: C13_22  and  C14_23 
REMARK       I    between atoms: C17_26  and  N5_28 
REMARK   13  A    between atoms: N5_28  and  C18_30 
REMARK   14  A    between atoms: C18_30  and  C19_31 
REMARK   15  A    between atoms: C19_31  and  O4_32 
REMARK   16  A    between atoms: C19_31  and  C20_34 
ROOT
HETATM    1  C10 UNL     1      29.921 -48.153  43.061  1.00  0.00     0.208 C 
HETATM    2  C11 UNL     1      29.597 -49.578  42.763  1.00  0.00     0.086 C 
HETATM    3  N3  UNL     1      29.352 -50.685  42.530  1.00  0.00    -0.195 NA
ENDROOT
BRANCH   1   4
HETATM    4  C8  UNL     1      28.919 -47.718  44.154  1.00  0.00     0.116 C 
HETATM    5  C9  UNL     1      29.734 -47.440  45.392  1.00  0.00     0.035 C 
BRANCH   4   6
HETATM    6  N2  UNL     1      27.845 -48.631  44.329  1.00  0.00    -0.352 N 
HETATM    7  C7  UNL     1      26.473 -48.307  44.232  1.00  0.00     0.241 C 
HETATM    8  O2  UNL     1      26.223 -47.085  43.950  1.00  0.00    -0.271 OA
ATOM      9  H2  UNL     1      28.082 -49.600  44.541  1.00  0.00     0.163 HD
BRANCH   7  10
HETATM   10  C5  UNL     1      25.367 -49.274  44.435  1.00  0.00     0.179 C 
BRANCH  10  11
HETATM   11  C3  UNL     1      24.661 -49.667  43.175  1.00  0.00     0.013 C 
HETATM   12  C4  UNL     1      25.445 -50.783  42.514  1.00  0.00     0.012 C 
BRANCH  11  13
HETATM   13  C2  UNL     1      23.212 -49.925  43.260  1.00  0.00     0.002 C 
HETATM   14  C1  UNL     1      22.766 -51.332  43.406  1.00  0.00     0.005 C 
ENDBRANCH  11  13
ENDBRANCH  10  11
BRANCH  10  15
HETATM   15  N1  UNL     1      24.509 -48.853  45.510  1.00  0.00    -0.355 N 
ATOM     16  H1  UNL     1      23.726 -48.231  45.313  1.00  0.00     0.162 HD
BRANCH  15  17
HETATM   17  C6  UNL     1      24.734 -49.285  46.829  1.00  0.00     0.349 C 
HETATM   18  O1  UNL     1      24.022 -49.011  47.813  1.00  0.00    -0.284 OA
ENDBRANCH  15  17
ENDBRANCH  10  15
ENDBRANCH   7  10
ENDBRANCH   4   6
ENDBRANCH   1   4
BRANCH   1  19
HETATM   19  N4  UNL     1      29.808 -47.326  41.977  1.00  0.00    -0.392 N 
ATOM     20  H4  UNL     1      30.524 -47.391  41.254  1.00  0.00     0.155 HD
BRANCH  19  21
HETATM   21  C12 UNL     1      28.788 -46.408  41.792  1.00  0.00     0.170 C 
BRANCH  21  22
HETATM   22  C13 UNL     1      27.628 -46.659  40.913  1.00  0.00     0.038 C 
BRANCH  22  23
HETATM   23  C14 UNL     1      27.289 -48.049  40.575  1.00  0.00    -0.020 C 
HETATM   24  C15 UNL     1      25.881 -48.191  40.040  1.00  0.00     0.009 C 
HETATM   25  C16 UNL     1      28.198 -48.486  39.368  1.00  0.00     0.009 C 
ENDBRANCH  22  23
ENDBRANCH  21  22
BRANCH  21  26
HETATM   26  C17 UNL     1      29.474 -45.108  41.336  1.00  0.00     0.240 C 
HETATM   27  O3  UNL     1      30.349 -45.128  40.450  1.00  0.00    -0.271 OA
HETATM   28  N5  UNL     1      29.092 -43.908  41.938  1.00  0.00    -0.357 N 
ATOM     29  H5  UNL     1      28.374 -43.937  42.662  1.00  0.00     0.162 HD
BRANCH  28  30
HETATM   30  C18 UNL     1      29.665 -42.621  41.587  1.00  0.00     0.154 C 
BRANCH  30  31
HETATM   31  C19 UNL     1      28.645 -41.534  41.652  1.00  0.00     0.140 C 
BRANCH  31  32
HETATM   32  O4  UNL     1      27.601 -41.905  42.515  1.00  0.00    -0.394 OA
ATOM     33  H4  UNL     1      27.346 -41.165  43.054  1.00  0.00     0.210 HD
ENDBRANCH  31  32
BRANCH  31  34
HETATM   34  C20 UNL     1      29.231 -40.259  42.191  1.00  0.00     0.016 C 
HETATM   35  C21 UNL     1      29.248 -39.146  41.174  1.00  0.00     0.007 C 
HETATM   36  C22 UNL     1      29.585 -37.871  41.894  1.00  0.00     0.000 C 
HETATM   37  C23 UNL     1      30.119 -38.089  43.285  1.00  0.00     0.000 C 
HETATM   38  C24 UNL     1      31.138 -39.207  43.367  1.00  0.00     0.000 C 
HETATM   39  C25 UNL     1      30.636 -40.457  42.665  1.00  0.00     0.007 C 
ENDBRANCH  31  34
ENDBRANCH  30  31
ENDBRANCH  28  30
ENDBRANCH  21  26
ENDBRANCH  19  21
ENDBRANCH   1  19
TORSDOF 16
ENDMDL
MODEL 2
REMARK VINA RESULT: -7.810101789      2.933      5.647
REMARK  16 active torsions:
REMARK  status: ('A' for Active; 'I' for Inactive)
REMARK    1  A    between atoms: C2_2  and  C3_3 
REMARK    2  A    between atoms: C3_3  and  C5_5 
REMARK    3  A    between atoms: C5_5  and  N1_6 
REMARK    4  A    between atoms: C5_5  and  C7_10 
REMARK    5  A    between atoms: N1_6  and  C6_8 
REMARK       I    between atoms: C7_10  and  N2_12 
REMARK    6  A    between atoms: N2_12  and  C8_14 
REMARK    7  A    between atoms: C8_14  and  C10_16 
REMARK    8  A    between atoms: C10_16  and  N4_19 
REMARK    9  A    between atoms: N4_19  and  C12_21 
REMARK   10  A    between atoms: C12_21  and  C13_22 
REMARK   11  A    between atoms: C12_21  and  C17_26 
REMARK   12  A    between atoms: C13_22  and  C14_23 
REMARK       I    between atoms: C17_26  and  N5_28 
REMARK   13  A    between atoms: N5_28  and  C18_30 
REMARK   14  A    between atoms: C18_30  and  C19_31 
REMARK   15  A    between atoms: C19_31  and  O4_32 
REMARK   16  A    between atoms: C19_31  and  C20_34 
ROOT
HETATM    1  C10 UNL     1      29.794 -47.024  41.428  1.00  0.00     0.208 C 
HETATM    2  C11 UNL     1      30.543 -46.653  40.193  1.00  0.00     0.086 C 
HETATM    3  N3  UNL     1      31.128 -46.359  39.237  1.00  0.00    -0.195 NA
ENDROOT
BRANCH   1   4
HETATM    4  C8  UNL     1      29.792 -48.570  41.465  1.00  0.00     0.116 C 
HETATM    5  C9  UNL     1      30.784 -48.970  42.527  1.00  0.00     0.035 C 
BRANCH   4   6
HETATM    6  N2  UNL     1      29.994 -49.164  40.191  1.00  0.00    -0.352 N 
HETATM    7  C7  UNL     1      28.974 -49.487  39.269  1.00  0.00     0.241 C 
HETATM    8  O2  UNL     1      27.788 -49.191  39.646  1.00  0.00    -0.271 OA
ATOM      9  H2  UNL     1      30.955 -49.374  39.919  1.00  0.00     0.163 HD
BRANCH   7  10
HETATM   10  C5  UNL     1      29.208 -50.123  37.949  1.00  0.00     0.179 C 
BRANCH  10  11
HETATM   11  C3  UNL     1      30.612 -49.994  37.450  1.00  0.00     0.013 C 
HETATM   12  C4  UNL     1      30.988 -51.280  36.741  1.00  0.00     0.012 C 
BRANCH  11  13
HETATM   13  C2  UNL     1      30.957 -48.775  36.696  1.00  0.00     0.002 C 
HETATM   14  C1  UNL     1      32.312 -48.688  36.100  1.00  0.00     0.005 C 
ENDBRANCH  11  13
ENDBRANCH  10  11
BRANCH  10  15
HETATM   15  N1  UNL     1      28.188 -49.741  37.009  1.00  0.00    -0.355 N 
ATOM     16  H1  UNL     1      28.014 -48.752  36.832  1.00  0.00     0.162 HD
BRANCH  15  17
HETATM   17  C6  UNL     1      27.426 -50.709  36.332  1.00  0.00     0.349 C 
HETATM   18  O1  UNL     1      27.723 -51.233  35.242  1.00  0.00    -0.284 OA
ENDBRANCH  15  17
ENDBRANCH  10  15
ENDBRANCH   7  10
ENDBRANCH   4   6
ENDBRANCH   1   4
BRANCH   1  19
HETATM   19  N4  UNL     1      28.506 -46.561  41.448  1.00  0.00    -0.392 N 
ATOM     20  H4  UNL     1      28.019 -46.477  40.556  1.00  0.00     0.155 HD
BRANCH  19  21
HETATM   21  C12 UNL     1      27.819 -46.198  42.593  1.00  0.00     0.170 C 
BRANCH  21  22
HETATM   22  C13 UNL     1      26.548 -46.829  43.003  1.00  0.00     0.038 C 
BRANCH  22  23
HETATM   23  C14 UNL     1      26.504 -48.292  43.150  1.00  0.00    -0.020 C 
HETATM   24  C15 UNL     1      25.969 -48.725  44.498  1.00  0.00     0.009 C 
HETATM   25  C16 UNL     1      25.445 -48.845  42.127  1.00  0.00     0.009 C 
ENDBRANCH  22  23
ENDBRANCH  21  22
BRANCH  21  26
HETATM   26  C17 UNL     1      27.597 -44.679  42.484  1.00  0.00     0.240 C 
HETATM   27  O3  UNL     1      26.536 -44.162  42.883  1.00  0.00    -0.271 OA
HETATM   28  N5  UNL     1      28.610 -43.897  41.929  1.00  0.00    -0.357 N 
ATOM     29  H5  UNL     1      29.461 -44.361  41.611  1.00  0.00     0.162 HD
BRANCH  28  30
HETATM   30  C18 UNL     1      28.515 -42.456  41.780  1.00  0.00     0.154 C 
BRANCH  30  31
HETATM   31  C19 UNL     1      29.853 -41.806  41.890  1.00  0.00     0.140 C 
BRANCH  31  32
HETATM   32  O4  UNL     1      30.642 -42.136  40.775  1.00  0.00    -0.394 OA
ATOM     33  H4  UNL     1      30.836 -41.354  40.271  1.00  0.00     0.210 HD
ENDBRANCH  31  32
BRANCH  31  34
HETATM   34  C20 UNL     1      29.739 -40.307  41.921  1.00  0.00     0.016 C 
HETATM   35  C21 UNL     1      30.231 -39.656  40.653  1.00  0.00     0.007 C 
HETATM   36  C22 UNL     1      29.814 -38.213  40.686  1.00  0.00     0.000 C 
HETATM   37  C23 UNL     1      29.350 -37.753  42.043  1.00  0.00     0.000 C 
HETATM   38  C24 UNL     1      30.235 -38.232  43.174  1.00  0.00     0.000 C 
HETATM   39  C25 UNL     1      30.514 -39.721  43.057  1.00  0.00     0.007 C 
ENDBRANCH  31  34
ENDBRANCH  30  31
ENDBRANCH  28  30
ENDBRANCH  21  26
ENDBRANCH  19  21
ENDBRANCH   1  19
TORSDOF 16
ENDMDL
MODEL 3
REMARK VINA RESULT: -7.779103801      2.524      4.399
REMARK  16 active torsions:
REMARK  status: ('A' for Active; 'I' for Inactive)
REMARK    1  A    between atoms: C2_2  and  C3_3 
REMARK    2  A    between atoms: C3_3  and  C5_5 
REMARK    3  A    between atoms: C5_5  and  N1_6 
REMARK    4  A    between atoms: C5_5  and  C7_10 
REMARK    5  A    between atoms: N1_6  and  C6_8 
REMARK       I    between atoms: C7_10  and  N2_12 
REMARK    6  A    between atoms: N2_12  and  C8_14 
REMARK    7  A    between atoms: C8_14  and  C10_16 
REMARK    8  A    between atoms: C10_16  and  N4_19 
REMARK    9  A    between atoms: N4_19  and  C12_21 
REMARK   10  A    between atoms: C12_21  and  C13_22 
REMARK   11  A    between atoms: C12_21  and  C17_26 
REMARK   12  A    between atoms: C13_22  and  C14_23 
REMARK       I    between atoms: C17_26  and  N5_28 
REMARK   13  A    between atoms: N5_28  and  C18_30 
REMARK   14  A    between atoms: C18_30  and  C19_31 
REMARK   15  A    between atoms: C19_31  and  O4_32 
REMARK   16  A    between atoms: C19_31  and  C20_34 
ROOT
HETATM    1  C10 UNL     1      29.733 -47.111  41.403  1.00  0.00     0.208 C 
HETATM    2  C11 UNL     1      30.492 -46.650  40.205  1.00  0.00     0.086 C 
HETATM    3  N3  UNL     1      31.084 -46.286  39.279  1.00  0.00    -0.195 NA
ENDROOT
BRANCH   1   4
HETATM    4  C8  UNL     1      29.706 -48.654  41.309  1.00  0.00     0.116 C 
HETATM    5  C9  UNL     1      28.677 -48.998  40.262  1.00  0.00     0.035 C 
BRANCH   4   6
HETATM    6  N2  UNL     1      29.528 -49.291  42.566  1.00  0.00    -0.352 N 
HETATM    7  C7  UNL     1      30.561 -49.842  43.356  1.00  0.00     0.241 C 
HETATM    8  O2  UNL     1      31.737 -49.724  42.869  1.00  0.00    -0.271 OA
ATOM      9  H2  UNL     1      28.576 -49.355  42.929  1.00  0.00     0.163 HD
BRANCH   7  10
HETATM   10  C5  UNL     1      30.349 -50.518  44.660  1.00  0.00     0.179 C 
BRANCH  10  11
HETATM   11  C3  UNL     1      29.366 -49.829  45.552  1.00  0.00     0.013 C 
HETATM   12  C4  UNL     1      28.447 -50.876  46.151  1.00  0.00     0.012 C 
BRANCH  11  13
HETATM   13  C2  UNL     1      29.897 -48.869  46.536  1.00  0.00     0.002 C 
HETATM   14  C1  UNL     1      30.260 -47.514  46.055  1.00  0.00     0.005 C 
ENDBRANCH  11  13
ENDBRANCH  10  11
BRANCH  10  15
HETATM   15  N1  UNL     1      31.607 -50.847  45.275  1.00  0.00    -0.355 N 
ATOM     16  H1  UNL     1      32.357 -50.156  45.284  1.00  0.00     0.162 HD
BRANCH  15  17
HETATM   17  C6  UNL     1      31.820 -52.106  45.865  1.00  0.00     0.349 C 
HETATM   18  O1  UNL     1      31.161 -53.136  45.631  1.00  0.00    -0.284 OA
ENDBRANCH  15  17
ENDBRANCH  10  15
ENDBRANCH   7  10
ENDBRANCH   4   6
ENDBRANCH   1   4
BRANCH   1  19
HETATM   19  N4  UNL     1      28.453 -46.630  41.459  1.00  0.00    -0.392 N 
ATOM     20  H4  UNL     1      27.937 -46.554  40.583  1.00  0.00     0.155 HD
BRANCH  19  21
HETATM   21  C12 UNL     1      27.810 -46.240  42.621  1.00  0.00     0.170 C 
BRANCH  21  22
HETATM   22  C13 UNL     1      26.549 -46.849  43.087  1.00  0.00     0.038 C 
BRANCH  22  23
HETATM   23  C14 UNL     1      26.502 -48.306  43.284  1.00  0.00    -0.020 C 
HETATM   24  C15 UNL     1      25.881 -48.695  44.609  1.00  0.00     0.009 C 
HETATM   25  C16 UNL     1      25.515 -48.905  42.215  1.00  0.00     0.009 C 
ENDBRANCH  22  23
ENDBRANCH  21  22
BRANCH  21  26
HETATM   26  C17 UNL     1      27.600 -44.721  42.493  1.00  0.00     0.240 C 
HETATM   27  O3  UNL     1      26.539 -44.192  42.876  1.00  0.00    -0.271 OA
HETATM   28  N5  UNL     1      28.625 -43.952  41.940  1.00  0.00    -0.357 N 
ATOM     29  H5  UNL     1      29.475 -44.426  41.636  1.00  0.00     0.162 HD
BRANCH  28  30
HETATM   30  C18 UNL     1      28.541 -42.512  41.774  1.00  0.00     0.154 C 
BRANCH  30  31
HETATM   31  C19 UNL     1      29.887 -41.873  41.863  1.00  0.00     0.140 C 
BRANCH  31  32
HETATM   32  O4  UNL     1      30.639 -42.175  40.716  1.00  0.00    -0.394 OA
ATOM     33  H4  UNL     1      31.206 -42.919  40.885  1.00  0.00     0.210 HD
ENDBRANCH  31  32
BRANCH  31  34
HETATM   34  C20 UNL     1      29.783 -40.375  41.941  1.00  0.00     0.016 C 
HETATM   35  C21 UNL     1      30.218 -39.691  40.669  1.00  0.00     0.007 C 
HETATM   36  C22 UNL     1      29.813 -38.248  40.762  1.00  0.00     0.000 C 
HETATM   37  C23 UNL     1      29.416 -37.823  42.151  1.00  0.00     0.000 C 
HETATM   38  C24 UNL     1      30.351 -38.339  43.225  1.00  0.00     0.000 C 
HETATM   39  C25 UNL     1      30.614 -39.825  43.055  1.00  0.00     0.007 C 
ENDBRANCH  31  34
ENDBRANCH  30  31
ENDBRANCH  28  30
ENDBRANCH  21  26
ENDBRANCH  19  21
ENDBRANCH   1  19
TORSDOF 16
ENDMDL
MODEL 4
REMARK VINA RESULT: -7.686900549      1.607      2.173
REMARK  16 active torsions:
REMARK  status: ('A' for Active; 'I' for Inactive)
REMARK    1  A    between atoms: C2_2  and  C3_3 
REMARK    2  A    between atoms: C3_3  and  C5_5 
REMARK    3  A    between atoms: C5_5  and  N1_6 
REMARK    4  A    between atoms: C5_5  and  C7_10 
REMARK    5  A    between atoms: N1_6  and  C6_8 
REMARK       I    between atoms: C7_10  and  N2_12 
REMARK    6  A    between atoms: N2_12  and  C8_14 
REMARK    7  A    between atoms: C8_14  and  C10_16 
REMARK    8  A    between atoms: C10_16  and  N4_19 
REMARK    9  A    between atoms: N4_19  and  C12_21 
REMARK   10  A    between atoms: C12_21  and  C13_22 
REMARK   11  A    between atoms: C12_21  and  C17_26 
REMARK   12  A    between atoms: C13_22  and  C14_23 
REMARK       I    between atoms: C17_26  and  N5_28 
REMARK   13  A    between atoms: N5_28  and  C18_30 
REMARK   14  A    between atoms: C18_30  and  C19_31 
REMARK   15  A    between atoms: C19_31  and  O4_32 
REMARK   16  A    between atoms: C19_31  and  C20_34 
ROOT
HETATM    1  C10 UNL     1      29.993 -47.097  43.067  1.00  0.00     0.208 C 
HETATM    2  C11 UNL     1      30.252 -48.388  42.367  1.00  0.00     0.086 C 
HETATM    3  N3  UNL     1      30.462 -49.387  41.821  1.00  0.00    -0.195 NA
ENDROOT
BRANCH   1   4
HETATM    4  C8  UNL     1      29.030 -47.441  44.228  1.00  0.00     0.116 C 
HETATM    5  C9  UNL     1      29.861 -47.426  45.487  1.00  0.00     0.035 C 
BRANCH   4   6
HETATM    6  N2  UNL     1      28.285 -48.630  44.008  1.00  0.00    -0.352 N 
HETATM    7  C7  UNL     1      26.876 -48.729  44.048  1.00  0.00     0.241 C 
HETATM    8  O2  UNL     1      26.262 -47.634  44.291  1.00  0.00    -0.271 OA
ATOM      9  H2  UNL     1      28.809 -49.481  43.805  1.00  0.00     0.163 HD
BRANCH   7  10
HETATM   10  C5  UNL     1      26.118 -49.986  43.831  1.00  0.00     0.179 C 
BRANCH  10  11
HETATM   11  C3  UNL     1      26.901 -51.059  43.143  1.00  0.00     0.013 C 
HETATM   12  C4  UNL     1      27.088 -52.211  44.110  1.00  0.00     0.012 C 
BRANCH  11  13
HETATM   13  C2  UNL     1      26.451 -51.475  41.802  1.00  0.00     0.002 C 
HETATM   14  C1  UNL     1      27.481 -51.655  40.750  1.00  0.00     0.005 C 
ENDBRANCH  11  13
ENDBRANCH  10  11
BRANCH  10  15
HETATM   15  N1  UNL     1      24.825 -49.712  43.263  1.00  0.00    -0.355 N 
ATOM     16  H1  UNL     1      24.763 -49.235  42.364  1.00  0.00     0.162 HD
BRANCH  15  17
HETATM   17  C6  UNL     1      23.646 -50.091  43.928  1.00  0.00     0.349 C 
HETATM   18  O1  UNL     1      22.498 -50.056  43.445  1.00  0.00    -0.284 OA
ENDBRANCH  15  17
ENDBRANCH  10  15
ENDBRANCH   7  10
ENDBRANCH   4   6
ENDBRANCH   1   4
BRANCH   1  19
HETATM   19  N4  UNL     1      29.426 -46.143  42.267  1.00  0.00    -0.392 N 
ATOM     20  H4  UNL     1      30.051 -45.496  41.787  1.00  0.00     0.155 HD
BRANCH  19  21
HETATM   21  C12 UNL     1      28.065 -45.994  42.064  1.00  0.00     0.170 C 
BRANCH  21  22
HETATM   22  C13 UNL     1      27.382 -46.430  40.829  1.00  0.00     0.038 C 
BRANCH  22  23
HETATM   23  C14 UNL     1      27.278 -47.872  40.554  1.00  0.00    -0.020 C 
HETATM   24  C15 UNL     1      25.898 -48.275  40.082  1.00  0.00     0.009 C 
HETATM   25  C16 UNL     1      28.207 -48.196  39.327  1.00  0.00     0.009 C 
ENDBRANCH  22  23
ENDBRANCH  21  22
BRANCH  21  26
HETATM   26  C17 UNL     1      27.770 -44.500  42.282  1.00  0.00     0.240 C 
HETATM   27  O3  UNL     1      26.764 -44.138  42.921  1.00  0.00    -0.271 OA
HETATM   28  N5  UNL     1      28.655 -43.562  41.749  1.00  0.00    -0.357 N 
ATOM     29  H5  UNL     1      29.464 -43.902  41.229  1.00  0.00     0.162 HD
BRANCH  28  30
HETATM   30  C18 UNL     1      28.482 -42.128  41.895  1.00  0.00     0.154 C 
BRANCH  30  31
HETATM   31  C19 UNL     1      29.794 -41.432  42.037  1.00  0.00     0.140 C 
BRANCH  31  32
HETATM   32  O4  UNL     1      30.663 -41.829  41.007  1.00  0.00    -0.394 OA
ATOM     33  H4  UNL     1      31.094 -42.643  41.241  1.00  0.00     0.210 HD
ENDBRANCH  31  32
BRANCH  31  34
HETATM   34  C20 UNL     1      29.641 -39.940  41.934  1.00  0.00     0.016 C 
HETATM   35  C21 UNL     1      30.189 -39.382  40.645  1.00  0.00     0.007 C 
HETATM   36  C22 UNL     1      29.736 -37.954  40.532  1.00  0.00     0.000 C 
HETATM   37  C23 UNL     1      29.183 -37.396  41.817  1.00  0.00     0.000 C 
HETATM   38  C24 UNL     1      30.013 -37.754  43.032  1.00  0.00     0.000 C 
HETATM   39  C25 UNL     1      30.335 -39.238  43.058  1.00  0.00     0.007 C 
ENDBRANCH  31  34
ENDBRANCH  30  31
ENDBRANCH  28  30
ENDBRANCH  21  26
ENDBRANCH  19  21
ENDBRANCH   1  19
TORSDOF 16
ENDMDL
MODEL 5
REMARK VINA RESULT: -7.680909761      2.522      4.832
REMARK  16 active torsions:
REMARK  status: ('A' for Active; 'I' for Inactive)
REMARK    1  A    between atoms: C2_2  and  C3_3 
REMARK    2  A    between atoms: C3_3  and  C5_5 
REMARK    3  A    between atoms: C5_5  and  N1_6 
REMARK    4  A    between atoms: C5_5  and  C7_10 
REMARK    5  A    between atoms: N1_6  and  C6_8 
REMARK       I    between atoms: C7_10  and  N2_12 
REMARK    6  A    between atoms: N2_12  and  C8_14 
REMARK    7  A    between atoms: C8_14  and  C10_16 
REMARK    8  A    between atoms: C10_16  and  N4_19 
REMARK    9  A    between atoms: N4_19  and  C12_21 
REMARK   10  A    between atoms: C12_21  and  C13_22 
REMARK   11  A    between atoms: C12_21  and  C17_26 
REMARK   12  A    between atoms: C13_22  and  C14_23 
REMARK       I    between atoms: C17_26  and  N5_28 
REMARK   13  A    between atoms: N5_28  and  C18_30 
REMARK   14  A    between atoms: C18_30  and  C19_31 
REMARK   15  A    between atoms: C19_31  and  O4_32 
REMARK   16  A    between atoms: C19_31  and  C20_34 
ROOT
HETATM    1  C10 UNL     1      26.733 -48.020  43.757  1.00  0.00     0.208 C 
HETATM    2  C11 UNL     1      27.833 -49.014  43.915  1.00  0.00     0.086 C 
HETATM    3  N3  UNL     1      28.687 -49.785  44.046  1.00  0.00    -0.195 NA
ENDROOT
BRANCH   1   4
HETATM    4  C8  UNL     1      25.970 -48.444  42.481  1.00  0.00     0.116 C 
HETATM    5  C9  UNL     1      24.677 -49.065  42.946  1.00  0.00     0.035 C 
BRANCH   4   6
HETATM    6  N2  UNL     1      26.745 -49.244  41.601  1.00  0.00    -0.352 N 
HETATM    7  C7  UNL     1      26.773 -49.119  40.194  1.00  0.00     0.241 C 
HETATM    8  O2  UNL     1      26.036 -48.189  39.717  1.00  0.00    -0.271 OA
ATOM      9  H2  UNL     1      27.330 -49.969  42.018  1.00  0.00     0.163 HD
BRANCH   7  10
HETATM   10  C5  UNL     1      27.579 -49.979  39.292  1.00  0.00     0.179 C 
BRANCH  10  11
HETATM   11  C3  UNL     1      28.974 -49.488  39.067  1.00  0.00     0.013 C 
HETATM   12  C4  UNL     1      29.936 -50.616  39.382  1.00  0.00     0.012 C 
BRANCH  11  13
HETATM   13  C2  UNL     1      29.256 -48.802  37.793  1.00  0.00     0.002 C 
HETATM   14  C1  UNL     1      30.675 -48.609  37.409  1.00  0.00     0.005 C 
ENDBRANCH  11  13
ENDBRANCH  10  11
BRANCH  10  15
HETATM   15  N1  UNL     1      26.843 -50.298  38.098  1.00  0.00    -0.355 N 
ATOM     16  H1  UNL     1      26.367 -49.555  37.588  1.00  0.00     0.162 HD
BRANCH  15  17
HETATM   17  C6  UNL     1      26.770 -51.620  37.623  1.00  0.00     0.349 C 
HETATM   18  O1  UNL     1      27.707 -52.257  37.105  1.00  0.00    -0.284 OA
ENDBRANCH  15  17
ENDBRANCH  10  15
ENDBRANCH   7  10
ENDBRANCH   4   6
ENDBRANCH   1   4
BRANCH   1  19
HETATM   19  N4  UNL     1      27.173 -46.731  43.624  1.00  0.00    -0.392 N 
ATOM     20  H4  UNL     1      26.889 -46.057  44.334  1.00  0.00     0.155 HD
BRANCH  19  21
HETATM   21  C12 UNL     1      27.977 -46.278  42.592  1.00  0.00     0.170 C 
BRANCH  21  22
HETATM   22  C13 UNL     1      29.437 -46.496  42.553  1.00  0.00     0.038 C 
BRANCH  22  23
HETATM   23  C14 UNL     1      29.995 -47.332  41.478  1.00  0.00    -0.020 C 
HETATM   24  C15 UNL     1      30.705 -46.518  40.418  1.00  0.00     0.009 C 
HETATM   25  C16 UNL     1      31.137 -48.217  42.101  1.00  0.00     0.009 C 
ENDBRANCH  22  23
ENDBRANCH  21  22
BRANCH  21  26
HETATM   26  C17 UNL     1      27.707 -44.767  42.483  1.00  0.00     0.240 C 
HETATM   27  O3  UNL     1      26.590 -44.299  42.776  1.00  0.00    -0.271 OA
HETATM   28  N5  UNL     1      28.741 -43.936  42.050  1.00  0.00    -0.357 N 
ATOM     29  H5  UNL     1      29.638 -44.361  41.817  1.00  0.00     0.162 HD
BRANCH  28  30
HETATM   30  C18 UNL     1      28.603 -42.497  41.914  1.00  0.00     0.154 C 
BRANCH  30  31
HETATM   31  C19 UNL     1      29.933 -41.821  41.895  1.00  0.00     0.140 C 
BRANCH  31  32
HETATM   32  O4  UNL     1      30.620 -42.142  40.712  1.00  0.00    -0.394 OA
ATOM     33  H4  UNL     1      31.400 -42.645  40.915  1.00  0.00     0.210 HD
ENDBRANCH  31  32
BRANCH  31  34
HETATM   34  C20 UNL     1      29.793 -40.324  41.930  1.00  0.00     0.016 C 
HETATM   35  C21 UNL     1      30.208 -39.666  40.639  1.00  0.00     0.007 C 
HETATM   36  C22 UNL     1      29.767 -38.231  40.692  1.00  0.00     0.000 C 
HETATM   37  C23 UNL     1      29.364 -37.777  42.070  1.00  0.00     0.000 C 
HETATM   38  C24 UNL     1      30.314 -38.239  43.155  1.00  0.00     0.000 C 
HETATM   39  C25 UNL     1      30.614 -39.722  43.026  1.00  0.00     0.007 C 
ENDBRANCH  31  34
ENDBRANCH  30  31
ENDBRANCH  28  30
ENDBRANCH  21  26
ENDBRANCH  19  21
ENDBRANCH   1  19
TORSDOF 16
ENDMDL
