MODEL 1
REMARK VINA RESULT: -7.772693241      0.000      0.000
REMARK  15 active torsions:
REMARK  status: ('A' for Active; 'I' for Inactive)
REMARK    1  A    between atoms: C2_2  and  C3_3 
REMARK    2  A    between atoms: C3_3  and  O1_4 
REMARK    3  A    between atoms: C3_3  and  C4_6 
REMARK    4  A    between atoms: C4_6  and  C5_7 
REMARK    5  A    between atoms: C4_6  and  C7_9 
REMARK    6  A    between atoms: C7_9  and  N1_10 
REMARK    7  A    between atoms: C7_9  and  C23_34 
REMARK    8  A    between atoms: N1_10  and  C8_13 
REMARK    9  A    between atoms: C8_13  and  C9_14 
REMARK   10  A    between atoms: C8_13  and  C16_21 
REMARK   11  A    between atoms: C9_14  and  C10_15 
REMARK       I    between atoms: C16_21  and  N2_23 
REMARK   12  A    between atoms: N2_23  and  C17_25 
REMARK   13  A    between atoms: C17_25  and  C19_27 
REMARK       I    between atoms: C19_27  and  N3_29 
REMARK   14  A    between atoms: N3_29  and  C20_31 
REMARK   15  A    between atoms: C23_34  and  C24_36 
ROOT
HETATM    1  C8  UNL     1      27.752 -47.233  42.032  1.00  0.00     0.278 C 
ENDROOT
BRANCH   1   2
HETATM    2  N1  UNL     1      29.143 -47.594  41.919  1.00  0.00    -0.050 N 
ATOM      3  H12 UNL     1      29.642 -47.357  42.776  1.00  0.00     0.279 HD
ATOM      4  H11 UNL     1      29.619 -46.974  41.262  1.00  0.00     0.279 HD
BRANCH   2   5
HETATM    5  C7  UNL     1      29.374 -48.979  41.566  1.00  0.00     0.269 C 
BRANCH   5   6
HETATM    6  C4  UNL     1      30.118 -49.671  42.701  1.00  0.00     0.053 C 
BRANCH   6   7
HETATM    7  C3  UNL     1      30.730 -48.745  43.691  1.00  0.00     0.124 C 
BRANCH   7   8
HETATM    8  C2  UNL     1      30.204 -48.994  45.110  1.00  0.00     0.027 C 
HETATM    9  C1  UNL     1      30.197 -47.616  45.786  1.00  0.00     0.007 C 
ENDBRANCH   7   8
BRANCH   7  10
HETATM   10  O1  UNL     1      32.109 -48.881  43.803  1.00  0.00    -0.395 OA
ATOM     11  H1  UNL     1      32.294 -49.737  43.433  1.00  0.00     0.210 HD
ENDBRANCH   7  10
ENDBRANCH   6   7
BRANCH   6  12
HETATM   12  C5  UNL     1      29.206 -50.660  43.416  1.00  0.00     0.005 C 
HETATM   13  C6  UNL     1      28.351 -51.432  42.409  1.00  0.00     0.005 C 
ENDBRANCH   6  12
ENDBRANCH   5   6
BRANCH   5  14
HETATM   14  C23 UNL     1      30.132 -49.130  40.328  1.00  0.00     0.215 C 
HETATM   15  O4  UNL     1      30.867 -50.170  40.155  1.00  0.00    -0.288 OA
BRANCH  14  16
HETATM   16  C24 UNL     1      30.120 -48.166  39.253  1.00  0.00     0.160 C 
HETATM   17  N4  UNL     1      30.579 -46.829  39.502  1.00  0.00    -0.086 NA
HETATM   18  S1  UNL     1      29.592 -48.559  37.752  1.00  0.00    -0.060 SA
ENDBRANCH  14  16
ENDBRANCH   5  14
ENDBRANCH   2   5
ENDBRANCH   1   2
BRANCH   1  19
HETATM   19  C9  UNL     1      27.289 -47.292  43.470  1.00  0.00     0.047 C 
BRANCH  19  20
HETATM   20  C10 UNL     1      26.032 -48.049  43.705  1.00  0.00    -0.012 C 
HETATM   21  C11 UNL     1      26.361 -49.065  44.819  1.00  0.00     0.005 C 
HETATM   22  C12 UNL     1      25.282 -50.091  44.934  1.00  0.00     0.000 C 
HETATM   23  C13 UNL     1      24.010 -49.624  44.248  1.00  0.00     0.000 C 
HETATM   24  C14 UNL     1      24.323 -49.565  42.770  1.00  0.00     0.000 C 
HETATM   25  C15 UNL     1      25.682 -48.921  42.511  1.00  0.00     0.005 C 
ENDBRANCH  19  20
ENDBRANCH   1  19
BRANCH   1  26
HETATM   26  C16 UNL     1      27.566 -45.865  41.468  1.00  0.00     0.249 C 
HETATM   27  O2  UNL     1      27.153 -45.773  40.290  1.00  0.00    -0.271 OA
HETATM   28  N2  UNL     1      27.828 -44.683  42.185  1.00  0.00    -0.346 N 
ATOM     29  H2  UNL     1      28.151 -44.764  43.149  1.00  0.00     0.163 HD
BRANCH  28  30
HETATM   30  C17 UNL     1      27.661 -43.352  41.623  1.00  0.00     0.172 C 
HETATM   31  C18 UNL     1      26.768 -42.510  42.558  1.00  0.00     0.042 C 
BRANCH  30  32
HETATM   32  C19 UNL     1      28.941 -42.634  41.550  1.00  0.00     0.240 C 
HETATM   33  O3  UNL     1      29.997 -43.344  41.438  1.00  0.00    -0.271 OA
HETATM   34  N3  UNL     1      29.075 -41.234  41.595  1.00  0.00    -0.355 N 
ATOM     35  H3  UNL     1      28.236 -40.659  41.680  1.00  0.00     0.162 HD
BRANCH  34  36
HETATM   36  C20 UNL     1      30.362 -40.586  41.525  1.00  0.00     0.076 C 
HETATM   37  C21 UNL     1      30.370 -39.345  40.684  1.00  0.00     0.032 C 
HETATM   38  C22 UNL     1      30.928 -40.264  42.888  1.00  0.00     0.032 C 
ENDBRANCH  34  36
ENDBRANCH  30  32
ENDBRANCH  28  30
ENDBRANCH   1  26
TORSDOF 15
ENDMDL
MODEL 2
REMARK VINA RESULT: -7.574769380      1.637      2.464
REMARK  15 active torsions:
REMARK  status: ('A' for Active; 'I' for Inactive)
REMARK    1  A    between atoms: C2_2  and  C3_3 
REMARK    2  A    between atoms: C3_3  and  O1_4 
REMARK    3  A    between atoms: C3_3  and  C4_6 
REMARK    4  A    between atoms: C4_6  and  C5_7 
REMARK    5  A    between atoms: C4_6  and  C7_9 
REMARK    6  A    between atoms: C7_9  and  N1_10 
REMARK    7  A    between atoms: C7_9  and  C23_34 
REMARK    8  A    between atoms: N1_10  and  C8_13 
REMARK    9  A    between atoms: C8_13  and  C9_14 
REMARK   10  A    between atoms: C8_13  and  C16_21 
REMARK   11  A    between atoms: C9_14  and  C10_15 
REMARK       I    between atoms: C16_21  and  N2_23 
REMARK   12  A    between atoms: N2_23  and  C17_25 
REMARK   13  A    between atoms: C17_25  and  C19_27 
REMARK       I    between atoms: C19_27  and  N3_29 
REMARK   14  A    between atoms: N3_29  and  C20_31 
REMARK   15  A    between atoms: C23_34  and  C24_36 
ROOT
HETATM    1  C8  UNL     1      28.390 -46.841  42.005  1.00  0.00     0.278 C 
ENDROOT
BRANCH   1   2
HETATM    2  N1  UNL     1      29.727 -47.158  41.569  1.00  0.00    -0.050 N 
ATOM      3  H12 UNL     1      30.300 -47.446  42.362  1.00  0.00     0.279 HD
ATOM      4  H11 UNL     1      30.222 -46.310  41.294  1.00  0.00     0.279 HD
BRANCH   2   5
HETATM    5  C7  UNL     1      29.791 -48.147  40.513  1.00  0.00     0.269 C 
BRANCH   5   6
HETATM    6  C4  UNL     1      30.652 -49.318  40.971  1.00  0.00     0.053 C 
BRANCH   6   7
HETATM    7  C3  UNL     1      31.138 -49.214  42.372  1.00  0.00     0.124 C 
BRANCH   7   8
HETATM    8  C2  UNL     1      31.797 -50.514  42.848  1.00  0.00     0.027 C 
HETATM    9  C1  UNL     1      33.174 -50.098  43.382  1.00  0.00     0.007 C 
ENDBRANCH   7   8
BRANCH   7  10
HETATM   10  O1  UNL     1      32.115 -48.243  42.553  1.00  0.00    -0.395 OA
ATOM     11  H1  UNL     1      32.242 -48.206  43.494  1.00  0.00     0.210 HD
ENDBRANCH   7  10
ENDBRANCH   6   7
BRANCH   6  12
HETATM   12  C5  UNL     1      29.912 -50.635  40.778  1.00  0.00     0.005 C 
HETATM   13  C6  UNL     1      28.456 -50.509  41.233  1.00  0.00     0.005 C 
ENDBRANCH   6  12
ENDBRANCH   5   6
BRANCH   5  14
HETATM   14  C23 UNL     1      30.327 -47.611  39.266  1.00  0.00     0.215 C 
HETATM   15  O4  UNL     1      30.965 -46.495  39.276  1.00  0.00    -0.288 OA
BRANCH  14  16
HETATM   16  C24 UNL     1      30.185 -48.258  37.984  1.00  0.00     0.160 C 
HETATM   17  N4  UNL     1      28.975 -48.970  37.685  1.00  0.00    -0.086 NA
HETATM   18  S1  UNL     1      31.375 -48.205  36.857  1.00  0.00    -0.060 SA
ENDBRANCH  14  16
ENDBRANCH   5  14
ENDBRANCH   2   5
ENDBRANCH   1   2
BRANCH   1  19
HETATM   19  C9  UNL     1      28.288 -46.869  43.513  1.00  0.00     0.047 C 
BRANCH  19  20
HETATM   20  C10 UNL     1      28.672 -48.152  44.156  1.00  0.00    -0.012 C 
HETATM   21  C11 UNL     1      27.358 -48.757  44.693  1.00  0.00     0.005 C 
HETATM   22  C12 UNL     1      27.640 -49.888  45.628  1.00  0.00     0.000 C 
HETATM   23  C13 UNL     1      29.066 -50.388  45.464  1.00  0.00     0.000 C 
HETATM   24  C14 UNL     1      29.965 -49.269  45.938  1.00  0.00     0.000 C 
HETATM   25  C15 UNL     1      29.502 -47.916  45.407  1.00  0.00     0.005 C 
ENDBRANCH  19  20
ENDBRANCH   1  19
BRANCH   1  26
HETATM   26  C16 UNL     1      28.020 -45.499  41.471  1.00  0.00     0.249 C 
HETATM   27  O2  UNL     1      27.310 -45.459  40.441  1.00  0.00    -0.271 OA
HETATM   28  N2  UNL     1      28.422 -44.285  42.060  1.00  0.00    -0.346 N 
ATOM     29  H2  UNL     1      28.989 -44.324  42.907  1.00  0.00     0.163 HD
BRANCH  28  30
HETATM   30  C17 UNL     1      28.072 -42.980  41.523  1.00  0.00     0.172 C 
HETATM   31  C18 UNL     1      26.979 -42.341  42.405  1.00  0.00     0.042 C 
BRANCH  30  32
HETATM   32  C19 UNL     1      29.211 -42.053  41.574  1.00  0.00     0.240 C 
HETATM   33  O3  UNL     1      30.351 -42.518  41.232  1.00  0.00    -0.271 OA
HETATM   34  N3  UNL     1      29.127 -40.706  41.972  1.00  0.00    -0.355 N 
ATOM     35  H3  UNL     1      28.220 -40.326  42.243  1.00  0.00     0.162 HD
BRANCH  34  36
HETATM   36  C20 UNL     1      30.284 -39.846  42.007  1.00  0.00     0.076 C 
HETATM   37  C21 UNL     1      30.386 -38.919  40.833  1.00  0.00     0.032 C 
HETATM   38  C22 UNL     1      30.374 -39.041  43.282  1.00  0.00     0.032 C 
ENDBRANCH  34  36
ENDBRANCH  30  32
ENDBRANCH  28  30
ENDBRANCH   1  26
TORSDOF 15
ENDMDL
MODEL 3
REMARK VINA RESULT: -7.510151087      1.419      1.753
REMARK  15 active torsions:
REMARK  status: ('A' for Active; 'I' for Inactive)
REMARK    1  A    between atoms: C2_2  and  C3_3 
REMARK    2  A    between atoms: C3_3  and  O1_4 
REMARK    3  A    between atoms: C3_3  and  C4_6 
REMARK    4  A    between atoms: C4_6  and  C5_7 
REMARK    5  A    between atoms: C4_6  and  C7_9 
REMARK    6  A    between atoms: C7_9  and  N1_10 
REMARK    7  A    between atoms: C7_9  and  C23_34 
REMARK    8  A    between atoms: N1_10  and  C8_13 
REMARK    9  A    between atoms: C8_13  and  C9_14 
REMARK   10  A    between atoms: C8_13  and  C16_21 
REMARK   11  A    between atoms: C9_14  and  C10_15 
REMARK       I    between atoms: C16_21  and  N2_23 
REMARK   12  A    between atoms: N2_23  and  C17_25 
REMARK   13  A    between atoms: C17_25  and  C19_27 
REMARK       I    between atoms: C19_27  and  N3_29 
REMARK   14  A    between atoms: N3_29  and  C20_31 
REMARK   15  A    between atoms: C23_34  and  C24_36 
ROOT
HETATM    1  C8  UNL     1      28.310 -46.891  42.036  1.00  0.00     0.278 C 
ENDROOT
BRANCH   1   2
HETATM    2  N1  UNL     1      29.653 -47.217  41.626  1.00  0.00    -0.050 N 
ATOM      3  H12 UNL     1      30.216 -47.487  42.432  1.00  0.00     0.279 HD
ATOM      4  H11 UNL     1      30.152 -46.374  41.338  1.00  0.00     0.279 HD
BRANCH   2   5
HETATM    5  C7  UNL     1      29.732 -48.228  40.592  1.00  0.00     0.269 C 
BRANCH   5   6
HETATM    6  C4  UNL     1      30.627 -49.365  41.066  1.00  0.00     0.053 C 
BRANCH   6   7
HETATM    7  C3  UNL     1      31.094 -49.235  42.473  1.00  0.00     0.124 C 
BRANCH   7   8
HETATM    8  C2  UNL     1      31.685 -50.547  43.004  1.00  0.00     0.027 C 
HETATM    9  C1  UNL     1      33.149 -50.228  43.333  1.00  0.00     0.007 C 
ENDBRANCH   7   8
BRANCH   7  10
HETATM   10  O1  UNL     1      32.112 -48.304  42.639  1.00  0.00    -0.395 OA
ATOM     11  H1  UNL     1      31.782 -47.515  42.224  1.00  0.00     0.210 HD
ENDBRANCH   7  10
ENDBRANCH   6   7
BRANCH   6  12
HETATM   12  C5  UNL     1      29.937 -50.709  40.875  1.00  0.00     0.005 C 
HETATM   13  C6  UNL     1      28.429 -50.579  41.102  1.00  0.00     0.005 C 
ENDBRANCH   6  12
ENDBRANCH   5   6
BRANCH   5  14
HETATM   14  C23 UNL     1      30.239 -47.708  39.327  1.00  0.00     0.215 C 
HETATM   15  O4  UNL     1      30.851 -46.577  39.304  1.00  0.00    -0.288 OA
BRANCH  14  16
HETATM   16  C24 UNL     1      30.098 -48.387  38.061  1.00  0.00     0.160 C 
HETATM   17  N4  UNL     1      28.915 -49.158  37.805  1.00  0.00    -0.086 NA
HETATM   18  S1  UNL     1      31.258 -48.304  36.906  1.00  0.00    -0.060 SA
ENDBRANCH  14  16
ENDBRANCH   5  14
ENDBRANCH   2   5
ENDBRANCH   1   2
BRANCH   1  19
HETATM   19  C9  UNL     1      28.182 -46.910  43.542  1.00  0.00     0.047 C 
BRANCH  19  20
HETATM   20  C10 UNL     1      27.190 -47.873  44.087  1.00  0.00    -0.012 C 
HETATM   21  C11 UNL     1      27.991 -49.146  44.428  1.00  0.00     0.005 C 
HETATM   22  C12 UNL     1      27.072 -50.295  44.691  1.00  0.00     0.000 C 
HETATM   23  C13 UNL     1      25.658 -49.810  44.961  1.00  0.00     0.000 C 
HETATM   24  C14 UNL     1      25.159 -49.212  43.665  1.00  0.00     0.000 C 
HETATM   25  C15 UNL     1      26.219 -48.332  43.011  1.00  0.00     0.005 C 
ENDBRANCH  19  20
ENDBRANCH   1  19
BRANCH   1  26
HETATM   26  C16 UNL     1      27.956 -45.550  41.488  1.00  0.00     0.249 C 
HETATM   27  O2  UNL     1      27.269 -45.512  40.442  1.00  0.00    -0.271 OA
HETATM   28  N2  UNL     1      28.348 -44.335  42.081  1.00  0.00    -0.346 N 
ATOM     29  H2  UNL     1      28.896 -44.372  42.940  1.00  0.00     0.163 HD
BRANCH  28  30
HETATM   30  C17 UNL     1      28.014 -43.031  41.531  1.00  0.00     0.172 C 
HETATM   31  C18 UNL     1      26.925 -42.372  42.404  1.00  0.00     0.042 C 
BRANCH  30  32
HETATM   32  C19 UNL     1      29.163 -42.117  41.577  1.00  0.00     0.240 C 
HETATM   33  O3  UNL     1      30.300 -42.599  41.249  1.00  0.00    -0.271 OA
HETATM   34  N3  UNL     1      29.091 -40.763  41.955  1.00  0.00    -0.355 N 
ATOM     35  H3  UNL     1      28.187 -40.369  42.215  1.00  0.00     0.162 HD
BRANCH  34  36
HETATM   36  C20 UNL     1      30.258 -39.915  41.986  1.00  0.00     0.076 C 
HETATM   37  C21 UNL     1      30.386 -39.016  40.794  1.00  0.00     0.032 C 
HETATM   38  C22 UNL     1      30.341 -39.083  43.245  1.00  0.00     0.032 C 
ENDBRANCH  34  36
ENDBRANCH  30  32
ENDBRANCH  28  30
ENDBRANCH   1  26
TORSDOF 15
ENDMDL
MODEL 4
REMARK VINA RESULT: -7.364869453      1.367      1.825
REMARK  15 active torsions:
REMARK  status: ('A' for Active; 'I' for Inactive)
REMARK    1  A    between atoms: C2_2  and  C3_3 
REMARK    2  A    between atoms: C3_3  and  O1_4 
REMARK    3  A    between atoms: C3_3  and  C4_6 
REMARK    4  A    between atoms: C4_6  and  C5_7 
REMARK    5  A    between atoms: C4_6  and  C7_9 
REMARK    6  A    between atoms: C7_9  and  N1_10 
REMARK    7  A    between atoms: C7_9  and  C23_34 
REMARK    8  A    between atoms: N1_10  and  C8_13 
REMARK    9  A    between atoms: C8_13  and  C9_14 
REMARK   10  A    between atoms: C8_13  and  C16_21 
REMARK   11  A    between atoms: C9_14  and  C10_15 
REMARK       I    between atoms: C16_21  and  N2_23 
REMARK   12  A    between atoms: N2_23  and  C17_25 
REMARK   13  A    between atoms: C17_25  and  C19_27 
REMARK       I    between atoms: C19_27  and  N3_29 
REMARK   14  A    between atoms: N3_29  and  C20_31 
REMARK   15  A    between atoms: C23_34  and  C24_36 
ROOT
HETATM    1  C8  UNL     1      27.567 -46.938  42.276  1.00  0.00     0.278 C 
ENDROOT
BRANCH   1   2
HETATM    2  N1  UNL     1      28.811 -47.009  43.000  1.00  0.00    -0.050 N 
ATOM      3  H12 UNL     1      28.636 -47.125  43.998  1.00  0.00     0.279 HD
ATOM      4  H11 UNL     1      29.270 -46.098  43.008  1.00  0.00     0.279 HD
BRANCH   2   5
HETATM    5  C7  UNL     1      29.721 -48.029  42.524  1.00  0.00     0.269 C 
BRANCH   5   6
HETATM    6  C4  UNL     1      30.730 -48.355  43.618  1.00  0.00     0.053 C 
BRANCH   6   7
HETATM    7  C3  UNL     1      30.187 -48.271  45.000  1.00  0.00     0.124 C 
BRANCH   7   8
HETATM    8  C2  UNL     1      30.110 -49.649  45.670  1.00  0.00     0.027 C 
HETATM    9  C1  UNL     1      28.626 -49.857  45.999  1.00  0.00     0.007 C 
ENDBRANCH   7   8
BRANCH   7  10
HETATM   10  O1  UNL     1      30.969 -47.510  45.861  1.00  0.00    -0.395 OA
ATOM     11  H1  UNL     1      30.917 -46.628  45.511  1.00  0.00     0.210 HD
ENDBRANCH   7  10
ENDBRANCH   6   7
BRANCH   6  12
HETATM   12  C5  UNL     1      31.346 -49.730  43.389  1.00  0.00     0.005 C 
HETATM   13  C6  UNL     1      32.859 -49.617  43.191  1.00  0.00     0.005 C 
ENDBRANCH   6  12
ENDBRANCH   5   6
BRANCH   5  14
HETATM   14  C23 UNL     1      30.432 -47.635  41.312  1.00  0.00     0.215 C 
HETATM   15  O4  UNL     1      31.283 -46.672  41.359  1.00  0.00    -0.288 OA
BRANCH  14  16
HETATM   16  C24 UNL     1      30.243 -48.262  40.026  1.00  0.00     0.160 C 
HETATM   17  N4  UNL     1      30.091 -47.441  38.859  1.00  0.00    -0.086 NA
HETATM   18  S1  UNL     1      30.191 -49.893  39.864  1.00  0.00    -0.060 SA
ENDBRANCH  14  16
ENDBRANCH   5  14
ENDBRANCH   2   5
ENDBRANCH   1   2
BRANCH   1  19
HETATM   19  C9  UNL     1      26.388 -47.161  43.196  1.00  0.00     0.047 C 
BRANCH  19  20
HETATM   20  C10 UNL     1      26.094 -48.580  43.524  1.00  0.00    -0.012 C 
HETATM   21  C11 UNL     1      25.183 -49.089  42.387  1.00  0.00     0.005 C 
HETATM   22  C12 UNL     1      24.564 -50.398  42.752  1.00  0.00     0.000 C 
HETATM   23  C13 UNL     1      25.305 -51.049  43.909  1.00  0.00     0.000 C 
HETATM   24  C14 UNL     1      25.068 -50.167  45.113  1.00  0.00     0.000 C 
HETATM   25  C15 UNL     1      25.222 -48.689  44.765  1.00  0.00     0.005 C 
ENDBRANCH  19  20
ENDBRANCH   1  19
BRANCH   1  26
HETATM   26  C16 UNL     1      27.478 -45.607  41.609  1.00  0.00     0.249 C 
HETATM   27  O2  UNL     1      27.136 -45.582  40.405  1.00  0.00    -0.271 OA
HETATM   28  N2  UNL     1      27.754 -44.389  42.257  1.00  0.00    -0.346 N 
ATOM     29  H2  UNL     1      28.018 -44.414  43.242  1.00  0.00     0.163 HD
BRANCH  28  30
HETATM   30  C17 UNL     1      27.682 -43.096  41.596  1.00  0.00     0.172 C 
HETATM   31  C18 UNL     1      26.761 -42.158  42.405  1.00  0.00     0.042 C 
BRANCH  30  32
HETATM   32  C19 UNL     1      28.993 -42.432  41.567  1.00  0.00     0.240 C 
HETATM   33  O3  UNL     1      30.019 -43.184  41.449  1.00  0.00    -0.271 OA
HETATM   34  N3  UNL     1      29.186 -41.041  41.660  1.00  0.00    -0.355 N 
ATOM     35  H3  UNL     1      28.371 -40.434  41.750  1.00  0.00     0.162 HD
BRANCH  34  36
HETATM   36  C20 UNL     1      30.500 -40.448  41.632  1.00  0.00     0.076 C 
HETATM   37  C21 UNL     1      30.571 -39.169  40.853  1.00  0.00     0.032 C 
HETATM   38  C22 UNL     1      31.066 -40.218  43.014  1.00  0.00     0.032 C 
ENDBRANCH  34  36
ENDBRANCH  30  32
ENDBRANCH  28  30
ENDBRANCH   1  26
TORSDOF 15
ENDMDL
MODEL 5
REMARK VINA RESULT: -7.176769894      2.265      3.967
REMARK  15 active torsions:
REMARK  status: ('A' for Active; 'I' for Inactive)
REMARK    1  A    between atoms: C2_2  and  C3_3 
REMARK    2  A    between atoms: C3_3  and  O1_4 
REMARK    3  A    between atoms: C3_3  and  C4_6 
REMARK    4  A    between atoms: C4_6  and  C5_7 
REMARK    5  A    between atoms: C4_6  and  C7_9 
REMARK    6  A    between atoms: C7_9  and  N1_10 
REMARK    7  A    between atoms: C7_9  and  C23_34 
REMARK    8  A    between atoms: N1_10  and  C8_13 
REMARK    9  A    between atoms: C8_13  and  C9_14 
REMARK   10  A    between atoms: C8_13  and  C16_21 
REMARK   11  A    between atoms: C9_14  and  C10_15 
REMARK       I    between atoms: C16_21  and  N2_23 
REMARK   12  A    between atoms: N2_23  and  C17_25 
REMARK   13  A    between atoms: C17_25  and  C19_27 
REMARK       I    between atoms: C19_27  and  N3_29 
REMARK   14  A    between atoms: N3_29  and  C20_31 
REMARK   15  A    between atoms: C23_34  and  C24_36 
ROOT
HETATM    1  C8  UNL     1      28.345 -46.859  41.776  1.00  0.00     0.278 C 
ENDROOT
BRANCH   1   2
HETATM    2  N1  UNL     1      28.870 -47.570  40.637  1.00  0.00    -0.050 N 
ATOM      3  H12 UNL     1      29.870 -47.397  40.540  1.00  0.00     0.279 HD
ATOM      4  H11 UNL     1      28.535 -47.149  39.770  1.00  0.00     0.279 HD
BRANCH   2   5
HETATM    5  C7  UNL     1      28.601 -48.992  40.645  1.00  0.00     0.269 C 
BRANCH   5   6
HETATM    6  C4  UNL     1      29.311 -49.646  39.467  1.00  0.00     0.053 C 
BRANCH   6   7
HETATM    7  C3  UNL     1      29.823 -48.690  38.449  1.00  0.00     0.124 C 
BRANCH   7   8
HETATM    8  C2  UNL     1      30.741 -49.376  37.429  1.00  0.00     0.027 C 
HETATM    9  C1  UNL     1      31.412 -48.233  36.656  1.00  0.00     0.007 C 
ENDBRANCH   7   8
BRANCH   7  10
HETATM   10  O1  UNL     1      28.823 -48.107  37.679  1.00  0.00    -0.395 OA
ATOM     11  H1  UNL     1      28.493 -47.397  38.217  1.00  0.00     0.210 HD
ENDBRANCH   7  10
ENDBRANCH   6   7
BRANCH   6  12
HETATM   12  C5  UNL     1      30.446 -50.539  39.951  1.00  0.00     0.005 C 
HETATM   13  C6  UNL     1      30.863 -50.158  41.374  1.00  0.00     0.005 C 
ENDBRANCH   6  12
ENDBRANCH   5   6
BRANCH   5  14
HETATM   14  C23 UNL     1      27.176 -49.301  40.583  1.00  0.00     0.215 C 
HETATM   15  O4  UNL     1      26.447 -48.757  39.674  1.00  0.00    -0.288 OA
BRANCH  14  16
HETATM   16  C24 UNL     1      26.505 -50.195  41.495  1.00  0.00     0.160 C 
HETATM   17  N4  UNL     1      25.138 -49.939  41.853  1.00  0.00    -0.086 NA
HETATM   18  S1  UNL     1      27.264 -51.497  42.140  1.00  0.00    -0.060 SA
ENDBRANCH  14  16
ENDBRANCH   5  14
ENDBRANCH   2   5
ENDBRANCH   1   2
BRANCH   1  19
HETATM   19  C9  UNL     1      29.362 -46.794  42.892  1.00  0.00     0.047 C 
BRANCH  19  20
HETATM   20  C10 UNL     1      29.335 -47.932  43.848  1.00  0.00    -0.012 C 
HETATM   21  C11 UNL     1      27.842 -48.206  44.125  1.00  0.00     0.005 C 
HETATM   22  C12 UNL     1      27.680 -49.114  45.301  1.00  0.00     0.000 C 
HETATM   23  C13 UNL     1      28.981 -49.831  45.618  1.00  0.00     0.000 C 
HETATM   24  C14 UNL     1      29.947 -48.768  46.089  1.00  0.00     0.000 C 
HETATM   25  C15 UNL     1      29.887 -47.526  45.205  1.00  0.00     0.005 C 
ENDBRANCH  19  20
ENDBRANCH   1  19
BRANCH   1  26
HETATM   26  C16 UNL     1      27.943 -45.490  41.341  1.00  0.00     0.249 C 
HETATM   27  O2  UNL     1      27.140 -45.396  40.386  1.00  0.00    -0.271 OA
HETATM   28  N2  UNL     1      28.415 -44.309  41.944  1.00  0.00    -0.346 N 
ATOM     29  H2  UNL     1      29.059 -44.392  42.730  1.00  0.00     0.163 HD
BRANCH  28  30
HETATM   30  C17 UNL     1      28.033 -42.978  41.503  1.00  0.00     0.172 C 
HETATM   31  C18 UNL     1      26.969 -42.407  42.465  1.00  0.00     0.042 C 
BRANCH  30  32
HETATM   32  C19 UNL     1      29.164 -42.043  41.569  1.00  0.00     0.240 C 
HETATM   33  O3  UNL     1      30.316 -42.507  41.266  1.00  0.00    -0.271 OA
HETATM   34  N3  UNL     1      29.062 -40.689  41.939  1.00  0.00    -0.355 N 
ATOM     35  H3  UNL     1      28.146 -40.310  42.178  1.00  0.00     0.162 HD
BRANCH  34  36
HETATM   36  C20 UNL     1      30.213 -39.821  41.990  1.00  0.00     0.076 C 
HETATM   37  C21 UNL     1      30.337 -38.909  40.806  1.00  0.00     0.032 C 
HETATM   38  C22 UNL     1      30.267 -38.998  43.256  1.00  0.00     0.032 C 
ENDBRANCH  34  36
ENDBRANCH  30  32
ENDBRANCH  28  30
ENDBRANCH   1  26
TORSDOF 15
ENDMDL
