MODEL 1
REMARK VINA RESULT: -7.785113226      0.000      0.000
REMARK  16 active torsions:
REMARK  status: ('A' for Active; 'I' for Inactive)
REMARK    1  A    between atoms: C2_2  and  O1_3 
REMARK    2  A    between atoms: O1_3  and  C3_4 
REMARK       I    between atoms: C3_4  and  N1_6 
REMARK    3  A    between atoms: N1_6  and  C4_8 
REMARK    4  A    between atoms: C4_8  and  C6_10 
REMARK       I    between atoms: C6_10  and  N2_12 
REMARK    5  A    between atoms: N2_12  and  C7_14 
REMARK    6  A    between atoms: C7_14  and  C8_15 
REMARK    7  A    between atoms: C8_15  and  C9_16 
REMARK    8  A    between atoms: C8_15  and  N3_21 
REMARK    9  A    between atoms: C9_16  and  C10_17 
REMARK   10  A    between atoms: C10_17  and  C11_18 
REMARK   11  A    between atoms: N3_21  and  C14_24 
REMARK   12  A    between atoms: C14_24  and  C15_25 
REMARK   13  A    between atoms: C15_25  and  O4_26 
REMARK   14  A    between atoms: C15_25  and  C16_28 
REMARK   15  A    between atoms: C16_28  and  N4_29 
REMARK   16  A    between atoms: N4_29  and  C17_31 
ROOT
HETATM    1  C8  UNL     1       3.376  43.555  55.662  1.00  0.00     0.203 C 
ENDROOT
BRANCH   1   2
HETATM    2  C7  UNL     1       2.253  43.124  56.544  1.00  0.00     0.155 C 
BRANCH   2   3
HETATM    3  N2  UNL     1       1.632  44.245  57.206  1.00  0.00    -0.357 N 
HETATM    4  C6  UNL     1       1.032  44.160  58.464  1.00  0.00     0.240 C 
HETATM    5  O3  UNL     1       0.994  43.088  59.114  1.00  0.00    -0.271 OA
ATOM      6  H2  UNL     1       1.631  45.147  56.730  1.00  0.00     0.162 HD
BRANCH   4   7
HETATM    7  C4  UNL     1       0.414  45.388  59.047  1.00  0.00     0.174 C 
HETATM    8  C5  UNL     1      -0.798  45.813  58.224  1.00  0.00     0.042 C 
BRANCH   7   9
HETATM    9  N1  UNL     1       1.319  46.516  59.026  1.00  0.00    -0.324 N 
HETATM   10  C3  UNL     1       1.562  47.259  60.228  1.00  0.00     0.361 C 
HETATM   11  O2  UNL     1       1.001  46.949  61.308  1.00  0.00    -0.238 OA
ATOM     12  H1  UNL     1       1.783  46.783  58.157  1.00  0.00     0.165 HD
BRANCH  10  13
HETATM   13  O1  UNL     1       2.425  48.340  60.225  1.00  0.00    -0.304 OA
BRANCH  13  14
HETATM   14  C2  UNL     1       1.982  49.658  60.581  1.00  0.00     0.176 C 
HETATM   15  C1  UNL     1       0.963  50.057  59.536  1.00  0.00     0.034 C 
ENDBRANCH  13  14
ENDBRANCH  10  13
ENDBRANCH   7   9
ENDBRANCH   4   7
ENDBRANCH   2   3
ENDBRANCH   1   2
BRANCH   1  16
HETATM   16  C9  UNL     1       4.731  43.299  56.299  1.00  0.00     0.035 C 
BRANCH  16  17
HETATM   17  C10 UNL     1       5.668  42.814  55.221  1.00  0.00     0.006 C 
BRANCH  17  18
HETATM   18  C11 UNL     1       6.971  42.314  55.782  1.00  0.00    -0.023 C 
HETATM   19  C12 UNL     1       6.909  42.255  57.275  1.00  0.00     0.009 C 
HETATM   20  C13 UNL     1       8.082  43.218  55.288  1.00  0.00     0.009 C 
ENDBRANCH  17  18
ENDBRANCH  16  17
ENDBRANCH   1  16
BRANCH   1  21
HETATM   21  N3  UNL     1       3.331  42.921  54.357  1.00  0.00    -0.067 N 
ATOM     22  H32 UNL     1       4.136  43.204  53.798  1.00  0.00     0.277 HD
ATOM     23  H31 UNL     1       3.520  41.921  54.442  1.00  0.00     0.277 HD
BRANCH  21  24
HETATM   24  C14 UNL     1       2.125  43.135  53.630  1.00  0.00     0.265 C 
BRANCH  24  25
HETATM   25  C15 UNL     1       2.153  44.400  52.807  1.00  0.00     0.161 C 
BRANCH  25  26
HETATM   26  O4  UNL     1       1.743  45.477  53.583  1.00  0.00    -0.392 OA
ATOM     27  H4  UNL     1       2.440  45.729  54.178  1.00  0.00     0.210 HD
ENDBRANCH  25  26
BRANCH  25  28
HETATM   28  C16 UNL     1       1.384  44.292  51.509  1.00  0.00     0.147 C 
BRANCH  28  29
HETATM   29  N4  UNL     1       2.036  45.048  50.492  1.00  0.00    -0.410 N 
ATOM     30  H4  UNL     1       2.773  45.720  50.705  1.00  0.00     0.154 HD
BRANCH  29  31
HETATM   31  C17 UNL     1       1.590  44.804  49.149  1.00  0.00     0.026 C 
HETATM   32  C18 UNL     1       0.093  44.594  49.088  1.00  0.00     0.035 C 
HETATM   33  C19 UNL     1      -0.310  44.175  47.697  1.00  0.00    -0.012 C 
HETATM   34  C20 UNL     1       0.334  42.836  47.411  1.00  0.00     0.009 C 
HETATM   35  C24 UNL     1       0.108  45.219  46.698  1.00  0.00     0.009 C 
HETATM   36  C21 UNL     1       1.832  43.030  47.392  1.00  0.00    -0.012 C 
HETATM   37  C22 UNL     1       2.282  44.085  46.426  1.00  0.00     0.009 C 
HETATM   38  C26 UNL     1       2.243  43.465  48.768  1.00  0.00     0.035 C 
HETATM   39  C23 UNL     1       1.607  45.373  46.773  1.00  0.00    -0.012 C 
HETATM   40  C25 UNL     1       1.943  45.870  48.167  1.00  0.00     0.035 C 
ENDBRANCH  29  31
ENDBRANCH  28  29
ENDBRANCH  25  28
ENDBRANCH  24  25
ENDBRANCH  21  24
ENDBRANCH   1  21
TORSDOF 16
ENDMDL
MODEL 2
REMARK VINA RESULT: -7.774174188      2.265      2.785
REMARK  16 active torsions:
REMARK  status: ('A' for Active; 'I' for Inactive)
REMARK    1  A    between atoms: C2_2  and  O1_3 
REMARK    2  A    between atoms: O1_3  and  C3_4 
REMARK       I    between atoms: C3_4  and  N1_6 
REMARK    3  A    between atoms: N1_6  and  C4_8 
REMARK    4  A    between atoms: C4_8  and  C6_10 
REMARK       I    between atoms: C6_10  and  N2_12 
REMARK    5  A    between atoms: N2_12  and  C7_14 
REMARK    6  A    between atoms: C7_14  and  C8_15 
REMARK    7  A    between atoms: C8_15  and  C9_16 
REMARK    8  A    between atoms: C8_15  and  N3_21 
REMARK    9  A    between atoms: C9_16  and  C10_17 
REMARK   10  A    between atoms: C10_17  and  C11_18 
REMARK   11  A    between atoms: N3_21  and  C14_24 
REMARK   12  A    between atoms: C14_24  and  C15_25 
REMARK   13  A    between atoms: C15_25  and  O4_26 
REMARK   14  A    between atoms: C15_25  and  C16_28 
REMARK   15  A    between atoms: C16_28  and  N4_29 
REMARK   16  A    between atoms: N4_29  and  C17_31 
ROOT
HETATM    1  C8  UNL     1       3.741  43.618  55.408  1.00  0.00     0.203 C 
ENDROOT
BRANCH   1   2
HETATM    2  C7  UNL     1       2.636  43.780  56.396  1.00  0.00     0.155 C 
BRANCH   2   3
HETATM    3  N2  UNL     1       2.954  44.769  57.398  1.00  0.00    -0.357 N 
HETATM    4  C6  UNL     1       2.822  46.144  57.191  1.00  0.00     0.240 C 
HETATM    5  O3  UNL     1       2.409  46.618  56.106  1.00  0.00    -0.271 OA
ATOM      6  H2  UNL     1       3.293  44.446  58.304  1.00  0.00     0.162 HD
BRANCH   4   7
HETATM    7  C4  UNL     1       3.187  47.073  58.301  1.00  0.00     0.174 C 
HETATM    8  C5  UNL     1       2.131  48.164  58.448  1.00  0.00     0.042 C 
BRANCH   7   9
HETATM    9  N1  UNL     1       4.433  47.763  58.047  1.00  0.00    -0.324 N 
HETATM   10  C3  UNL     1       5.677  47.067  58.189  1.00  0.00     0.361 C 
HETATM   11  O2  UNL     1       5.710  45.859  58.534  1.00  0.00    -0.238 OA
ATOM     12  H1  UNL     1       4.425  48.744  57.767  1.00  0.00     0.165 HD
BRANCH  10  13
HETATM   13  O1  UNL     1       6.877  47.712  57.949  1.00  0.00    -0.304 OA
BRANCH  13  14
HETATM   14  C2  UNL     1       6.991  48.745  56.960  1.00  0.00     0.176 C 
HETATM   15  C1  UNL     1       8.267  48.462  56.198  1.00  0.00     0.034 C 
ENDBRANCH  13  14
ENDBRANCH  10  13
ENDBRANCH   7   9
ENDBRANCH   4   7
ENDBRANCH   2   3
ENDBRANCH   1   2
BRANCH   1  16
HETATM   16  C9  UNL     1       4.992  43.035  56.043  1.00  0.00     0.035 C 
BRANCH  16  17
HETATM   17  C10 UNL     1       5.911  42.585  54.935  1.00  0.00     0.006 C 
BRANCH  17  18
HETATM   18  C11 UNL     1       7.346  42.509  55.381  1.00  0.00    -0.023 C 
HETATM   19  C12 UNL     1       7.722  41.097  55.694  1.00  0.00     0.009 C 
HETATM   20  C13 UNL     1       7.525  43.429  56.571  1.00  0.00     0.009 C 
ENDBRANCH  17  18
ENDBRANCH  16  17
ENDBRANCH   1  16
BRANCH   1  21
HETATM   21  N3  UNL     1       3.355  42.802  54.272  1.00  0.00    -0.067 N 
ATOM     22  H32 UNL     1       4.082  42.824  53.556  1.00  0.00     0.277 HD
ATOM     23  H31 UNL     1       3.383  41.813  54.520  1.00  0.00     0.277 HD
BRANCH  21  24
HETATM   24  C14 UNL     1       2.092  43.132  53.701  1.00  0.00     0.265 C 
BRANCH  24  25
HETATM   25  C15 UNL     1       2.159  44.319  52.772  1.00  0.00     0.161 C 
BRANCH  25  26
HETATM   26  O4  UNL     1       1.741  45.464  53.438  1.00  0.00    -0.392 OA
ATOM     27  H4  UNL     1       2.495  45.994  53.672  1.00  0.00     0.210 HD
ENDBRANCH  25  26
BRANCH  25  28
HETATM   28  C16 UNL     1       1.426  44.105  51.467  1.00  0.00     0.147 C 
BRANCH  28  29
HETATM   29  N4  UNL     1       1.836  45.081  50.512  1.00  0.00    -0.410 N 
ATOM     30  H4  UNL     1       2.368  45.909  50.779  1.00  0.00     0.154 HD
BRANCH  29  31
HETATM   31  C17 UNL     1       1.452  44.825  49.152  1.00  0.00     0.026 C 
HETATM   32  C18 UNL     1      -0.040  44.603  49.026  1.00  0.00     0.035 C 
HETATM   33  C19 UNL     1      -0.378  44.172  47.622  1.00  0.00    -0.012 C 
HETATM   34  C20 UNL     1       0.288  42.836  47.374  1.00  0.00     0.009 C 
HETATM   35  C24 UNL     1       0.076  45.212  46.635  1.00  0.00     0.009 C 
HETATM   36  C21 UNL     1       1.785  43.041  47.419  1.00  0.00    -0.012 C 
HETATM   37  C22 UNL     1       2.269  44.094  46.468  1.00  0.00     0.009 C 
HETATM   38  C26 UNL     1       2.131  43.488  48.809  1.00  0.00     0.035 C 
HETATM   39  C23 UNL     1       1.570  45.379  46.775  1.00  0.00    -0.012 C 
HETATM   40  C25 UNL     1       1.840  45.888  48.180  1.00  0.00     0.035 C 
ENDBRANCH  29  31
ENDBRANCH  28  29
ENDBRANCH  25  28
ENDBRANCH  24  25
ENDBRANCH  21  24
ENDBRANCH   1  21
TORSDOF 16
ENDMDL
MODEL 3
REMARK VINA RESULT: -7.678685749      2.758      5.504
REMARK  16 active torsions:
REMARK  status: ('A' for Active; 'I' for Inactive)
REMARK    1  A    between atoms: C2_2  and  O1_3 
REMARK    2  A    between atoms: O1_3  and  C3_4 
REMARK       I    between atoms: C3_4  and  N1_6 
REMARK    3  A    between atoms: N1_6  and  C4_8 
REMARK    4  A    between atoms: C4_8  and  C6_10 
REMARK       I    between atoms: C6_10  and  N2_12 
REMARK    5  A    between atoms: N2_12  and  C7_14 
REMARK    6  A    between atoms: C7_14  and  C8_15 
REMARK    7  A    between atoms: C8_15  and  C9_16 
REMARK    8  A    between atoms: C8_15  and  N3_21 
REMARK    9  A    between atoms: C9_16  and  C10_17 
REMARK   10  A    between atoms: C10_17  and  C11_18 
REMARK   11  A    between atoms: N3_21  and  C14_24 
REMARK   12  A    between atoms: C14_24  and  C15_25 
REMARK   13  A    between atoms: C15_25  and  O4_26 
REMARK   14  A    between atoms: C15_25  and  C16_28 
REMARK   15  A    between atoms: C16_28  and  N4_29 
REMARK   16  A    between atoms: N4_29  and  C17_31 
ROOT
HETATM    1  C8  UNL     1       3.310  43.185  55.900  1.00  0.00     0.203 C 
ENDROOT
BRANCH   1   2
HETATM    2  C7  UNL     1       4.306  44.208  56.332  1.00  0.00     0.155 C 
BRANCH   2   3
HETATM    3  N2  UNL     1       5.458  43.603  56.956  1.00  0.00    -0.357 N 
HETATM    4  C6  UNL     1       6.515  43.039  56.238  1.00  0.00     0.240 C 
HETATM    5  O3  UNL     1       6.535  43.022  54.984  1.00  0.00    -0.271 OA
ATOM      6  H2  UNL     1       5.502  43.586  57.975  1.00  0.00     0.162 HD
BRANCH   4   7
HETATM    7  C4  UNL     1       7.652  42.436  56.994  1.00  0.00     0.174 C 
HETATM    8  C5  UNL     1       8.848  42.222  56.070  1.00  0.00     0.042 C 
BRANCH   7   9
HETATM    9  N1  UNL     1       7.325  41.129  57.521  1.00  0.00    -0.324 N 
HETATM   10  C3  UNL     1       6.783  41.007  58.842  1.00  0.00     0.361 C 
HETATM   11  O2  UNL     1       6.584  42.019  59.558  1.00  0.00    -0.238 OA
ATOM     12  H1  UNL     1       7.481  40.295  56.953  1.00  0.00     0.165 HD
BRANCH  10  13
HETATM   13  O1  UNL     1       6.464  39.765  59.361  1.00  0.00    -0.304 OA
BRANCH  13  14
HETATM   14  C2  UNL     1       5.938  39.616  60.688  1.00  0.00     0.176 C 
HETATM   15  C1  UNL     1       5.044  38.396  60.654  1.00  0.00     0.034 C 
ENDBRANCH  13  14
ENDBRANCH  10  13
ENDBRANCH   7   9
ENDBRANCH   4   7
ENDBRANCH   2   3
ENDBRANCH   1   2
BRANCH   1  16
HETATM   16  C9  UNL     1       1.900  43.545  56.336  1.00  0.00     0.035 C 
BRANCH  16  17
HETATM   17  C10 UNL     1       1.936  44.927  56.937  1.00  0.00     0.006 C 
BRANCH  17  18
HETATM   18  C11 UNL     1       1.218  44.993  58.258  1.00  0.00    -0.023 C 
HETATM   19  C12 UNL     1       1.228  43.655  58.925  1.00  0.00     0.009 C 
HETATM   20  C13 UNL     1      -0.188  45.502  58.012  1.00  0.00     0.009 C 
ENDBRANCH  17  18
ENDBRANCH  16  17
ENDBRANCH   1  16
BRANCH   1  21
HETATM   21  N3  UNL     1       3.328  42.964  54.466  1.00  0.00    -0.067 N 
ATOM     22  H32 UNL     1       4.083  43.497  54.035  1.00  0.00     0.277 HD
ATOM     23  H31 UNL     1       3.641  42.016  54.258  1.00  0.00     0.277 HD
BRANCH  21  24
HETATM   24  C14 UNL     1       2.095  43.234  53.805  1.00  0.00     0.265 C 
BRANCH  24  25
HETATM   25  C15 UNL     1       2.191  44.377  52.825  1.00  0.00     0.161 C 
BRANCH  25  26
HETATM   26  O4  UNL     1       1.782  45.557  53.434  1.00  0.00    -0.392 OA
ATOM     27  H4  UNL     1       2.540  46.043  53.737  1.00  0.00     0.210 HD
ENDBRANCH  25  26
BRANCH  25  28
HETATM   28  C16 UNL     1       1.472  44.116  51.521  1.00  0.00     0.147 C 
BRANCH  28  29
HETATM   29  N4  UNL     1       1.786  45.137  50.578  1.00  0.00    -0.410 N 
ATOM     30  H4  UNL     1       2.231  46.012  50.855  1.00  0.00     0.154 HD
BRANCH  29  31
HETATM   31  C17 UNL     1       1.436  44.857  49.213  1.00  0.00     0.026 C 
HETATM   32  C18 UNL     1      -0.053  44.637  49.053  1.00  0.00     0.035 C 
HETATM   33  C19 UNL     1      -0.356  44.182  47.649  1.00  0.00    -0.012 C 
HETATM   34  C20 UNL     1       0.312  42.840  47.442  1.00  0.00     0.009 C 
HETATM   35  C24 UNL     1       0.127  45.203  46.655  1.00  0.00     0.009 C 
HETATM   36  C21 UNL     1       1.807  43.042  47.522  1.00  0.00    -0.012 C 
HETATM   37  C22 UNL     1       2.319  44.075  46.565  1.00  0.00     0.009 C 
HETATM   38  C26 UNL     1       2.119  43.513  48.912  1.00  0.00     0.035 C 
HETATM   39  C23 UNL     1       1.617  45.368  46.831  1.00  0.00    -0.012 C 
HETATM   40  C25 UNL     1       1.853  45.901  48.232  1.00  0.00     0.035 C 
ENDBRANCH  29  31
ENDBRANCH  28  29
ENDBRANCH  25  28
ENDBRANCH  24  25
ENDBRANCH  21  24
ENDBRANCH   1  21
TORSDOF 16
ENDMDL
MODEL 4
REMARK VINA RESULT: -7.613213380      1.047      1.717
REMARK  16 active torsions:
REMARK  status: ('A' for Active; 'I' for Inactive)
REMARK    1  A    between atoms: C2_2  and  O1_3 
REMARK    2  A    between atoms: O1_3  and  C3_4 
REMARK       I    between atoms: C3_4  and  N1_6 
REMARK    3  A    between atoms: N1_6  and  C4_8 
REMARK    4  A    between atoms: C4_8  and  C6_10 
REMARK       I    between atoms: C6_10  and  N2_12 
REMARK    5  A    between atoms: N2_12  and  C7_14 
REMARK    6  A    between atoms: C7_14  and  C8_15 
REMARK    7  A    between atoms: C8_15  and  C9_16 
REMARK    8  A    between atoms: C8_15  and  N3_21 
REMARK    9  A    between atoms: C9_16  and  C10_17 
REMARK   10  A    between atoms: C10_17  and  C11_18 
REMARK   11  A    between atoms: N3_21  and  C14_24 
REMARK   12  A    between atoms: C14_24  and  C15_25 
REMARK   13  A    between atoms: C15_25  and  O4_26 
REMARK   14  A    between atoms: C15_25  and  C16_28 
REMARK   15  A    between atoms: C16_28  and  N4_29 
REMARK   16  A    between atoms: N4_29  and  C17_31 
ROOT
HETATM    1  C8  UNL     1       3.609  43.545  55.694  1.00  0.00     0.203 C 
ENDROOT
BRANCH   1   2
HETATM    2  C7  UNL     1       2.482  43.206  56.610  1.00  0.00     0.155 C 
BRANCH   2   3
HETATM    3  N2  UNL     1       1.904  44.385  57.206  1.00  0.00    -0.357 N 
HETATM    4  C6  UNL     1       1.148  44.362  58.381  1.00  0.00     0.240 C 
HETATM    5  O3  UNL     1       0.920  43.299  59.006  1.00  0.00    -0.271 OA
ATOM      6  H2  UNL     1       2.055  45.283  56.746  1.00  0.00     0.162 HD
BRANCH   4   7
HETATM    7  C4  UNL     1       0.595  45.647  58.902  1.00  0.00     0.174 C 
HETATM    8  C5  UNL     1      -0.717  45.983  58.199  1.00  0.00     0.042 C 
BRANCH   7   9
HETATM    9  N1  UNL     1       1.476  46.765  58.643  1.00  0.00    -0.324 N 
HETATM   10  C3  UNL     1       2.499  47.103  59.590  1.00  0.00     0.361 C 
HETATM   11  O2  UNL     1       2.647  46.444  60.649  1.00  0.00    -0.238 OA
ATOM     12  H1  UNL     1       1.370  47.312  57.788  1.00  0.00     0.165 HD
BRANCH  10  13
HETATM   13  O1  UNL     1       3.350  48.168  59.357  1.00  0.00    -0.304 OA
BRANCH  13  14
HETATM   14  C2  UNL     1       4.770  47.988  59.260  1.00  0.00     0.176 C 
HETATM   15  C1  UNL     1       5.036  47.470  57.863  1.00  0.00     0.034 C 
ENDBRANCH  13  14
ENDBRANCH  10  13
ENDBRANCH   7   9
ENDBRANCH   4   7
ENDBRANCH   2   3
ENDBRANCH   1   2
BRANCH   1  16
HETATM   16  C9  UNL     1       4.953  43.134  56.269  1.00  0.00     0.035 C 
BRANCH  16  17
HETATM   17  C10 UNL     1       5.827  42.674  55.129  1.00  0.00     0.006 C 
BRANCH  17  18
HETATM   18  C11 UNL     1       7.184  42.225  55.598  1.00  0.00    -0.023 C 
HETATM   19  C12 UNL     1       7.144  41.862  57.047  1.00  0.00     0.009 C 
HETATM   20  C13 UNL     1       8.178  43.331  55.309  1.00  0.00     0.009 C 
ENDBRANCH  17  18
ENDBRANCH  16  17
ENDBRANCH   1  16
BRANCH   1  21
HETATM   21  N3  UNL     1       3.450  42.955  54.377  1.00  0.00    -0.067 N 
ATOM     22  H32 UNL     1       4.196  43.270  53.756  1.00  0.00     0.277 HD
ATOM     23  H31 UNL     1       3.657  41.957  54.408  1.00  0.00     0.277 HD
BRANCH  21  24
HETATM   24  C14 UNL     1       2.179  43.178  53.773  1.00  0.00     0.265 C 
BRANCH  24  25
HETATM   25  C15 UNL     1       2.174  44.357  52.831  1.00  0.00     0.161 C 
BRANCH  25  26
HETATM   26  O4  UNL     1       1.747  45.495  53.504  1.00  0.00    -0.392 OA
ATOM     27  H4  UNL     1       2.240  45.598  54.309  1.00  0.00     0.210 HD
ENDBRANCH  25  26
BRANCH  25  28
HETATM   28  C16 UNL     1       1.399  44.109  51.557  1.00  0.00     0.147 C 
BRANCH  28  29
HETATM   29  N4  UNL     1       1.744  45.087  50.579  1.00  0.00    -0.410 N 
ATOM     30  H4  UNL     1       2.096  46.008  50.835  1.00  0.00     0.154 HD
BRANCH  29  31
HETATM   31  C17 UNL     1       1.562  44.692  49.210  1.00  0.00     0.026 C 
HETATM   32  C18 UNL     1       1.951  45.799  48.254  1.00  0.00     0.035 C 
HETATM   33  C19 UNL     1       1.589  45.410  46.844  1.00  0.00    -0.012 C 
HETATM   34  C20 UNL     1       0.083  45.276  46.772  1.00  0.00     0.009 C 
HETATM   35  C24 UNL     1       2.280  44.130  46.463  1.00  0.00     0.009 C 
HETATM   36  C21 UNL     1      -0.329  44.127  47.662  1.00  0.00    -0.012 C 
HETATM   37  C22 UNL     1       0.363  42.840  47.329  1.00  0.00     0.009 C 
HETATM   38  C26 UNL     1       0.043  44.496  49.067  1.00  0.00     0.035 C 
HETATM   39  C23 UNL     1       1.840  43.050  47.422  1.00  0.00    -0.012 C 
HETATM   40  C25 UNL     1       2.301  43.460  48.809  1.00  0.00     0.035 C 
ENDBRANCH  29  31
ENDBRANCH  28  29
ENDBRANCH  25  28
ENDBRANCH  24  25
ENDBRANCH  21  24
ENDBRANCH   1  21
TORSDOF 16
ENDMDL
MODEL 5
REMARK VINA RESULT: -7.599468775      1.523      2.489
REMARK  16 active torsions:
REMARK  status: ('A' for Active; 'I' for Inactive)
REMARK    1  A    between atoms: C2_2  and  O1_3 
REMARK    2  A    between atoms: O1_3  and  C3_4 
REMARK       I    between atoms: C3_4  and  N1_6 
REMARK    3  A    between atoms: N1_6  and  C4_8 
REMARK    4  A    between atoms: C4_8  and  C6_10 
REMARK       I    between atoms: C6_10  and  N2_12 
REMARK    5  A    between atoms: N2_12  and  C7_14 
REMARK    6  A    between atoms: C7_14  and  C8_15 
REMARK    7  A    between atoms: C8_15  and  C9_16 
REMARK    8  A    between atoms: C8_15  and  N3_21 
REMARK    9  A    between atoms: C9_16  and  C10_17 
REMARK   10  A    between atoms: C10_17  and  C11_18 
REMARK   11  A    between atoms: N3_21  and  C14_24 
REMARK   12  A    between atoms: C14_24  and  C15_25 
REMARK   13  A    between atoms: C15_25  and  O4_26 
REMARK   14  A    between atoms: C15_25  and  C16_28 
REMARK   15  A    between atoms: C16_28  and  N4_29 
REMARK   16  A    between atoms: N4_29  and  C17_31 
ROOT
HETATM    1  C8  UNL     1       4.226  43.215  54.895  1.00  0.00     0.203 C 
ENDROOT
BRANCH   1   2
HETATM    2  C7  UNL     1       3.604  43.266  56.250  1.00  0.00     0.155 C 
BRANCH   2   3
HETATM    3  N2  UNL     1       3.051  44.568  56.536  1.00  0.00    -0.357 N 
HETATM    4  C6  UNL     1       1.803  44.759  57.133  1.00  0.00     0.240 C 
HETATM    5  O3  UNL     1       1.070  43.799  57.468  1.00  0.00    -0.271 OA
ATOM      6  H2  UNL     1       3.601  45.391  56.289  1.00  0.00     0.162 HD
BRANCH   4   7
HETATM    7  C4  UNL     1       1.332  46.155  57.375  1.00  0.00     0.174 C 
HETATM    8  C5  UNL     1       2.471  47.145  57.150  1.00  0.00     0.042 C 
BRANCH   7   9
HETATM    9  N1  UNL     1       0.902  46.356  58.742  1.00  0.00    -0.324 N 
HETATM   10  C3  UNL     1      -0.495  46.336  59.061  1.00  0.00     0.361 C 
HETATM   11  O2  UNL     1      -1.362  46.147  58.172  1.00  0.00    -0.238 OA
ATOM     12  H1  UNL     1       1.593  46.513  59.477  1.00  0.00     0.165 HD
BRANCH  10  13
HETATM   13  O1  UNL     1      -0.923  46.526  60.363  1.00  0.00    -0.304 OA
BRANCH  13  14
HETATM   14  C2  UNL     1      -2.139  45.939  60.848  1.00  0.00     0.176 C 
HETATM   15  C1  UNL     1      -1.753  44.605  61.451  1.00  0.00     0.034 C 
ENDBRANCH  13  14
ENDBRANCH  10  13
ENDBRANCH   7   9
ENDBRANCH   4   7
ENDBRANCH   2   3
ENDBRANCH   1   2
BRANCH   1  16
HETATM   16  C9  UNL     1       5.594  42.554  54.921  1.00  0.00     0.035 C 
BRANCH  16  17
HETATM   17  C10 UNL     1       6.250  42.892  56.236  1.00  0.00     0.006 C 
BRANCH  17  18
HETATM   18  C11 UNL     1       7.654  42.359  56.325  1.00  0.00    -0.023 C 
HETATM   19  C12 UNL     1       8.613  43.297  55.666  1.00  0.00     0.009 C 
HETATM   20  C13 UNL     1       7.680  40.978  55.702  1.00  0.00     0.009 C 
ENDBRANCH  17  18
ENDBRANCH  16  17
ENDBRANCH   1  16
BRANCH   1  21
HETATM   21  N3  UNL     1       3.385  42.541  53.923  1.00  0.00    -0.067 N 
ATOM     22  H32 UNL     1       3.874  42.455  53.032  1.00  0.00     0.277 HD
ATOM     23  H31 UNL     1       3.285  41.555  54.165  1.00  0.00     0.277 HD
BRANCH  21  24
HETATM   24  C14 UNL     1       2.105  43.135  53.728  1.00  0.00     0.265 C 
BRANCH  24  25
HETATM   25  C15 UNL     1       2.155  44.369  52.861  1.00  0.00     0.161 C 
BRANCH  25  26
HETATM   26  O4  UNL     1       1.817  45.487  53.613  1.00  0.00    -0.392 OA
ATOM     27  H4  UNL     1       2.593  46.010  53.780  1.00  0.00     0.210 HD
ENDBRANCH  25  26
BRANCH  25  28
HETATM   28  C16 UNL     1       1.338  44.250  51.595  1.00  0.00     0.147 C 
BRANCH  28  29
HETATM   29  N4  UNL     1       1.872  45.107  50.588  1.00  0.00    -0.410 N 
ATOM     30  H4  UNL     1       2.390  45.954  50.818  1.00  0.00     0.154 HD
BRANCH  29  31
HETATM   31  C17 UNL     1       1.633  44.700  49.231  1.00  0.00     0.026 C 
HETATM   32  C18 UNL     1       2.003  45.792  48.249  1.00  0.00     0.035 C 
HETATM   33  C19 UNL     1       1.582  45.393  46.858  1.00  0.00    -0.012 C 
HETATM   34  C20 UNL     1       0.073  45.282  46.844  1.00  0.00     0.009 C 
HETATM   35  C24 UNL     1       2.239  44.099  46.466  1.00  0.00     0.009 C 
HETATM   36  C21 UNL     1      -0.323  44.148  47.761  1.00  0.00    -0.012 C 
HETATM   37  C22 UNL     1       0.338  42.847  47.417  1.00  0.00     0.009 C 
HETATM   38  C26 UNL     1       0.108  44.526  49.148  1.00  0.00     0.035 C 
HETATM   39  C23 UNL     1       1.820  43.036  47.452  1.00  0.00    -0.012 C 
HETATM   40  C25 UNL     1       2.339  43.453  48.817  1.00  0.00     0.035 C 
ENDBRANCH  29  31
ENDBRANCH  28  29
ENDBRANCH  25  28
ENDBRANCH  24  25
ENDBRANCH  21  24
ENDBRANCH   1  21
TORSDOF 16
ENDMDL
