MODEL 1
REMARK VINA RESULT: -7.399697453      0.000      0.000
REMARK  16 active torsions:
REMARK  status: ('A' for Active; 'I' for Inactive)
REMARK    1  A    between atoms: C2_2  and  C4_4 
REMARK    2  A    between atoms: C4_4  and  C5_5 
REMARK    3  A    between atoms: C5_5  and  N1_6 
REMARK    4  A    between atoms: C5_5  and  C20_28 
REMARK    5  A    between atoms: N1_6  and  C6_8 
REMARK    6  A    between atoms: C6_8  and  C7_9 
REMARK    7  A    between atoms: C6_8  and  C14_16 
REMARK    8  A    between atoms: C7_9  and  C8_10 
REMARK    9  A    between atoms: C14_16  and  O1_17 
REMARK   10  A    between atoms: C14_16  and  C15_19 
REMARK   11  A    between atoms: C15_19  and  N2_20 
REMARK   12  A    between atoms: N2_20  and  C16_22 
REMARK       I    between atoms: C20_28  and  N3_30 
REMARK   13  A    between atoms: N3_30  and  C21_32 
REMARK   14  A    between atoms: C21_32  and  C22_33 
REMARK   15  A    between atoms: C22_33  and  O5_34 
REMARK   16  A    between atoms: C22_33  and  C23_36 
ROOT
HETATM    1  C6  UNL     1       3.473  45.528  58.899  1.00  0.00     0.014 C 
ENDROOT
BRANCH   1   2
HETATM    2  N1  UNL     1       3.842  46.326  59.996  1.00  0.00    -0.381 N 
ATOM      3  H1  UNL     1       4.229  45.884  60.830  1.00  0.00     0.160 HD
BRANCH   2   4
HETATM    4  C5  UNL     1       3.688  47.701  59.963  1.00  0.00     0.174 C 
BRANCH   4   5
HETATM    5  C4  UNL     1       2.774  48.414  59.039  1.00  0.00     0.038 C 
BRANCH   5   6
HETATM    6  C2  UNL     1       1.474  48.711  59.795  1.00  0.00    -0.020 C 
HETATM    7  C1  UNL     1       1.791  48.728  61.296  1.00  0.00     0.009 C 
HETATM    8  C3  UNL     1       0.866  50.033  59.489  1.00  0.00     0.009 C 
ENDBRANCH   5   6
ENDBRANCH   4   5
BRANCH   4   9
HETATM    9  C20 UNL     1       5.005  48.472  59.910  1.00  0.00     0.244 C 
HETATM   10  O4  UNL     1       5.322  49.272  60.809  1.00  0.00    -0.271 OA
HETATM   11  N3  UNL     1       5.860  48.258  58.809  1.00  0.00    -0.337 N 
ATOM     12  H3  UNL     1       5.524  47.519  58.191  1.00  0.00     0.168 HD
BRANCH  11  13
HETATM   13  C21 UNL     1       7.061  48.822  58.366  1.00  0.00     0.095 C 
BRANCH  13  14
HETATM   14  C22 UNL     1       7.270  48.890  56.893  1.00  0.00     0.160 C 
BRANCH  14  15
HETATM   15  O5  UNL     1       6.175  48.478  56.141  1.00  0.00    -0.390 OA
ATOM     16  H5  UNL     1       6.198  47.562  55.888  1.00  0.00     0.210 HD
ENDBRANCH  14  15
BRANCH  14  17
HETATM   17  C23 UNL     1       8.590  48.352  56.416  1.00  0.00     0.011 C 
HETATM   18  C24 UNL     1       9.698  49.010  57.256  1.00  0.00     0.012 C 
HETATM   19  C25 UNL     1       8.638  46.862  56.831  1.00  0.00     0.012 C 
ENDBRANCH  14  17
ENDBRANCH  13  14
ENDBRANCH  11  13
ENDBRANCH   4   9
ENDBRANCH   2   4
ENDBRANCH   1   2
BRANCH   1  20
HETATM   20  C7  UNL     1       2.312  44.605  59.044  1.00  0.00     0.059 C 
BRANCH  20  21
HETATM   21  C8  UNL     1       0.957  45.175  59.192  1.00  0.00    -0.009 C 
HETATM   22  C9  UNL     1       0.026  45.177  58.055  1.00  0.00     0.005 C 
HETATM   23  C10 UNL     1      -1.078  46.199  58.330  1.00  0.00     0.000 C 
HETATM   24  C11 UNL     1      -1.722  45.931  59.646  1.00  0.00     0.000 C 
HETATM   25  C12 UNL     1      -0.737  45.776  60.789  1.00  0.00     0.000 C 
HETATM   26  C13 UNL     1       0.244  44.661  60.445  1.00  0.00     0.005 C 
ENDBRANCH  20  21
ENDBRANCH   1  20
BRANCH   1  27
HETATM   27  C14 UNL     1       4.591  44.858  58.196  1.00  0.00     0.180 C 
BRANCH  27  28
HETATM   28  O1  UNL     1       5.086  45.716  57.155  1.00  0.00    -0.388 OA
ATOM     29  H1  UNL     1       5.961  46.012  57.377  1.00  0.00     0.210 HD
ENDBRANCH  27  28
BRANCH  27  30
HETATM   30  C15 UNL     1       4.335  43.515  57.559  1.00  0.00     0.152 C 
BRANCH  30  31
HETATM   31  N2  UNL     1       4.203  43.714  56.114  1.00  0.00    -0.406 N 
ATOM     32  H2  UNL     1       5.008  43.940  55.530  1.00  0.00     0.154 HD
BRANCH  31  33
HETATM   33  C16 UNL     1       2.905  43.576  55.570  1.00  0.00     0.179 C 
HETATM   34  C17 UNL     1       2.999  42.719  54.303  1.00  0.00     0.062 C 
HETATM   35  C18 UNL     1       1.996  43.279  53.351  1.00  0.00     0.181 C 
HETATM   36  O2  UNL     1       2.026  44.639  53.640  1.00  0.00    -0.320 OA
HETATM   37  C19 UNL     1       2.432  44.875  54.933  1.00  0.00     0.281 C 
HETATM   38  O3  UNL     1       2.399  45.985  55.473  1.00  0.00    -0.263 OA
ENDBRANCH  31  33
ENDBRANCH  30  31
ENDBRANCH  27  30
ENDBRANCH   1  27
TORSDOF 16
ENDMDL
MODEL 2
REMARK VINA RESULT: -7.396347083      2.485      7.423
REMARK  16 active torsions:
REMARK  status: ('A' for Active; 'I' for Inactive)
REMARK    1  A    between atoms: C2_2  and  C4_4 
REMARK    2  A    between atoms: C4_4  and  C5_5 
REMARK    3  A    between atoms: C5_5  and  N1_6 
REMARK    4  A    between atoms: C5_5  and  C20_28 
REMARK    5  A    between atoms: N1_6  and  C6_8 
REMARK    6  A    between atoms: C6_8  and  C7_9 
REMARK    7  A    between atoms: C6_8  and  C14_16 
REMARK    8  A    between atoms: C7_9  and  C8_10 
REMARK    9  A    between atoms: C14_16  and  O1_17 
REMARK   10  A    between atoms: C14_16  and  C15_19 
REMARK   11  A    between atoms: C15_19  and  N2_20 
REMARK   12  A    between atoms: N2_20  and  C16_22 
REMARK       I    between atoms: C20_28  and  N3_30 
REMARK   13  A    between atoms: N3_30  and  C21_32 
REMARK   14  A    between atoms: C21_32  and  C22_33 
REMARK   15  A    between atoms: C22_33  and  O5_34 
REMARK   16  A    between atoms: C22_33  and  C23_36 
ROOT
HETATM    1  C6  UNL     1       2.156  45.715  56.674  1.00  0.00     0.014 C 
ENDROOT
BRANCH   1   2
HETATM    2  N1  UNL     1       2.292  45.390  55.314  1.00  0.00    -0.381 N 
ATOM      3  H1  UNL     1       2.515  46.125  54.642  1.00  0.00     0.160 HD
BRANCH   2   4
HETATM    4  C5  UNL     1       2.129  44.088  54.870  1.00  0.00     0.174 C 
BRANCH   4   5
HETATM    5  C4  UNL     1       2.933  42.939  55.350  1.00  0.00     0.038 C 
BRANCH   5   6
HETATM    6  C2  UNL     1       4.372  43.422  55.558  1.00  0.00    -0.020 C 
HETATM    7  C1  UNL     1       4.700  43.310  57.053  1.00  0.00     0.009 C 
HETATM    8  C3  UNL     1       5.405  42.619  54.852  1.00  0.00     0.009 C 
ENDBRANCH   5   6
ENDBRANCH   4   5
BRANCH   4   9
HETATM    9  C20 UNL     1       2.088  43.952  53.350  1.00  0.00     0.244 C 
HETATM   10  O4  UNL     1       2.383  42.881  52.789  1.00  0.00    -0.271 OA
HETATM   11  N3  UNL     1       1.709  45.077  52.589  1.00  0.00    -0.337 N 
ATOM     12  H3  UNL     1       1.413  45.860  53.171  1.00  0.00     0.168 HD
BRANCH  11  13
HETATM   13  C21 UNL     1       1.644  45.371  51.223  1.00  0.00     0.095 C 
BRANCH  13  14
HETATM   14  C22 UNL     1       1.362  44.235  50.302  1.00  0.00     0.160 C 
BRANCH  14  15
HETATM   15  O5  UNL     1       2.457  43.411  50.060  1.00  0.00    -0.390 OA
ATOM     16  H5  UNL     1       2.298  42.491  50.234  1.00  0.00     0.210 HD
ENDBRANCH  14  15
BRANCH  14  17
HETATM   17  C23 UNL     1       0.571  44.596  49.075  1.00  0.00     0.011 C 
HETATM   18  C24 UNL     1       1.052  43.697  47.924  1.00  0.00     0.012 C 
HETATM   19  C25 UNL     1      -0.883  44.134  49.333  1.00  0.00     0.012 C 
ENDBRANCH  14  17
ENDBRANCH  13  14
ENDBRANCH  11  13
ENDBRANCH   4   9
ENDBRANCH   2   4
ENDBRANCH   1   2
BRANCH   1  20
HETATM   20  C7  UNL     1       0.800  45.659  57.290  1.00  0.00     0.059 C 
BRANCH  20  21
HETATM   21  C8  UNL     1       0.590  44.819  58.487  1.00  0.00    -0.009 C 
HETATM   22  C9  UNL     1       1.566  43.781  58.844  1.00  0.00     0.005 C 
HETATM   23  C10 UNL     1       0.901  42.795  59.805  1.00  0.00     0.000 C 
HETATM   24  C11 UNL     1       0.320  43.515  60.973  1.00  0.00     0.000 C 
HETATM   25  C12 UNL     1      -0.565  44.686  60.592  1.00  0.00     0.000 C 
HETATM   26  C13 UNL     1       0.237  45.648  59.725  1.00  0.00     0.005 C 
ENDBRANCH  20  21
ENDBRANCH   1  20
BRANCH   1  27
HETATM   27  C14 UNL     1       2.883  46.927  57.114  1.00  0.00     0.180 C 
BRANCH  27  28
HETATM   28  O1  UNL     1       3.757  47.371  56.063  1.00  0.00    -0.388 OA
ATOM     29  H1  UNL     1       3.365  48.111  55.615  1.00  0.00     0.210 HD
ENDBRANCH  27  28
BRANCH  27  30
HETATM   30  C15 UNL     1       3.722  46.845  58.365  1.00  0.00     0.152 C 
BRANCH  30  31
HETATM   31  N2  UNL     1       3.705  48.160  59.011  1.00  0.00    -0.406 N 
ATOM     32  H2  UNL     1       4.411  48.867  58.805  1.00  0.00     0.154 HD
BRANCH  31  33
HETATM   33  C16 UNL     1       2.660  48.400  59.934  1.00  0.00     0.179 C 
HETATM   34  C17 UNL     1       1.493  49.054  59.186  1.00  0.00     0.062 C 
HETATM   35  C18 UNL     1       0.890  50.031  60.138  1.00  0.00     0.181 C 
HETATM   36  O2  UNL     1       1.993  50.482  60.854  1.00  0.00    -0.320 OA
HETATM   37  C19 UNL     1       3.004  49.548  60.871  1.00  0.00     0.281 C 
HETATM   38  O3  UNL     1       4.023  49.651  61.560  1.00  0.00    -0.263 OA
ENDBRANCH  31  33
ENDBRANCH  30  31
ENDBRANCH  27  30
ENDBRANCH   1  27
TORSDOF 16
ENDMDL
MODEL 3
REMARK VINA RESULT: -7.249386758      2.427      7.217
REMARK  16 active torsions:
REMARK  status: ('A' for Active; 'I' for Inactive)
REMARK    1  A    between atoms: C2_2  and  C4_4 
REMARK    2  A    between atoms: C4_4  and  C5_5 
REMARK    3  A    between atoms: C5_5  and  N1_6 
REMARK    4  A    between atoms: C5_5  and  C20_28 
REMARK    5  A    between atoms: N1_6  and  C6_8 
REMARK    6  A    between atoms: C6_8  and  C7_9 
REMARK    7  A    between atoms: C6_8  and  C14_16 
REMARK    8  A    between atoms: C7_9  and  C8_10 
REMARK    9  A    between atoms: C14_16  and  O1_17 
REMARK   10  A    between atoms: C14_16  and  C15_19 
REMARK   11  A    between atoms: C15_19  and  N2_20 
REMARK   12  A    between atoms: N2_20  and  C16_22 
REMARK       I    between atoms: C20_28  and  N3_30 
REMARK   13  A    between atoms: N3_30  and  C21_32 
REMARK   14  A    between atoms: C21_32  and  C22_33 
REMARK   15  A    between atoms: C22_33  and  O5_34 
REMARK   16  A    between atoms: C22_33  and  C23_36 
ROOT
HETATM    1  C6  UNL     1       2.189  45.887  56.651  1.00  0.00     0.014 C 
ENDROOT
BRANCH   1   2
HETATM    2  N1  UNL     1       2.472  45.482  55.337  1.00  0.00    -0.381 N 
ATOM      3  H1  UNL     1       2.883  46.150  54.683  1.00  0.00     0.160 HD
BRANCH   2   4
HETATM    4  C5  UNL     1       2.203  44.192  54.913  1.00  0.00     0.174 C 
BRANCH   4   5
HETATM    5  C4  UNL     1       2.947  42.994  55.370  1.00  0.00     0.038 C 
BRANCH   5   6
HETATM    6  C2  UNL     1       4.406  43.401  55.597  1.00  0.00    -0.020 C 
HETATM    7  C1  UNL     1       4.733  43.190  57.082  1.00  0.00     0.009 C 
HETATM    8  C3  UNL     1       5.401  42.596  54.841  1.00  0.00     0.009 C 
ENDBRANCH   5   6
ENDBRANCH   4   5
BRANCH   4   9
HETATM    9  C20 UNL     1       2.088  44.048  53.397  1.00  0.00     0.244 C 
HETATM   10  O4  UNL     1       2.308  42.961  52.833  1.00  0.00    -0.271 OA
HETATM   11  N3  UNL     1       1.727  45.185  52.644  1.00  0.00    -0.337 N 
ATOM     12  H3  UNL     1       1.493  45.984  53.232  1.00  0.00     0.168 HD
BRANCH  11  13
HETATM   13  C21 UNL     1       1.615  45.473  51.280  1.00  0.00     0.095 C 
BRANCH  13  14
HETATM   14  C22 UNL     1       1.319  44.330  50.373  1.00  0.00     0.160 C 
BRANCH  14  15
HETATM   15  O5  UNL     1       2.401  43.485  50.146  1.00  0.00    -0.390 OA
ATOM     16  H5  UNL     1       2.169  42.651  49.755  1.00  0.00     0.210 HD
ENDBRANCH  14  15
BRANCH  14  17
HETATM   17  C23 UNL     1       0.541  44.689  49.137  1.00  0.00     0.011 C 
HETATM   18  C24 UNL     1       1.088  43.842  47.974  1.00  0.00     0.012 C 
HETATM   19  C25 UNL     1      -0.897  44.156  49.347  1.00  0.00     0.012 C 
ENDBRANCH  14  17
ENDBRANCH  13  14
ENDBRANCH  11  13
ENDBRANCH   4   9
ENDBRANCH   2   4
ENDBRANCH   1   2
BRANCH   1  20
HETATM   20  C7  UNL     1       0.809  45.690  57.180  1.00  0.00     0.059 C 
BRANCH  20  21
HETATM   21  C8  UNL     1       0.618  44.883  58.402  1.00  0.00    -0.009 C 
HETATM   22  C9  UNL     1       1.601  43.856  58.774  1.00  0.00     0.005 C 
HETATM   23  C10 UNL     1       0.951  42.897  59.772  1.00  0.00     0.000 C 
HETATM   24  C11 UNL     1       0.387  43.649  60.928  1.00  0.00     0.000 C 
HETATM   25  C12 UNL     1      -0.506  44.808  60.527  1.00  0.00     0.000 C 
HETATM   26  C13 UNL     1       0.283  45.747  59.622  1.00  0.00     0.005 C 
ENDBRANCH  20  21
ENDBRANCH   1  20
BRANCH   1  27
HETATM   27  C14 UNL     1       2.710  47.219  57.033  1.00  0.00     0.180 C 
BRANCH  27  28
HETATM   28  O1  UNL     1       3.713  47.630  56.089  1.00  0.00    -0.388 OA
ATOM     29  H1  UNL     1       4.576  47.431  56.435  1.00  0.00     0.210 HD
ENDBRANCH  27  28
BRANCH  27  30
HETATM   30  C15 UNL     1       3.317  47.387  58.404  1.00  0.00     0.152 C 
BRANCH  30  31
HETATM   31  N2  UNL     1       4.340  46.354  58.579  1.00  0.00    -0.406 N 
ATOM     32  H2  UNL     1       4.175  45.386  58.303  1.00  0.00     0.154 HD
BRANCH  31  33
HETATM   33  C16 UNL     1       5.568  46.765  59.149  1.00  0.00     0.179 C 
HETATM   34  C17 UNL     1       5.267  47.581  60.410  1.00  0.00     0.062 C 
HETATM   35  C18 UNL     1       6.303  48.653  60.464  1.00  0.00     0.181 C 
HETATM   36  O2  UNL     1       6.519  48.937  59.120  1.00  0.00    -0.320 OA
HETATM   37  C19 UNL     1       6.223  47.858  58.319  1.00  0.00     0.281 C 
HETATM   38  O3  UNL     1       6.471  47.811  57.111  1.00  0.00    -0.263 OA
ENDBRANCH  31  33
ENDBRANCH  30  31
ENDBRANCH  27  30
ENDBRANCH   1  27
TORSDOF 16
ENDMDL
MODEL 4
REMARK VINA RESULT: -7.157160133      3.181      6.615
REMARK  16 active torsions:
REMARK  status: ('A' for Active; 'I' for Inactive)
REMARK    1  A    between atoms: C2_2  and  C4_4 
REMARK    2  A    between atoms: C4_4  and  C5_5 
REMARK    3  A    between atoms: C5_5  and  N1_6 
REMARK    4  A    between atoms: C5_5  and  C20_28 
REMARK    5  A    between atoms: N1_6  and  C6_8 
REMARK    6  A    between atoms: C6_8  and  C7_9 
REMARK    7  A    between atoms: C6_8  and  C14_16 
REMARK    8  A    between atoms: C7_9  and  C8_10 
REMARK    9  A    between atoms: C14_16  and  O1_17 
REMARK   10  A    between atoms: C14_16  and  C15_19 
REMARK   11  A    between atoms: C15_19  and  N2_20 
REMARK   12  A    between atoms: N2_20  and  C16_22 
REMARK       I    between atoms: C20_28  and  N3_30 
REMARK   13  A    between atoms: N3_30  and  C21_32 
REMARK   14  A    between atoms: C21_32  and  C22_33 
REMARK   15  A    between atoms: C22_33  and  O5_34 
REMARK   16  A    between atoms: C22_33  and  C23_36 
ROOT
HETATM    1  C6  UNL     1       2.717  42.900  55.111  1.00  0.00     0.014 C 
ENDROOT
BRANCH   1   2
HETATM    2  N1  UNL     1       1.710  43.046  56.079  1.00  0.00    -0.381 N 
ATOM      3  H1  UNL     1       0.798  42.616  55.923  1.00  0.00     0.160 HD
BRANCH   2   4
HETATM    4  C5  UNL     1       1.934  43.765  57.241  1.00  0.00     0.174 C 
BRANCH   4   5
HETATM    5  C4  UNL     1       1.704  43.234  58.605  1.00  0.00     0.038 C 
BRANCH   5   6
HETATM    6  C2  UNL     1       3.070  42.961  59.244  1.00  0.00    -0.020 C 
HETATM    7  C1  UNL     1       3.481  44.207  60.039  1.00  0.00     0.009 C 
HETATM    8  C3  UNL     1       3.089  41.833  60.212  1.00  0.00     0.009 C 
ENDBRANCH   5   6
ENDBRANCH   4   5
BRANCH   4   9
HETATM    9  C20 UNL     1       1.316  45.161  57.236  1.00  0.00     0.244 C 
HETATM   10  O4  UNL     1       1.524  45.956  56.302  1.00  0.00    -0.271 OA
HETATM   11  N3  UNL     1       0.500  45.534  58.324  1.00  0.00    -0.337 N 
ATOM     12  H3  UNL     1       0.343  44.765  58.975  1.00  0.00     0.168 HD
BRANCH  11  13
HETATM   13  C21 UNL     1      -0.144  46.711  58.719  1.00  0.00     0.095 C 
BRANCH  13  14
HETATM   14  C22 UNL     1       0.588  47.592  59.671  1.00  0.00     0.160 C 
BRANCH  14  15
HETATM   15  O5  UNL     1      -0.194  48.082  60.712  1.00  0.00    -0.390 OA
ATOM     16  H5  UNL     1       0.296  48.320  61.490  1.00  0.00     0.210 HD
ENDBRANCH  14  15
BRANCH  14  17
HETATM   17  C23 UNL     1       1.479  48.617  59.027  1.00  0.00     0.011 C 
HETATM   18  C24 UNL     1       0.963  50.009  59.429  1.00  0.00     0.012 C 
HETATM   19  C25 UNL     1       2.856  48.510  59.725  1.00  0.00     0.012 C 
ENDBRANCH  14  17
ENDBRANCH  13  14
ENDBRANCH  11  13
ENDBRANCH   4   9
ENDBRANCH   2   4
ENDBRANCH   1   2
BRANCH   1  20
HETATM   20  C7  UNL     1       3.987  43.662  55.278  1.00  0.00     0.059 C 
BRANCH  20  21
HETATM   21  C8  UNL     1       5.177  42.967  55.809  1.00  0.00    -0.009 C 
HETATM   22  C9  UNL     1       6.275  42.586  54.910  1.00  0.00     0.005 C 
HETATM   23  C10 UNL     1       7.122  41.516  55.600  1.00  0.00     0.000 C 
HETATM   24  C11 UNL     1       7.566  41.986  56.942  1.00  0.00     0.000 C 
HETATM   25  C12 UNL     1       6.441  42.524  57.806  1.00  0.00     0.000 C 
HETATM   26  C13 UNL     1       5.741  43.651  57.057  1.00  0.00     0.005 C 
ENDBRANCH  20  21
ENDBRANCH   1  20
BRANCH   1  27
HETATM   27  C14 UNL     1       2.259  42.947  53.704  1.00  0.00     0.180 C 
BRANCH  27  28
HETATM   28  O1  UNL     1       3.170  42.204  52.877  1.00  0.00    -0.388 OA
ATOM     29  H1  UNL     1       2.860  41.310  52.786  1.00  0.00     0.210 HD
ENDBRANCH  27  28
BRANCH  27  30
HETATM   30  C15 UNL     1       2.088  44.295  53.050  1.00  0.00     0.152 C 
BRANCH  30  31
HETATM   31  N2  UNL     1       1.574  44.082  51.695  1.00  0.00    -0.406 N 
ATOM     32  H2  UNL     1       0.754  43.502  51.519  1.00  0.00     0.154 HD
BRANCH  31  33
HETATM   33  C16 UNL     1       2.273  44.720  50.643  1.00  0.00     0.179 C 
HETATM   34  C17 UNL     1       1.286  45.604  49.873  1.00  0.00     0.062 C 
HETATM   35  C18 UNL     1       1.695  45.527  48.440  1.00  0.00     0.181 C 
HETATM   36  O2  UNL     1       2.165  44.223  48.326  1.00  0.00    -0.320 OA
HETATM   37  C19 UNL     1       2.615  43.738  49.532  1.00  0.00     0.281 C 
HETATM   38  O3  UNL     1       3.212  42.666  49.662  1.00  0.00    -0.263 OA
ENDBRANCH  31  33
ENDBRANCH  30  31
ENDBRANCH  27  30
ENDBRANCH   1  27
TORSDOF 16
ENDMDL
MODEL 5
REMARK VINA RESULT: -7.154923729      2.483      5.970
REMARK  16 active torsions:
REMARK  status: ('A' for Active; 'I' for Inactive)
REMARK    1  A    between atoms: C2_2  and  C4_4 
REMARK    2  A    between atoms: C4_4  and  C5_5 
REMARK    3  A    between atoms: C5_5  and  N1_6 
REMARK    4  A    between atoms: C5_5  and  C20_28 
REMARK    5  A    between atoms: N1_6  and  C6_8 
REMARK    6  A    between atoms: C6_8  and  C7_9 
REMARK    7  A    between atoms: C6_8  and  C14_16 
REMARK    8  A    between atoms: C7_9  and  C8_10 
REMARK    9  A    between atoms: C14_16  and  O1_17 
REMARK   10  A    between atoms: C14_16  and  C15_19 
REMARK   11  A    between atoms: C15_19  and  N2_20 
REMARK   12  A    between atoms: N2_20  and  C16_22 
REMARK       I    between atoms: C20_28  and  N3_30 
REMARK   13  A    between atoms: N3_30  and  C21_32 
REMARK   14  A    between atoms: C21_32  and  C22_33 
REMARK   15  A    between atoms: C22_33  and  O5_34 
REMARK   16  A    between atoms: C22_33  and  C23_36 
ROOT
HETATM    1  C6  UNL     1       3.120  43.660  55.375  1.00  0.00     0.014 C 
ENDROOT
BRANCH   1   2
HETATM    2  N1  UNL     1       3.187  45.032  55.669  1.00  0.00    -0.381 N 
ATOM      3  H1  UNL     1       3.574  45.675  54.978  1.00  0.00     0.160 HD
BRANCH   2   4
HETATM    4  C5  UNL     1       2.736  45.526  56.882  1.00  0.00     0.174 C 
BRANCH   4   5
HETATM    5  C4  UNL     1       1.407  46.149  57.084  1.00  0.00     0.038 C 
BRANCH   5   6
HETATM    6  C2  UNL     1       0.476  45.093  57.690  1.00  0.00    -0.020 C 
HETATM    7  C1  UNL     1       1.326  44.151  58.554  1.00  0.00     0.009 C 
HETATM    8  C3  UNL     1      -0.576  45.636  58.590  1.00  0.00     0.009 C 
ENDBRANCH   5   6
ENDBRANCH   4   5
BRANCH   4   9
HETATM    9  C20 UNL     1       3.731  46.447  57.584  1.00  0.00     0.244 C 
HETATM   10  O4  UNL     1       4.899  46.569  57.174  1.00  0.00    -0.271 OA
HETATM   11  N3  UNL     1       3.294  47.160  58.720  1.00  0.00    -0.337 N 
ATOM     12  H3  UNL     1       2.297  47.037  58.898  1.00  0.00     0.168 HD
BRANCH  11  13
HETATM   13  C21 UNL     1       3.907  47.996  59.659  1.00  0.00     0.095 C 
BRANCH  13  14
HETATM   14  C22 UNL     1       3.096  49.130  60.182  1.00  0.00     0.160 C 
BRANCH  14  15
HETATM   15  O5  UNL     1       3.639  49.751  61.301  1.00  0.00    -0.390 OA
ATOM     16  H5  UNL     1       3.213  50.567  61.540  1.00  0.00     0.210 HD
ENDBRANCH  14  15
BRANCH  14  17
HETATM   17  C23 UNL     1       1.619  48.861  60.276  1.00  0.00     0.011 C 
HETATM   18  C24 UNL     1       1.214  48.968  61.756  1.00  0.00     0.012 C 
HETATM   19  C25 UNL     1       0.907  50.058  59.602  1.00  0.00     0.012 C 
ENDBRANCH  14  17
ENDBRANCH  13  14
ENDBRANCH  11  13
ENDBRANCH   4   9
ENDBRANCH   2   4
ENDBRANCH   1   2
BRANCH   1  20
HETATM   20  C7  UNL     1       4.372  42.947  54.995  1.00  0.00     0.059 C 
BRANCH  20  21
HETATM   21  C8  UNL     1       5.598  43.180  55.784  1.00  0.00    -0.009 C 
HETATM   22  C9  UNL     1       5.578  43.030  57.246  1.00  0.00     0.005 C 
HETATM   23  C10 UNL     1       6.793  43.753  57.828  1.00  0.00     0.000 C 
HETATM   24  C11 UNL     1       8.047  43.272  57.182  1.00  0.00     0.000 C 
HETATM   25  C12 UNL     1       7.998  43.285  55.666  1.00  0.00     0.000 C 
HETATM   26  C13 UNL     1       6.811  42.448  55.204  1.00  0.00     0.005 C 
ENDBRANCH  20  21
ENDBRANCH   1  20
BRANCH   1  27
HETATM   27  C14 UNL     1       1.998  43.251  54.501  1.00  0.00     0.180 C 
BRANCH  27  28
HETATM   28  O1  UNL     1       1.472  41.991  54.951  1.00  0.00    -0.388 OA
ATOM     29  H1  UNL     1       0.607  41.858  54.583  1.00  0.00     0.210 HD
ENDBRANCH  27  28
BRANCH  27  30
HETATM   30  C15 UNL     1       2.257  43.104  53.022  1.00  0.00     0.152 C 
BRANCH  30  31
HETATM   31  N2  UNL     1       1.700  44.276  52.343  1.00  0.00    -0.406 N 
ATOM     32  H2  UNL     1       1.586  45.168  52.823  1.00  0.00     0.154 HD
BRANCH  31  33
HETATM   33  C16 UNL     1       1.328  44.108  50.988  1.00  0.00     0.179 C 
HETATM   34  C17 UNL     1       2.602  43.988  50.146  1.00  0.00     0.062 C 
HETATM   35  C18 UNL     1       2.310  44.674  48.855  1.00  0.00     0.181 C 
HETATM   36  O2  UNL     1       1.464  45.708  49.242  1.00  0.00    -0.320 OA
HETATM   37  C19 UNL     1       0.786  45.402  50.400  1.00  0.00     0.281 C 
HETATM   38  O3  UNL     1      -0.127  46.091  50.864  1.00  0.00    -0.263 OA
ENDBRANCH  31  33
ENDBRANCH  30  31
ENDBRANCH  27  30
ENDBRANCH   1  27
TORSDOF 16
ENDMDL
