MODEL 1
REMARK VINA RESULT: -6.893043649      0.000      0.000
REMARK  16 active torsions:
REMARK  status: ('A' for Active; 'I' for Inactive)
REMARK    1  A    between atoms: C2_2  and  N2_6 
REMARK    2  A    between atoms: N2_6  and  C3_8 
REMARK    3  A    between atoms: C3_8  and  C4_9 
REMARK    4  A    between atoms: C4_9  and  C5_10 
REMARK    5  A    between atoms: C5_10  and  C6_11 
REMARK    6  A    between atoms: C6_11  and  C7_12 
REMARK    7  A    between atoms: C6_11  and  N4_32 
REMARK    8  A    between atoms: C7_12  and  C8_13 
REMARK    9  A    between atoms: C8_13  and  C9_15 
REMARK   10  A    between atoms: C10_16  and  C12_18 
REMARK   11  A    between atoms: C13_19  and  C14_20 
REMARK   12  A    between atoms: C14_20  and  O2_21 
REMARK   13  A    between atoms: C14_20  and  C15_23 
REMARK   14  A    between atoms: C15_23  and  C16_24 
REMARK   15  A    between atoms: C15_23  and  S1_27 
REMARK   16  A    between atoms: S1_27  and  S2_29 
ROOT
HETATM    1  S2  UNL     1      -1.352  44.440  48.490  1.00  0.00     0.055 SA
HETATM    2  C19 UNL     1      -0.607  43.584  47.169  1.00  0.00     0.147 C 
HETATM    3  N3  UNL     1      -0.094  43.020  46.300  1.00  0.00    -0.183 NA
ENDROOT
BRANCH   1   4
HETATM    4  S1  UNL     1      -0.072  45.308  49.818  1.00  0.00     0.099 S 
HETATM    5  O3  UNL     1      -0.733  46.275  50.973  1.00  0.00    -0.245 OA
BRANCH   4   6
HETATM    6  C15 UNL     1       1.238  44.257  50.398  1.00  0.00     0.127 C 
BRANCH   6   7
HETATM    7  C14 UNL     1       1.373  44.493  51.866  1.00  0.00     0.158 C 
BRANCH   7   8
HETATM    8  C13 UNL     1       2.106  43.475  52.600  1.00  0.00     0.006 C 
HETATM    9  C12 UNL     1       2.420  43.408  53.834  1.00  0.00     0.005 C 
BRANCH   9  10
HETATM   10  C10 UNL     1       2.237  44.200  55.011  1.00  0.00    -0.059 C 
HETATM   11  C9  UNL     1       2.129  43.523  56.167  1.00  0.00     0.056 C 
HETATM   12  C11 UNL     1       2.149  45.663  55.146  1.00  0.00     0.048 C 
BRANCH  11  13
HETATM   13  C8  UNL     1       1.944  44.080  57.463  1.00  0.00     0.151 C 
HETATM   14  O1  UNL     1       0.929  44.640  57.908  1.00  0.00    -0.293 OA
BRANCH  13  15
HETATM   15  C7  UNL     1       3.092  44.005  58.452  1.00  0.00     0.108 C 
BRANCH  15  16
HETATM   16  C6  UNL     1       4.383  44.463  57.867  1.00  0.00     0.091 C 
BRANCH  16  17
HETATM   17  C5  UNL     1       4.789  45.736  58.603  1.00  0.00     0.027 C 
BRANCH  17  18
HETATM   18  C4  UNL     1       4.202  46.968  57.960  1.00  0.00     0.022 C 
BRANCH  18  19
HETATM   19  C3  UNL     1       3.594  47.795  59.065  1.00  0.00     0.121 C 
BRANCH  19  20
HETATM   20  N2  UNL     1       2.261  47.303  59.339  1.00  0.00    -0.380 N 
ATOM     21  H2  UNL     1       2.176  46.392  59.790  1.00  0.00     0.160 HD
BRANCH  20  22
HETATM   22  C2  UNL     1       1.070  47.996  59.025  1.00  0.00     0.066 C 
HETATM   23  C1  UNL     1       1.095  49.486  59.099  1.00  0.00     0.088 C 
HETATM   24  N1  UNL     1      -0.030  47.439  58.685  1.00  0.00    -0.389 N 
ATOM     25  H12 UNL     1      -0.890  47.939  58.458  1.00  0.00     0.157 HD
ATOM     26  H11 UNL     1      -0.047  46.421  58.634  1.00  0.00     0.157 HD
ENDBRANCH  20  22
ENDBRANCH  19  20
ENDBRANCH  18  19
ENDBRANCH  17  18
ENDBRANCH  16  17
BRANCH  16  27
HETATM   27  N4  UNL     1       5.415  43.466  57.944  1.00  0.00    -0.362 N 
HETATM   28  C20 UNL     1       6.012  42.958  56.928  1.00  0.00     0.197 C 
HETATM   29  N5  UNL     1       7.028  41.967  57.181  1.00  0.00    -0.067 NA
HETATM   30  N6  UNL     1       5.753  43.295  55.578  1.00  0.00    -0.067 NA
ATOM     31  H4  UNL     1       5.691  43.140  58.870  1.00  0.00     0.162 HD
ENDBRANCH  16  27
ENDBRANCH  15  16
ENDBRANCH  13  15
ENDBRANCH  11  13
ENDBRANCH   9  10
ENDBRANCH   7   8
BRANCH   7  32
HETATM   32  O2  UNL     1       1.927  45.789  52.103  1.00  0.00    -0.390 OA
ATOM     33  H2  UNL     1       1.299  46.469  51.893  1.00  0.00     0.210 HD
ENDBRANCH   7  32
ENDBRANCH   6   7
BRANCH   6  34
HETATM   34  C16 UNL     1       2.425  44.449  49.549  1.00  0.00    -0.003 C 
HETATM   35  C17 UNL     1       2.436  45.633  48.639  1.00  0.00     0.011 C 
HETATM   36  C18 UNL     1       2.851  43.245  48.738  1.00  0.00     0.011 C 
ENDBRANCH   6  34
ENDBRANCH   4   6
ENDBRANCH   1   4
TORSDOF 16
ENDMDL
MODEL 2
REMARK VINA RESULT: -6.384272557      1.009      4.040
REMARK  16 active torsions:
REMARK  status: ('A' for Active; 'I' for Inactive)
REMARK    1  A    between atoms: C2_2  and  N2_6 
REMARK    2  A    between atoms: N2_6  and  C3_8 
REMARK    3  A    between atoms: C3_8  and  C4_9 
REMARK    4  A    between atoms: C4_9  and  C5_10 
REMARK    5  A    between atoms: C5_10  and  C6_11 
REMARK    6  A    between atoms: C6_11  and  C7_12 
REMARK    7  A    between atoms: C6_11  and  N4_32 
REMARK    8  A    between atoms: C7_12  and  C8_13 
REMARK    9  A    between atoms: C8_13  and  C9_15 
REMARK   10  A    between atoms: C10_16  and  C12_18 
REMARK   11  A    between atoms: C13_19  and  C14_20 
REMARK   12  A    between atoms: C14_20  and  O2_21 
REMARK   13  A    between atoms: C14_20  and  C15_23 
REMARK   14  A    between atoms: C15_23  and  C16_24 
REMARK   15  A    between atoms: C15_23  and  S1_27 
REMARK   16  A    between atoms: S1_27  and  S2_29 
ROOT
HETATM    1  S2  UNL     1      -1.352  44.457  48.465  1.00  0.00     0.055 SA
HETATM    2  C19 UNL     1      -0.636  43.577  47.143  1.00  0.00     0.147 C 
HETATM    3  N3  UNL     1      -0.143  42.998  46.273  1.00  0.00    -0.183 NA
ENDROOT
BRANCH   1   4
HETATM    4  S1  UNL     1      -0.042  45.309  49.774  1.00  0.00     0.099 S 
HETATM    5  O3  UNL     1      -0.675  46.281  50.942  1.00  0.00    -0.245 OA
BRANCH   4   6
HETATM    6  C15 UNL     1       1.266  44.245  50.331  1.00  0.00     0.127 C 
BRANCH   6   7
HETATM    7  C14 UNL     1       1.424  44.472  51.798  1.00  0.00     0.158 C 
BRANCH   7   8
HETATM    8  C13 UNL     1       2.209  43.475  52.506  1.00  0.00     0.006 C 
HETATM    9  C12 UNL     1       2.497  43.375  53.745  1.00  0.00     0.005 C 
BRANCH   9  10
HETATM   10  C10 UNL     1       2.232  44.099  54.949  1.00  0.00    -0.059 C 
HETATM   11  C9  UNL     1       2.049  43.358  56.055  1.00  0.00     0.056 C 
HETATM   12  C11 UNL     1       2.131  45.552  55.160  1.00  0.00     0.048 C 
BRANCH  11  13
HETATM   13  C8  UNL     1       1.775  43.841  57.365  1.00  0.00     0.151 C 
HETATM   14  O1  UNL     1       0.714  44.334  57.783  1.00  0.00    -0.293 OA
BRANCH  13  15
HETATM   15  C7  UNL     1       2.873  43.766  58.408  1.00  0.00     0.108 C 
BRANCH  15  16
HETATM   16  C6  UNL     1       3.576  45.067  58.594  1.00  0.00     0.091 C 
BRANCH  16  17
HETATM   17  C5  UNL     1       4.746  45.095  57.615  1.00  0.00     0.027 C 
BRANCH  17  18
HETATM   18  C4  UNL     1       6.052  44.764  58.293  1.00  0.00     0.022 C 
BRANCH  18  19
HETATM   19  C3  UNL     1       6.463  43.394  57.813  1.00  0.00     0.121 C 
BRANCH  19  20
HETATM   20  N2  UNL     1       5.975  43.204  56.465  1.00  0.00    -0.380 N 
ATOM     21  H2  UNL     1       4.996  43.424  56.280  1.00  0.00     0.160 HD
BRANCH  20  22
HETATM   22  C2  UNL     1       6.759  42.736  55.386  1.00  0.00     0.066 C 
HETATM   23  C1  UNL     1       8.168  43.216  55.295  1.00  0.00     0.088 C 
HETATM   24  N1  UNL     1       6.348  41.932  54.480  1.00  0.00    -0.389 N 
ATOM     25  H12 UNL     1       6.914  41.594  53.702  1.00  0.00     0.157 HD
ATOM     26  H11 UNL     1       5.384  41.604  54.543  1.00  0.00     0.157 HD
ENDBRANCH  20  22
ENDBRANCH  19  20
ENDBRANCH  18  19
ENDBRANCH  17  18
ENDBRANCH  16  17
BRANCH  16  27
HETATM   27  N4  UNL     1       2.712  46.199  58.404  1.00  0.00    -0.362 N 
HETATM   28  C20 UNL     1       2.820  47.310  59.037  1.00  0.00     0.197 C 
HETATM   29  N5  UNL     1       1.870  48.349  58.725  1.00  0.00    -0.067 NA
HETATM   30  N6  UNL     1       3.801  47.597  60.017  1.00  0.00    -0.067 NA
ATOM     31  H4  UNL     1       1.961  46.114  57.720  1.00  0.00     0.162 HD
ENDBRANCH  16  27
ENDBRANCH  15  16
ENDBRANCH  13  15
ENDBRANCH  11  13
ENDBRANCH   9  10
ENDBRANCH   7   8
BRANCH   7  32
HETATM   32  O2  UNL     1       1.935  45.786  52.036  1.00  0.00    -0.390 OA
ATOM     33  H2  UNL     1       2.324  46.145  51.248  1.00  0.00     0.210 HD
ENDBRANCH   7  32
ENDBRANCH   6   7
BRANCH   6  34
HETATM   34  C16 UNL     1       2.443  44.431  49.467  1.00  0.00    -0.003 C 
HETATM   35  C17 UNL     1       2.450  45.616  48.559  1.00  0.00     0.011 C 
HETATM   36  C18 UNL     1       2.849  43.225  48.647  1.00  0.00     0.011 C 
ENDBRANCH   6  34
ENDBRANCH   4   6
ENDBRANCH   1   4
TORSDOF 16
ENDMDL
MODEL 3
REMARK VINA RESULT: -6.327422486      1.946      2.310
REMARK  16 active torsions:
REMARK  status: ('A' for Active; 'I' for Inactive)
REMARK    1  A    between atoms: C2_2  and  N2_6 
REMARK    2  A    between atoms: N2_6  and  C3_8 
REMARK    3  A    between atoms: C3_8  and  C4_9 
REMARK    4  A    between atoms: C4_9  and  C5_10 
REMARK    5  A    between atoms: C5_10  and  C6_11 
REMARK    6  A    between atoms: C6_11  and  C7_12 
REMARK    7  A    between atoms: C6_11  and  N4_32 
REMARK    8  A    between atoms: C7_12  and  C8_13 
REMARK    9  A    between atoms: C8_13  and  C9_15 
REMARK   10  A    between atoms: C10_16  and  C12_18 
REMARK   11  A    between atoms: C13_19  and  C14_20 
REMARK   12  A    between atoms: C14_20  and  O2_21 
REMARK   13  A    between atoms: C14_20  and  C15_23 
REMARK   14  A    between atoms: C15_23  and  C16_24 
REMARK   15  A    between atoms: C15_23  and  S1_27 
REMARK   16  A    between atoms: S1_27  and  S2_29 
ROOT
HETATM    1  S2  UNL     1      -1.300  44.319  48.482  1.00  0.00     0.055 SA
HETATM    2  C19 UNL     1      -0.518  43.500  47.158  1.00  0.00     0.147 C 
HETATM    3  N3  UNL     1       0.019  42.963  46.287  1.00  0.00    -0.183 NA
ENDROOT
BRANCH   1   4
HETATM    4  S1  UNL     1      -0.063  45.298  49.773  1.00  0.00     0.099 S 
HETATM    5  O3  UNL     1      -0.767  46.315  50.858  1.00  0.00    -0.245 OA
BRANCH   4   6
HETATM    6  C15 UNL     1       1.263  44.319  50.434  1.00  0.00     0.127 C 
BRANCH   6   7
HETATM    7  C14 UNL     1       1.408  44.688  51.873  1.00  0.00     0.158 C 
BRANCH   7   8
HETATM    8  C13 UNL     1       2.097  43.716  52.704  1.00  0.00     0.006 C 
HETATM    9  C12 UNL     1       2.353  43.728  53.954  1.00  0.00     0.005 C 
BRANCH   9  10
HETATM   10  C10 UNL     1       2.122  44.595  55.067  1.00  0.00    -0.059 C 
HETATM   11  C9  UNL     1       1.769  43.997  56.218  1.00  0.00     0.056 C 
HETATM   12  C11 UNL     1       2.217  46.062  55.142  1.00  0.00     0.048 C 
BRANCH  11  13
HETATM   13  C8  UNL     1       1.489  44.638  57.456  1.00  0.00     0.151 C 
HETATM   14  O1  UNL     1       0.378  44.967  57.904  1.00  0.00    -0.293 OA
BRANCH  13  15
HETATM   15  C7  UNL     1       2.649  44.980  58.373  1.00  0.00     0.108 C 
BRANCH  15  16
HETATM   16  C6  UNL     1       2.614  44.213  59.650  1.00  0.00     0.091 C 
BRANCH  16  17
HETATM   17  C5  UNL     1       2.495  45.227  60.784  1.00  0.00     0.027 C 
BRANCH  17  18
HETATM   18  C4  UNL     1       3.511  46.335  60.656  1.00  0.00     0.022 C 
BRANCH  18  19
HETATM   19  C3  UNL     1       2.832  47.609  61.094  1.00  0.00     0.121 C 
BRANCH  19  20
HETATM   20  N2  UNL     1       1.448  47.571  60.671  1.00  0.00    -0.380 N 
ATOM     21  H2  UNL     1       0.807  46.982  61.202  1.00  0.00     0.160 HD
BRANCH  20  22
HETATM   22  C2  UNL     1       0.924  48.293  59.575  1.00  0.00     0.066 C 
HETATM   23  C1  UNL     1       1.171  49.764  59.533  1.00  0.00     0.088 C 
HETATM   24  N1  UNL     1       0.252  47.779  58.617  1.00  0.00    -0.389 N 
ATOM     25  H12 UNL     1      -0.126  48.300  57.826  1.00  0.00     0.157 HD
ATOM     26  H11 UNL     1       0.084  46.773  58.646  1.00  0.00     0.157 HD
ENDBRANCH  20  22
ENDBRANCH  19  20
ENDBRANCH  18  19
ENDBRANCH  17  18
ENDBRANCH  16  17
BRANCH  16  27
HETATM   27  N4  UNL     1       1.546  43.254  59.696  1.00  0.00    -0.362 N 
HETATM   28  C20 UNL     1       1.705  41.999  59.911  1.00  0.00     0.197 C 
HETATM   29  N5  UNL     1       0.524  41.171  59.926  1.00  0.00    -0.067 NA
HETATM   30  N6  UNL     1       2.950  41.362  60.135  1.00  0.00    -0.067 NA
ATOM     31  H4  UNL     1       0.596  43.593  59.547  1.00  0.00     0.162 HD
ENDBRANCH  16  27
ENDBRANCH  15  16
ENDBRANCH  13  15
ENDBRANCH  11  13
ENDBRANCH   9  10
ENDBRANCH   7   8
BRANCH   7  32
HETATM   32  O2  UNL     1       2.015  45.977  51.988  1.00  0.00    -0.390 OA
ATOM     33  H2  UNL     1       2.210  46.337  51.130  1.00  0.00     0.210 HD
ENDBRANCH   7  32
ENDBRANCH   6   7
BRANCH   6  34
HETATM   34  C16 UNL     1       2.441  44.446  49.561  1.00  0.00    -0.003 C 
HETATM   35  C17 UNL     1       2.451  45.571  48.580  1.00  0.00     0.011 C 
HETATM   36  C18 UNL     1       2.844  43.189  48.820  1.00  0.00     0.011 C 
ENDBRANCH   6  34
ENDBRANCH   4   6
ENDBRANCH   1   4
TORSDOF 16
ENDMDL
MODEL 4
REMARK VINA RESULT: -6.232296834      1.723      2.169
REMARK  16 active torsions:
REMARK  status: ('A' for Active; 'I' for Inactive)
REMARK    1  A    between atoms: C2_2  and  N2_6 
REMARK    2  A    between atoms: N2_6  and  C3_8 
REMARK    3  A    between atoms: C3_8  and  C4_9 
REMARK    4  A    between atoms: C4_9  and  C5_10 
REMARK    5  A    between atoms: C5_10  and  C6_11 
REMARK    6  A    between atoms: C6_11  and  C7_12 
REMARK    7  A    between atoms: C6_11  and  N4_32 
REMARK    8  A    between atoms: C7_12  and  C8_13 
REMARK    9  A    between atoms: C8_13  and  C9_15 
REMARK   10  A    between atoms: C10_16  and  C12_18 
REMARK   11  A    between atoms: C13_19  and  C14_20 
REMARK   12  A    between atoms: C14_20  and  O2_21 
REMARK   13  A    between atoms: C14_20  and  C15_23 
REMARK   14  A    between atoms: C15_23  and  C16_24 
REMARK   15  A    between atoms: C15_23  and  S1_27 
REMARK   16  A    between atoms: S1_27  and  S2_29 
ROOT
HETATM    1  S2  UNL     1      -1.330  44.468  48.679  1.00  0.00     0.055 SA
HETATM    2  C19 UNL     1      -0.658  43.632  47.306  1.00  0.00     0.147 C 
HETATM    3  N3  UNL     1      -0.193  43.081  46.402  1.00  0.00    -0.183 NA
ENDROOT
BRANCH   1   4
HETATM    4  S1  UNL     1       0.023  45.262  49.981  1.00  0.00     0.099 S 
HETATM    5  O3  UNL     1      -0.570  46.195  51.200  1.00  0.00    -0.245 OA
BRANCH   4   6
HETATM    6  C15 UNL     1       1.337  44.169  50.462  1.00  0.00     0.127 C 
BRANCH   6   7
HETATM    7  C14 UNL     1       1.510  44.312  51.938  1.00  0.00     0.158 C 
BRANCH   7   8
HETATM    8  C13 UNL     1       2.280  43.263  52.584  1.00  0.00     0.006 C 
HETATM    9  C12 UNL     1       2.542  43.067  53.817  1.00  0.00     0.005 C 
BRANCH   9  10
HETATM   10  C10 UNL     1       2.252  43.697  55.067  1.00  0.00    -0.059 C 
HETATM   11  C9  UNL     1       2.520  42.974  56.168  1.00  0.00     0.056 C 
HETATM   12  C11 UNL     1       1.698  45.035  55.332  1.00  0.00     0.048 C 
BRANCH  11  13
HETATM   13  C8  UNL     1       2.320  43.378  57.518  1.00  0.00     0.151 C 
HETATM   14  O1  UNL     1       1.302  43.223  58.212  1.00  0.00    -0.293 OA
BRANCH  13  15
HETATM   15  C7  UNL     1       3.455  44.083  58.237  1.00  0.00     0.108 C 
BRANCH  15  16
HETATM   16  C6  UNL     1       3.225  45.549  58.369  1.00  0.00     0.091 C 
BRANCH  16  17
HETATM   17  C5  UNL     1       2.480  45.776  59.681  1.00  0.00     0.027 C 
BRANCH  17  18
HETATM   18  C4  UNL     1       1.126  46.401  59.457  1.00  0.00     0.022 C 
BRANCH  18  19
HETATM   19  C3  UNL     1       0.689  46.993  60.774  1.00  0.00     0.121 C 
BRANCH  19  20
HETATM   20  N2  UNL     1       0.222  48.344  60.548  1.00  0.00    -0.380 N 
ATOM     21  H2  UNL     1      -0.733  48.568  60.827  1.00  0.00     0.160 HD
BRANCH  20  22
HETATM   22  C2  UNL     1       0.997  49.374  59.969  1.00  0.00     0.066 C 
HETATM   23  C1  UNL     1       2.230  49.804  60.692  1.00  0.00     0.088 C 
HETATM   24  N1  UNL     1       0.719  49.967  58.871  1.00  0.00    -0.389 N 
ATOM     25  H12 UNL     1       1.279  50.711  58.453  1.00  0.00     0.157 HD
ATOM     26  H11 UNL     1      -0.123  49.673  58.377  1.00  0.00     0.157 HD
ENDBRANCH  20  22
ENDBRANCH  19  20
ENDBRANCH  18  19
ENDBRANCH  17  18
ENDBRANCH  16  17
BRANCH  16  27
HETATM   27  N4  UNL     1       4.442  46.311  58.325  1.00  0.00    -0.362 N 
HETATM   28  C20 UNL     1       4.720  47.187  57.429  1.00  0.00     0.197 C 
HETATM   29  N5  UNL     1       5.988  47.865  57.532  1.00  0.00    -0.067 NA
HETATM   30  N6  UNL     1       3.877  47.542  56.348  1.00  0.00    -0.067 NA
ATOM     31  H4  UNL     1       5.134  46.144  59.056  1.00  0.00     0.162 HD
ENDBRANCH  16  27
ENDBRANCH  15  16
ENDBRANCH  13  15
ENDBRANCH  11  13
ENDBRANCH   9  10
ENDBRANCH   7   8
BRANCH   7  32
HETATM   32  O2  UNL     1       2.049  45.600  52.244  1.00  0.00    -0.390 OA
ATOM     33  H2  UNL     1       1.556  46.285  51.809  1.00  0.00     0.210 HD
ENDBRANCH   7  32
ENDBRANCH   6   7
BRANCH   6  34
HETATM   34  C16 UNL     1       2.505  44.405  49.598  1.00  0.00    -0.003 C 
HETATM   35  C17 UNL     1       2.487  45.624  48.736  1.00  0.00     0.011 C 
HETATM   36  C18 UNL     1       2.924  43.238  48.731  1.00  0.00     0.011 C 
ENDBRANCH   6  34
ENDBRANCH   4   6
ENDBRANCH   1   4
TORSDOF 16
ENDMDL
MODEL 5
REMARK VINA RESULT: -6.205457378      2.070      3.004
REMARK  16 active torsions:
REMARK  status: ('A' for Active; 'I' for Inactive)
REMARK    1  A    between atoms: C2_2  and  N2_6 
REMARK    2  A    between atoms: N2_6  and  C3_8 
REMARK    3  A    between atoms: C3_8  and  C4_9 
REMARK    4  A    between atoms: C4_9  and  C5_10 
REMARK    5  A    between atoms: C5_10  and  C6_11 
REMARK    6  A    between atoms: C6_11  and  C7_12 
REMARK    7  A    between atoms: C6_11  and  N4_32 
REMARK    8  A    between atoms: C7_12  and  C8_13 
REMARK    9  A    between atoms: C8_13  and  C9_15 
REMARK   10  A    between atoms: C10_16  and  C12_18 
REMARK   11  A    between atoms: C13_19  and  C14_20 
REMARK   12  A    between atoms: C14_20  and  O2_21 
REMARK   13  A    between atoms: C14_20  and  C15_23 
REMARK   14  A    between atoms: C15_23  and  C16_24 
REMARK   15  A    between atoms: C15_23  and  S1_27 
REMARK   16  A    between atoms: S1_27  and  S2_29 
ROOT
HETATM    1  S2  UNL     1      -1.232  44.492  48.610  1.00  0.00     0.055 SA
HETATM    2  C19 UNL     1      -0.603  43.443  47.370  1.00  0.00     0.147 C 
HETATM    3  N3  UNL     1      -0.167  42.748  46.556  1.00  0.00    -0.183 NA
ENDROOT
BRANCH   1   4
HETATM    4  S1  UNL     1       0.131  45.191  49.956  1.00  0.00     0.099 S 
HETATM    5  O3  UNL     1      -0.438  46.137  51.176  1.00  0.00    -0.245 OA
BRANCH   4   6
HETATM    6  C15 UNL     1       1.370  44.019  50.450  1.00  0.00     0.127 C 
BRANCH   6   7
HETATM    7  C14 UNL     1       1.482  44.097  51.937  1.00  0.00     0.158 C 
BRANCH   7   8
HETATM    8  C13 UNL     1       2.324  43.088  52.556  1.00  0.00     0.006 C 
HETATM    9  C12 UNL     1       2.627  42.900  53.781  1.00  0.00     0.005 C 
BRANCH   9  10
HETATM   10  C10 UNL     1       2.333  43.506  55.043  1.00  0.00    -0.059 C 
HETATM   11  C9  UNL     1       2.660  44.804  55.164  1.00  0.00     0.056 C 
HETATM   12  C11 UNL     1       1.718  42.913  56.241  1.00  0.00     0.048 C 
BRANCH  11  13
HETATM   13  C8  UNL     1       2.469  45.623  56.311  1.00  0.00     0.151 C 
HETATM   14  O1  UNL     1       1.401  46.097  56.734  1.00  0.00    -0.293 OA
BRANCH  13  15
HETATM   15  C7  UNL     1       3.680  45.989  57.149  1.00  0.00     0.108 C 
BRANCH  15  16
HETATM   16  C6  UNL     1       3.389  45.980  58.610  1.00  0.00     0.091 C 
BRANCH  16  17
HETATM   17  C5  UNL     1       3.681  44.573  59.123  1.00  0.00     0.027 C 
BRANCH  17  18
HETATM   18  C4  UNL     1       2.426  43.871  59.581  1.00  0.00     0.022 C 
BRANCH  18  19
HETATM   19  C3  UNL     1       1.522  44.925  60.172  1.00  0.00     0.121 C 
BRANCH  19  20
HETATM   20  N2  UNL     1       0.268  44.924  59.451  1.00  0.00    -0.380 N 
ATOM     21  H2  UNL     1       0.013  44.077  58.944  1.00  0.00     0.160 HD
BRANCH  20  22
HETATM   22  C2  UNL     1      -0.630  46.015  59.403  1.00  0.00     0.066 C 
HETATM   23  C1  UNL     1      -1.841  45.955  60.271  1.00  0.00     0.088 C 
HETATM   24  N1  UNL     1      -0.481  47.050  58.666  1.00  0.00    -0.389 N 
ATOM     25  H12 UNL     1      -1.128  47.837  58.631  1.00  0.00     0.157 HD
ATOM     26  H11 UNL     1       0.348  47.091  58.073  1.00  0.00     0.157 HD
ENDBRANCH  20  22
ENDBRANCH  19  20
ENDBRANCH  18  19
ENDBRANCH  17  18
ENDBRANCH  16  17
BRANCH  16  27
HETATM   27  N4  UNL     1       4.143  46.964  59.335  1.00  0.00    -0.362 N 
HETATM   28  C20 UNL     1       3.656  48.055  59.801  1.00  0.00     0.197 C 
HETATM   29  N5  UNL     1       4.553  48.936  60.508  1.00  0.00    -0.067 NA
HETATM   30  N6  UNL     1       2.306  48.464  59.676  1.00  0.00    -0.067 NA
ATOM     31  H4  UNL     1       5.135  46.782  59.490  1.00  0.00     0.162 HD
ENDBRANCH  16  27
ENDBRANCH  15  16
ENDBRANCH  13  15
ENDBRANCH  11  13
ENDBRANCH   9  10
ENDBRANCH   7   8
BRANCH   7  32
HETATM   32  O2  UNL     1       1.889  45.410  52.328  1.00  0.00    -0.390 OA
ATOM     33  H2  UNL     1       2.794  45.569  52.087  1.00  0.00     0.210 HD
ENDBRANCH   7  32
ENDBRANCH   6   7
BRANCH   6  34
HETATM   34  C16 UNL     1       2.586  44.232  49.649  1.00  0.00    -0.003 C 
HETATM   35  C17 UNL     1       2.770  45.575  49.022  1.00  0.00     0.011 C 
HETATM   36  C18 UNL     1       2.860  43.190  48.585  1.00  0.00     0.011 C 
ENDBRANCH   6  34
ENDBRANCH   4   6
ENDBRANCH   1   4
TORSDOF 16
ENDMDL
