MODEL 1
REMARK VINA RESULT: -7.763930504      0.000      0.000
REMARK  16 active torsions:
REMARK  status: ('A' for Active; 'I' for Inactive)
REMARK    1  A    between atoms: C2_2  and  C3_4 
REMARK    2  A    between atoms: C5_7  and  C6_8 
REMARK    3  A    between atoms: C10_15  and  C11_16 
REMARK    4  A    between atoms: C11_16  and  C12_17 
REMARK    5  A    between atoms: C12_17  and  C13_18 
REMARK    6  A    between atoms: C12_17  and  C22_33 
REMARK    7  A    between atoms: C13_18  and  C14_19 
REMARK    8  A    between atoms: C14_19  and  O4_20 
REMARK    9  A    between atoms: C14_19  and  C15_22 
REMARK   10  A    between atoms: C15_22  and  C16_23 
REMARK   11  A    between atoms: C16_23  and  C17_24 
REMARK   12  A    between atoms: C17_24  and  C18_25 
REMARK   13  A    between atoms: C18_25  and  C19_26 
REMARK   14  A    between atoms: C19_26  and  C20_27 
REMARK   15  A    between atoms: C20_27  and  N2_28 
REMARK   16  A    between atoms: C25_36  and  O5_37 
ROOT
HETATM    1  C11 UNL     1       1.904  45.865  55.924  1.00  0.00     0.023 C 
ENDROOT
BRANCH   1   2
HETATM    2  C10 UNL     1       2.560  46.229  57.192  1.00  0.00     0.045 C 
HETATM    3  C9  UNL     1       3.823  46.990  57.160  1.00  0.00     0.251 C 
HETATM    4  N1  UNL     1       5.012  47.101  57.966  1.00  0.00    -0.340 N 
HETATM    5  O3  UNL     1       3.911  47.789  56.141  1.00  0.00    -0.268 OA
HETATM    6  C5  UNL     1       5.144  46.972  59.438  1.00  0.00     0.185 C 
ATOM      7  H1  UNL     1       5.876  47.293  57.459  1.00  0.00     0.164 HD
HETATM    8  C4  UNL     1       3.828  46.976  59.979  1.00  0.00     0.006 C 
HETATM    9  O2  UNL     1       2.712  47.037  60.565  1.00  0.00    -0.269 OA
HETATM   10  C3  UNL     1       1.691  47.143  59.541  1.00  0.00     0.142 C 
HETATM   11  C25 UNL     1       1.706  46.312  58.389  1.00  0.00     0.218 C 
BRANCH   6  12
HETATM   12  C6  UNL     1       6.064  48.103  59.936  1.00  0.00     0.013 C 
HETATM   13  C7  UNL     1       6.862  47.692  61.125  1.00  0.00     0.012 C 
HETATM   14  C8  UNL     1       7.020  48.516  58.839  1.00  0.00     0.012 C 
ENDBRANCH   6  12
BRANCH  10  15
HETATM   15  C2  UNL     1       1.364  48.585  59.347  1.00  0.00     0.178 C 
HETATM   16  C1  UNL     1       1.145  49.502  60.492  1.00  0.00     0.099 C 
HETATM   17  O1  UNL     1       1.260  49.090  58.235  1.00  0.00    -0.291 OA
ENDBRANCH  10  15
BRANCH  11  18
HETATM   18  O5  UNL     1       0.412  46.556  57.850  1.00  0.00    -0.384 OA
ATOM     19  H5  UNL     1       0.446  47.492  57.695  1.00  0.00     0.211 HD
ENDBRANCH  11  18
ENDBRANCH   1   2
BRANCH   1  20
HETATM   20  C12 UNL     1       2.359  44.985  54.877  1.00  0.00    -0.055 C 
BRANCH  20  21
HETATM   21  C13 UNL     1       1.980  44.465  53.628  1.00  0.00     0.012 C 
BRANCH  21  22
HETATM   22  C14 UNL     1       1.908  44.899  52.249  1.00  0.00     0.141 C 
BRANCH  22  23
HETATM   23  O4  UNL     1       1.710  43.646  51.460  1.00  0.00    -0.392 OA
ATOM     24  H4  UNL     1       2.147  43.806  50.632  1.00  0.00     0.210 HD
ENDBRANCH  22  23
BRANCH  22  25
HETATM   25  C15 UNL     1       0.848  45.725  51.658  1.00  0.00     0.036 C 
BRANCH  25  26
HETATM   26  C16 UNL     1       0.520  45.608  50.226  1.00  0.00     0.003 C 
BRANCH  26  27
HETATM   27  C17 UNL     1      -0.890  45.404  49.817  1.00  0.00     0.000 C 
BRANCH  27  28
HETATM   28  C18 UNL     1      -1.169  44.064  49.158  1.00  0.00     0.002 C 
BRANCH  28  29
HETATM   29  C19 UNL     1      -1.455  44.319  47.695  1.00  0.00     0.020 C 
BRANCH  29  30
HETATM   30  C20 UNL     1      -0.362  43.762  46.820  1.00  0.00     0.122 C 
BRANCH  30  31
HETATM   31  N2  UNL     1       0.584  43.011  47.622  1.00  0.00    -0.367 N 
HETATM   32  C21 UNL     1       1.789  43.427  47.771  1.00  0.00     0.196 C 
HETATM   33  N3  UNL     1       2.196  44.628  47.146  1.00  0.00    -0.067 NA
HETATM   34  N4  UNL     1       2.700  42.682  48.556  1.00  0.00    -0.067 NA
ATOM     35  H2  UNL     1       0.289  42.144  48.072  1.00  0.00     0.161 HD
ENDBRANCH  30  31
ENDBRANCH  29  30
ENDBRANCH  28  29
ENDBRANCH  27  28
ENDBRANCH  26  27
ENDBRANCH  25  26
ENDBRANCH  22  25
ENDBRANCH  21  22
ENDBRANCH  20  21
BRANCH  20  36
HETATM   36  C22 UNL     1       2.791  43.653  55.699  1.00  0.00     0.010 C 
HETATM   37  C23 UNL     1       4.222  43.342  55.603  1.00  0.00     0.015 C 
HETATM   38  C24 UNL     1       2.027  42.495  55.053  1.00  0.00     0.015 C 
ENDBRANCH  20  36
ENDBRANCH   1  20
TORSDOF 16
ENDMDL
MODEL 2
REMARK VINA RESULT: -7.675781831      1.889      3.623
REMARK  16 active torsions:
REMARK  status: ('A' for Active; 'I' for Inactive)
REMARK    1  A    between atoms: C2_2  and  C3_4 
REMARK    2  A    between atoms: C5_7  and  C6_8 
REMARK    3  A    between atoms: C10_15  and  C11_16 
REMARK    4  A    between atoms: C11_16  and  C12_17 
REMARK    5  A    between atoms: C12_17  and  C13_18 
REMARK    6  A    between atoms: C12_17  and  C22_33 
REMARK    7  A    between atoms: C13_18  and  C14_19 
REMARK    8  A    between atoms: C14_19  and  O4_20 
REMARK    9  A    between atoms: C14_19  and  C15_22 
REMARK   10  A    between atoms: C15_22  and  C16_23 
REMARK   11  A    between atoms: C16_23  and  C17_24 
REMARK   12  A    between atoms: C17_24  and  C18_25 
REMARK   13  A    between atoms: C18_25  and  C19_26 
REMARK   14  A    between atoms: C19_26  and  C20_27 
REMARK   15  A    between atoms: C20_27  and  N2_28 
REMARK   16  A    between atoms: C25_36  and  O5_37 
ROOT
HETATM    1  C11 UNL     1       2.727  44.806  55.547  1.00  0.00     0.023 C 
ENDROOT
BRANCH   1   2
HETATM    2  C10 UNL     1       1.972  45.569  56.556  1.00  0.00     0.045 C 
HETATM    3  C9  UNL     1       1.128  44.845  57.525  1.00  0.00     0.251 C 
HETATM    4  N1  UNL     1      -0.091  45.087  58.256  1.00  0.00    -0.340 N 
HETATM    5  O3  UNL     1       1.588  43.668  57.824  1.00  0.00    -0.268 OA
HETATM    6  C5  UNL     1      -0.607  46.373  58.787  1.00  0.00     0.185 C 
ATOM      7  H1  UNL     1      -0.674  44.269  58.431  1.00  0.00     0.164 HD
HETATM    8  C4  UNL     1       0.447  47.323  58.684  1.00  0.00     0.006 C 
HETATM    9  O2  UNL     1       1.332  48.223  58.700  1.00  0.00    -0.269 OA
HETATM   10  C3  UNL     1       2.531  47.660  58.112  1.00  0.00     0.142 C 
HETATM   11  C25 UNL     1       2.484  46.903  56.911  1.00  0.00     0.218 C 
BRANCH   6  12
HETATM   12  C6  UNL     1      -1.133  46.123  60.214  1.00  0.00     0.013 C 
HETATM   13  C7  UNL     1      -2.620  46.053  60.257  1.00  0.00     0.012 C 
HETATM   14  C8  UNL     1      -0.578  44.823  60.752  1.00  0.00     0.012 C 
ENDBRANCH   6  12
BRANCH  10  15
HETATM   15  C2  UNL     1       3.406  47.158  59.210  1.00  0.00     0.178 C 
HETATM   16  C1  UNL     1       4.000  48.067  60.219  1.00  0.00     0.099 C 
HETATM   17  O1  UNL     1       3.679  45.970  59.339  1.00  0.00    -0.291 OA
ENDBRANCH  10  15
BRANCH  11  18
HETATM   18  O5  UNL     1       3.864  46.822  56.575  1.00  0.00    -0.384 OA
ATOM     19  H5  UNL     1       3.826  46.818  55.626  1.00  0.00     0.211 HD
ENDBRANCH  11  18
ENDBRANCH   1   2
BRANCH   1  20
HETATM   20  C12 UNL     1       2.478  44.656  54.135  1.00  0.00    -0.055 C 
BRANCH  20  21
HETATM   21  C13 UNL     1       1.543  44.976  53.137  1.00  0.00     0.012 C 
BRANCH  21  22
HETATM   22  C14 UNL     1       1.490  45.077  51.694  1.00  0.00     0.141 C 
BRANCH  22  23
HETATM   23  O4  UNL     1       1.725  43.686  51.201  1.00  0.00    -0.392 OA
ATOM     24  H4  UNL     1       0.858  43.309  51.107  1.00  0.00     0.210 HD
ENDBRANCH  22  23
BRANCH  22  25
HETATM   25  C15 UNL     1       0.307  45.418  50.896  1.00  0.00     0.036 C 
BRANCH  25  26
HETATM   26  C16 UNL     1      -0.374  44.389  50.090  1.00  0.00     0.003 C 
BRANCH  26  27
HETATM   27  C17 UNL     1      -1.263  44.804  48.978  1.00  0.00     0.000 C 
BRANCH  27  28
HETATM   28  C18 UNL     1      -1.268  43.861  47.788  1.00  0.00     0.002 C 
BRANCH  28  29
HETATM   29  C19 UNL     1      -0.417  44.482  46.703  1.00  0.00     0.020 C 
BRANCH  29  30
HETATM   30  C20 UNL     1       0.925  43.803  46.606  1.00  0.00     0.122 C 
BRANCH  30  31
HETATM   31  N2  UNL     1       1.890  44.485  47.447  1.00  0.00    -0.367 N 
HETATM   32  C21 UNL     1       2.614  43.826  48.277  1.00  0.00     0.196 C 
HETATM   33  N3  UNL     1       2.468  42.423  48.371  1.00  0.00    -0.067 NA
HETATM   34  N4  UNL     1       3.550  44.506  49.090  1.00  0.00    -0.067 NA
ATOM     35  H2  UNL     1       1.994  45.498  47.378  1.00  0.00     0.161 HD
ENDBRANCH  30  31
ENDBRANCH  29  30
ENDBRANCH  28  29
ENDBRANCH  27  28
ENDBRANCH  26  27
ENDBRANCH  25  26
ENDBRANCH  22  25
ENDBRANCH  21  22
ENDBRANCH  20  21
BRANCH  20  36
HETATM   36  C22 UNL     1       2.711  43.065  53.905  1.00  0.00     0.010 C 
HETATM   37  C23 UNL     1       1.705  42.223  54.563  1.00  0.00     0.015 C 
HETATM   38  C24 UNL     1       4.065  42.743  54.541  1.00  0.00     0.015 C 
ENDBRANCH  20  36
ENDBRANCH   1  20
TORSDOF 16
ENDMDL
MODEL 3
REMARK VINA RESULT: -7.644557861      2.066      3.294
REMARK  16 active torsions:
REMARK  status: ('A' for Active; 'I' for Inactive)
REMARK    1  A    between atoms: C2_2  and  C3_4 
REMARK    2  A    between atoms: C5_7  and  C6_8 
REMARK    3  A    between atoms: C10_15  and  C11_16 
REMARK    4  A    between atoms: C11_16  and  C12_17 
REMARK    5  A    between atoms: C12_17  and  C13_18 
REMARK    6  A    between atoms: C12_17  and  C22_33 
REMARK    7  A    between atoms: C13_18  and  C14_19 
REMARK    8  A    between atoms: C14_19  and  O4_20 
REMARK    9  A    between atoms: C14_19  and  C15_22 
REMARK   10  A    between atoms: C15_22  and  C16_23 
REMARK   11  A    between atoms: C16_23  and  C17_24 
REMARK   12  A    between atoms: C17_24  and  C18_25 
REMARK   13  A    between atoms: C18_25  and  C19_26 
REMARK   14  A    between atoms: C19_26  and  C20_27 
REMARK   15  A    between atoms: C20_27  and  N2_28 
REMARK   16  A    between atoms: C25_36  and  O5_37 
ROOT
HETATM    1  C11 UNL     1       4.144  43.522  57.572  1.00  0.00     0.023 C 
ENDROOT
BRANCH   1   2
HETATM    2  C10 UNL     1       3.500  44.552  58.405  1.00  0.00     0.045 C 
HETATM    3  C9  UNL     1       3.879  45.966  58.228  1.00  0.00     0.251 C 
HETATM    4  N1  UNL     1       3.969  47.148  59.047  1.00  0.00    -0.340 N 
HETATM    5  O3  UNL     1       4.225  46.252  57.010  1.00  0.00    -0.268 OA
HETATM    6  C5  UNL     1       3.125  47.534  60.205  1.00  0.00     0.185 C 
ATOM      7  H1  UNL     1       4.709  47.805  58.798  1.00  0.00     0.164 HD
HETATM    8  C4  UNL     1       2.011  46.650  60.225  1.00  0.00     0.006 C 
HETATM    9  O2  UNL     1       0.953  45.965  60.294  1.00  0.00    -0.269 OA
HETATM   10  C3  UNL     1       1.001  44.986  59.225  1.00  0.00     0.142 C 
HETATM   11  C25 UNL     1       2.175  44.231  58.962  1.00  0.00     0.218 C 
BRANCH   6  12
HETATM   12  C6  UNL     1       2.778  49.029  60.064  1.00  0.00     0.013 C 
HETATM   13  C7  UNL     1       1.446  49.236  59.430  1.00  0.00     0.012 C 
HETATM   14  C8  UNL     1       2.767  49.690  61.424  1.00  0.00     0.012 C 
ENDBRANCH   6  12
BRANCH  10  15
HETATM   15  C2  UNL     1       0.252  45.528  58.055  1.00  0.00     0.178 C 
HETATM   16  C1  UNL     1      -1.125  46.063  58.182  1.00  0.00     0.099 C 
HETATM   17  O1  UNL     1       0.733  45.562  56.928  1.00  0.00    -0.291 OA
ENDBRANCH  10  15
BRANCH  11  18
HETATM   18  O5  UNL     1       1.677  43.240  58.070  1.00  0.00    -0.384 OA
ATOM     19  H5  UNL     1       1.865  42.443  58.553  1.00  0.00     0.211 HD
ENDBRANCH  11  18
ENDBRANCH   1   2
BRANCH   1  20
HETATM   20  C12 UNL     1       4.379  43.508  56.150  1.00  0.00    -0.055 C 
BRANCH  20  21
HETATM   21  C13 UNL     1       3.929  42.911  54.961  1.00  0.00     0.012 C 
BRANCH  21  22
HETATM   22  C14 UNL     1       2.683  42.714  54.251  1.00  0.00     0.141 C 
BRANCH  22  23
HETATM   23  O4  UNL     1       1.727  42.210  55.282  1.00  0.00    -0.392 OA
ATOM     24  H4  UNL     1       1.281  41.481  54.868  1.00  0.00     0.210 HD
ENDBRANCH  22  23
BRANCH  22  25
HETATM   25  C15 UNL     1       1.855  43.768  53.651  1.00  0.00     0.036 C 
BRANCH  25  26
HETATM   26  C16 UNL     1       1.791  43.926  52.188  1.00  0.00     0.003 C 
BRANCH  26  27
HETATM   27  C17 UNL     1       1.592  45.277  51.609  1.00  0.00     0.000 C 
BRANCH  27  28
HETATM   28  C18 UNL     1       2.017  45.411  50.157  1.00  0.00     0.002 C 
BRANCH  28  29
HETATM   29  C19 UNL     1       2.559  44.073  49.709  1.00  0.00     0.020 C 
BRANCH  29  30
HETATM   30  C20 UNL     1       1.794  43.542  48.525  1.00  0.00     0.122 C 
BRANCH  30  31
HETATM   31  N2  UNL     1       0.394  43.905  48.633  1.00  0.00    -0.367 N 
HETATM   32  C21 UNL     1      -0.387  43.807  47.619  1.00  0.00     0.196 C 
HETATM   33  N3  UNL     1       0.125  43.342  46.385  1.00  0.00    -0.067 NA
HETATM   34  N4  UNL     1      -1.749  44.166  47.741  1.00  0.00    -0.067 NA
ATOM     35  H2  UNL     1       0.027  44.241  49.524  1.00  0.00     0.161 HD
ENDBRANCH  30  31
ENDBRANCH  29  30
ENDBRANCH  28  29
ENDBRANCH  27  28
ENDBRANCH  26  27
ENDBRANCH  25  26
ENDBRANCH  22  25
ENDBRANCH  21  22
ENDBRANCH  20  21
BRANCH  20  36
HETATM   36  C22 UNL     1       5.988  43.302  56.061  1.00  0.00     0.010 C 
HETATM   37  C23 UNL     1       6.411  42.457  54.939  1.00  0.00     0.015 C 
HETATM   38  C24 UNL     1       6.391  42.586  57.352  1.00  0.00     0.015 C 
ENDBRANCH  20  36
ENDBRANCH   1  20
TORSDOF 16
ENDMDL
MODEL 4
REMARK VINA RESULT: -7.624610252      0.901      1.234
REMARK  16 active torsions:
REMARK  status: ('A' for Active; 'I' for Inactive)
REMARK    1  A    between atoms: C2_2  and  C3_4 
REMARK    2  A    between atoms: C5_7  and  C6_8 
REMARK    3  A    between atoms: C10_15  and  C11_16 
REMARK    4  A    between atoms: C11_16  and  C12_17 
REMARK    5  A    between atoms: C12_17  and  C13_18 
REMARK    6  A    between atoms: C12_17  and  C22_33 
REMARK    7  A    between atoms: C13_18  and  C14_19 
REMARK    8  A    between atoms: C14_19  and  O4_20 
REMARK    9  A    between atoms: C14_19  and  C15_22 
REMARK   10  A    between atoms: C15_22  and  C16_23 
REMARK   11  A    between atoms: C16_23  and  C17_24 
REMARK   12  A    between atoms: C17_24  and  C18_25 
REMARK   13  A    between atoms: C18_25  and  C19_26 
REMARK   14  A    between atoms: C19_26  and  C20_27 
REMARK   15  A    between atoms: C20_27  and  N2_28 
REMARK   16  A    between atoms: C25_36  and  O5_37 
ROOT
HETATM    1  C11 UNL     1       1.714  45.768  55.643  1.00  0.00     0.023 C 
ENDROOT
BRANCH   1   2
HETATM    2  C10 UNL     1       2.359  45.974  56.952  1.00  0.00     0.045 C 
HETATM    3  C9  UNL     1       3.653  46.677  57.017  1.00  0.00     0.251 C 
HETATM    4  N1  UNL     1       4.829  46.655  57.849  1.00  0.00    -0.340 N 
HETATM    5  O3  UNL     1       3.796  47.570  56.085  1.00  0.00    -0.268 OA
HETATM    6  C5  UNL     1       4.925  46.373  59.302  1.00  0.00     0.185 C 
ATOM      7  H1  UNL     1       5.711  46.858  57.377  1.00  0.00     0.164 HD
HETATM    8  C4  UNL     1       3.600  46.381  59.820  1.00  0.00     0.006 C 
HETATM    9  O2  UNL     1       2.476  46.433  60.390  1.00  0.00    -0.269 OA
HETATM   10  C3  UNL     1       1.481  46.686  59.366  1.00  0.00     0.142 C 
HETATM   11  C25 UNL     1       1.484  45.975  58.137  1.00  0.00     0.218 C 
BRANCH   6  12
HETATM   12  C6  UNL     1       5.883  47.407  59.926  1.00  0.00     0.013 C 
HETATM   13  C7  UNL     1       6.655  48.149  58.890  1.00  0.00     0.012 C 
HETATM   14  C8  UNL     1       5.103  48.408  60.749  1.00  0.00     0.012 C 
ENDBRANCH   6  12
BRANCH  10  15
HETATM   15  C2  UNL     1       1.220  48.153  59.314  1.00  0.00     0.178 C 
HETATM   16  C1  UNL     1       0.743  48.909  60.497  1.00  0.00     0.099 C 
HETATM   17  O1  UNL     1       1.385  48.813  58.293  1.00  0.00    -0.291 OA
ENDBRANCH  10  15
BRANCH  11  18
HETATM   18  O5  UNL     1       0.213  46.328  57.604  1.00  0.00    -0.384 OA
ATOM     19  H5  UNL     1       0.461  46.920  56.904  1.00  0.00     0.211 HD
ENDBRANCH  11  18
ENDBRANCH   1   2
BRANCH   1  20
HETATM   20  C12 UNL     1       2.206  45.077  54.477  1.00  0.00    -0.055 C 
BRANCH  20  21
HETATM   21  C13 UNL     1       1.910  44.843  53.124  1.00  0.00     0.012 C 
BRANCH  21  22
HETATM   22  C14 UNL     1       1.185  45.482  52.047  1.00  0.00     0.141 C 
BRANCH  22  23
HETATM   23  O4  UNL     1       2.206  46.300  51.327  1.00  0.00    -0.392 OA
ATOM     24  H4  UNL     1       1.988  47.202  51.533  1.00  0.00     0.210 HD
ENDBRANCH  22  23
BRANCH  22  25
HETATM   25  C15 UNL     1       0.568  44.804  50.900  1.00  0.00     0.036 C 
BRANCH  25  26
HETATM   26  C16 UNL     1      -0.405  45.512  50.048  1.00  0.00     0.003 C 
BRANCH  26  27
HETATM   27  C17 UNL     1      -1.419  44.732  49.299  1.00  0.00     0.000 C 
BRANCH  27  28
HETATM   28  C18 UNL     1      -0.847  43.653  48.397  1.00  0.00     0.002 C 
BRANCH  28  29
HETATM   29  C19 UNL     1      -0.398  44.314  47.113  1.00  0.00     0.020 C 
BRANCH  29  30
HETATM   30  C20 UNL     1       1.001  43.896  46.743  1.00  0.00     0.122 C 
BRANCH  30  31
HETATM   31  N2  UNL     1       1.961  44.530  47.626  1.00  0.00    -0.367 N 
HETATM   32  C21 UNL     1       2.685  43.826  48.418  1.00  0.00     0.196 C 
HETATM   33  N3  UNL     1       2.545  42.419  48.428  1.00  0.00    -0.067 NA
HETATM   34  N4  UNL     1       3.616  44.460  49.274  1.00  0.00    -0.067 NA
ATOM     35  H2  UNL     1       2.060  45.545  47.619  1.00  0.00     0.161 HD
ENDBRANCH  30  31
ENDBRANCH  29  30
ENDBRANCH  28  29
ENDBRANCH  27  28
ENDBRANCH  26  27
ENDBRANCH  25  26
ENDBRANCH  22  25
ENDBRANCH  21  22
ENDBRANCH  20  21
BRANCH  20  36
HETATM   36  C22 UNL     1       2.478  43.580  55.044  1.00  0.00     0.010 C 
HETATM   37  C23 UNL     1       3.885  43.324  55.375  1.00  0.00     0.015 C 
HETATM   38  C24 UNL     1       2.093  42.626  53.912  1.00  0.00     0.015 C 
ENDBRANCH  20  36
ENDBRANCH   1  20
TORSDOF 16
ENDMDL
MODEL 5
REMARK VINA RESULT: -7.620428522      3.381      4.931
REMARK  16 active torsions:
REMARK  status: ('A' for Active; 'I' for Inactive)
REMARK    1  A    between atoms: C2_2  and  C3_4 
REMARK    2  A    between atoms: C5_7  and  C6_8 
REMARK    3  A    between atoms: C10_15  and  C11_16 
REMARK    4  A    between atoms: C11_16  and  C12_17 
REMARK    5  A    between atoms: C12_17  and  C13_18 
REMARK    6  A    between atoms: C12_17  and  C22_33 
REMARK    7  A    between atoms: C13_18  and  C14_19 
REMARK    8  A    between atoms: C14_19  and  O4_20 
REMARK    9  A    between atoms: C14_19  and  C15_22 
REMARK   10  A    between atoms: C15_22  and  C16_23 
REMARK   11  A    between atoms: C16_23  and  C17_24 
REMARK   12  A    between atoms: C17_24  and  C18_25 
REMARK   13  A    between atoms: C18_25  and  C19_26 
REMARK   14  A    between atoms: C19_26  and  C20_27 
REMARK   15  A    between atoms: C20_27  and  N2_28 
REMARK   16  A    between atoms: C25_36  and  O5_37 
ROOT
HETATM    1  C11 UNL     1       4.143  44.278  56.485  1.00  0.00     0.023 C 
ENDROOT
BRANCH   1   2
HETATM    2  C10 UNL     1       5.408  43.853  57.108  1.00  0.00     0.045 C 
HETATM    3  C9  UNL     1       6.298  42.929  56.380  1.00  0.00     0.251 C 
HETATM    4  N1  UNL     1       7.244  41.893  56.707  1.00  0.00    -0.340 N 
HETATM    5  O3  UNL     1       6.235  43.070  55.091  1.00  0.00    -0.268 OA
HETATM    6  C5  UNL     1       8.137  41.800  57.889  1.00  0.00     0.185 C 
ATOM      7  H1  UNL     1       7.309  41.124  56.041  1.00  0.00     0.164 HD
HETATM    8  C4  UNL     1       8.100  43.062  58.544  1.00  0.00     0.006 C 
HETATM    9  O2  UNL     1       8.191  44.159  59.161  1.00  0.00    -0.269 OA
HETATM   10  C3  UNL     1       7.308  45.101  58.501  1.00  0.00     0.142 C 
HETATM   11  C25 UNL     1       5.984  44.743  58.130  1.00  0.00     0.218 C 
BRANCH   6  12
HETATM   12  C6  UNL     1       9.528  41.351  57.401  1.00  0.00     0.013 C 
HETATM   13  C7  UNL     1      10.289  42.470  56.776  1.00  0.00     0.012 C 
HETATM   14  C8  UNL     1      10.337  40.811  58.559  1.00  0.00     0.012 C 
ENDBRANCH   6  12
BRANCH  10  15
HETATM   15  C2  UNL     1       8.108  45.894  57.525  1.00  0.00     0.178 C 
HETATM   16  C1  UNL     1       8.780  47.160  57.903  1.00  0.00     0.099 C 
HETATM   17  O1  UNL     1       8.254  45.543  56.359  1.00  0.00    -0.291 OA
ENDBRANCH  10  15
BRANCH  11  18
HETATM   18  O5  UNL     1       5.429  46.013  57.808  1.00  0.00    -0.384 OA
ATOM     19  H5  UNL     1       4.650  46.020  58.351  1.00  0.00     0.211 HD
ENDBRANCH  11  18
ENDBRANCH   1   2
BRANCH   1  20
HETATM   20  C12 UNL     1       2.991  43.493  56.120  1.00  0.00    -0.055 C 
BRANCH  20  21
HETATM   21  C13 UNL     1       2.411  42.820  55.032  1.00  0.00     0.012 C 
BRANCH  21  22
HETATM   22  C14 UNL     1       2.305  42.969  53.596  1.00  0.00     0.141 C 
BRANCH  22  23
HETATM   23  O4  UNL     1       1.276  41.970  53.179  1.00  0.00    -0.392 OA
ATOM     24  H4  UNL     1       1.264  42.011  52.230  1.00  0.00     0.210 HD
ENDBRANCH  22  23
BRANCH  22  25
HETATM   25  C15 UNL     1       1.797  44.148  52.886  1.00  0.00     0.036 C 
BRANCH  25  26
HETATM   26  C16 UNL     1       1.627  44.124  51.422  1.00  0.00     0.003 C 
BRANCH  26  27
HETATM   27  C17 UNL     1       1.797  45.377  50.648  1.00  0.00     0.000 C 
BRANCH  27  28
HETATM   28  C18 UNL     1       2.738  45.265  49.461  1.00  0.00     0.002 C 
BRANCH  28  29
HETATM   29  C19 UNL     1       2.951  43.795  49.179  1.00  0.00     0.020 C 
BRANCH  29  30
HETATM   30  C20 UNL     1       2.339  43.398  47.860  1.00  0.00     0.122 C 
BRANCH  30  31
HETATM   31  N2  UNL     1       0.904  43.247  48.003  1.00  0.00    -0.367 N 
HETATM   32  C21 UNL     1       0.099  44.018  47.364  1.00  0.00     0.196 C 
HETATM   33  N3  UNL     1       0.620  45.022  46.515  1.00  0.00    -0.067 NA
HETATM   34  N4  UNL     1      -1.298  43.859  47.514  1.00  0.00    -0.067 NA
ATOM     35  H2  UNL     1       0.530  42.523  48.616  1.00  0.00     0.161 HD
ENDBRANCH  30  31
ENDBRANCH  29  30
ENDBRANCH  28  29
ENDBRANCH  27  28
ENDBRANCH  26  27
ENDBRANCH  25  26
ENDBRANCH  22  25
ENDBRANCH  21  22
ENDBRANCH  20  21
BRANCH  20  36
HETATM   36  C22 UNL     1       1.760  44.396  56.673  1.00  0.00     0.010 C 
HETATM   37  C23 UNL     1       1.920  45.832  56.412  1.00  0.00     0.015 C 
HETATM   38  C24 UNL     1       1.750  44.206  58.191  1.00  0.00     0.015 C 
ENDBRANCH  20  36
ENDBRANCH   1  20
TORSDOF 16
ENDMDL
