MODEL 1
REMARK VINA RESULT: -4.719551792      0.000      0.000
REMARK  5 active torsions:
REMARK  status: ('A' for Active; 'I' for Inactive)
REMARK    1  A    between atoms: C2_2  and  C3_3 
REMARK    2  A    between atoms: C3_3  and  N1_4 
REMARK    3  A    between atoms: C3_3  and  C4_8 
REMARK    4  A    between atoms: C4_8  and  N2_9 
REMARK    5  A    between atoms: C6_13  and  N4_14 
ROOT
HETATM    1  N2  UNL     1      43.838  -7.254  -3.102  1.00  0.00    -0.231 N 
HETATM    2  N3  UNL     1      43.111  -7.552  -2.053  1.00  0.00    -0.292 N 
ATOM      3  H3  UNL     1      43.157  -7.059  -1.162  1.00  0.00     0.188 HD
HETATM    4  C5  UNL     1      42.292  -8.597  -2.307  1.00  0.00     0.158 A 
HETATM    5  C6  UNL     1      42.547  -8.958  -3.613  1.00  0.00     0.132 A 
HETATM    6  N5  UNL     1      43.496  -8.110  -4.053  1.00  0.00    -0.268 N 
ATOM      7  H5  UNL     1      43.896  -8.125  -4.991  1.00  0.00     0.190 HD
ENDROOT
BRANCH   1   8
HETATM    8  C4  UNL     1      44.843  -6.210  -3.274  1.00  0.00     0.202 C 
BRANCH   8   9
HETATM    9  C3  UNL     1      44.264  -5.037  -4.013  1.00  0.00     0.204 C 
BRANCH   9  10
HETATM   10  C2  UNL     1      45.419  -4.064  -4.276  1.00  0.00     0.030 C 
HETATM   11  C1  UNL     1      45.379  -2.908  -3.300  1.00  0.00     0.007 C 
ENDBRANCH   9  10
BRANCH   9  12
HETATM   12  N1  UNL     1      43.317  -4.356  -3.168  1.00  0.00    -0.073 N 
ATOM     13  H13 UNL     1      42.886  -3.550  -3.620  1.00  0.00     0.274 HD
ATOM     14  H12 UNL     1      42.464  -4.892  -3.012  1.00  0.00     0.274 HD
ATOM     15  H11 UNL     1      43.803  -4.117  -2.303  1.00  0.00     0.274 HD
ENDBRANCH   9  12
ENDBRANCH   8   9
ENDBRANCH   1   8
BRANCH   5  16
HETATM   16  N4  UNL     1      41.965  -9.931  -4.259  1.00  0.00    -0.383 N 
ATOM     17  H42 UNL     1      41.714 -10.858  -3.917  1.00  0.00     0.157 HD
ATOM     18  H41 UNL     1      41.668  -9.901  -5.234  1.00  0.00     0.157 HD
ENDBRANCH   5  16
TORSDOF 5
ENDMDL
MODEL 2
REMARK VINA RESULT: -4.666813017      3.151      4.414
REMARK  5 active torsions:
REMARK  status: ('A' for Active; 'I' for Inactive)
REMARK    1  A    between atoms: C2_2  and  C3_3 
REMARK    2  A    between atoms: C3_3  and  N1_4 
REMARK    3  A    between atoms: C3_3  and  C4_8 
REMARK    4  A    between atoms: C4_8  and  N2_9 
REMARK    5  A    between atoms: C6_13  and  N4_14 
ROOT
HETATM    1  N2  UNL     1      44.721  -7.957  -6.083  1.00  0.00    -0.231 N 
HETATM    2  N3  UNL     1      45.840  -7.968  -6.767  1.00  0.00    -0.292 N 
ATOM      3  H3  UNL     1      46.620  -7.332  -6.604  1.00  0.00     0.188 HD
HETATM    4  C5  UNL     1      45.823  -8.931  -7.714  1.00  0.00     0.158 A 
HETATM    5  C6  UNL     1      44.597  -9.550  -7.592  1.00  0.00     0.132 A 
HETATM    6  N5  UNL     1      43.964  -8.920  -6.585  1.00  0.00    -0.268 N 
ATOM      7  H5  UNL     1      43.028  -9.153  -6.254  1.00  0.00     0.190 HD
ENDROOT
BRANCH   1   8
HETATM    8  C4  UNL     1      44.312  -7.095  -4.979  1.00  0.00     0.202 C 
BRANCH   8   9
HETATM    9  C3  UNL     1      44.679  -7.716  -3.661  1.00  0.00     0.204 C 
BRANCH   9  10
HETATM   10  C2  UNL     1      43.516  -7.440  -2.701  1.00  0.00     0.030 C 
HETATM   11  C1  UNL     1      42.488  -8.549  -2.771  1.00  0.00     0.007 C 
ENDBRANCH   9  10
BRANCH   9  12
HETATM   12  N1  UNL     1      45.840  -7.054  -3.124  1.00  0.00    -0.073 N 
ATOM     13  H13 UNL     1      46.462  -6.692  -3.847  1.00  0.00     0.274 HD
ATOM     14  H12 UNL     1      45.622  -6.164  -2.679  1.00  0.00     0.274 HD
ATOM     15  H11 UNL     1      46.299  -7.714  -2.495  1.00  0.00     0.274 HD
ENDBRANCH   9  12
ENDBRANCH   8   9
ENDBRANCH   1   8
BRANCH   5  16
HETATM   16  N4  UNL     1      44.172 -10.543  -8.324  1.00  0.00    -0.383 N 
ATOM     17  H42 UNL     1      43.841 -10.524  -9.288  1.00  0.00     0.157 HD
ATOM     18  H41 UNL     1      44.107 -11.515  -8.024  1.00  0.00     0.157 HD
ENDBRANCH   5  16
TORSDOF 5
ENDMDL
MODEL 3
REMARK VINA RESULT: -4.599695800      2.378      3.036
REMARK  5 active torsions:
REMARK  status: ('A' for Active; 'I' for Inactive)
REMARK    1  A    between atoms: C2_2  and  C3_3 
REMARK    2  A    between atoms: C3_3  and  N1_4 
REMARK    3  A    between atoms: C3_3  and  C4_8 
REMARK    4  A    between atoms: C4_8  and  N2_9 
REMARK    5  A    between atoms: C6_13  and  N4_14 
ROOT
HETATM    1  N2  UNL     1      45.119  -7.293  -4.905  1.00  0.00    -0.231 N 
HETATM    2  N3  UNL     1      45.821  -7.044  -5.983  1.00  0.00    -0.292 N 
ATOM      3  H3  UNL     1      46.604  -6.391  -6.023  1.00  0.00     0.188 HD
HETATM    4  C5  UNL     1      45.373  -7.763  -7.036  1.00  0.00     0.158 A 
HETATM    5  C6  UNL     1      44.316  -8.505  -6.553  1.00  0.00     0.132 A 
HETATM    6  N5  UNL     1      44.202  -8.183  -5.251  1.00  0.00    -0.268 N 
ATOM      7  H5  UNL     1      43.504  -8.572  -4.617  1.00  0.00     0.190 HD
ENDROOT
BRANCH   1   8
HETATM    8  C4  UNL     1      45.253  -6.747  -3.559  1.00  0.00     0.202 C 
BRANCH   8   9
HETATM    9  C3  UNL     1      43.921  -6.276  -3.045  1.00  0.00     0.204 C 
BRANCH   9  10
HETATM   10  C2  UNL     1      43.754  -4.825  -3.510  1.00  0.00     0.030 C 
HETATM   11  C1  UNL     1      45.071  -4.082  -3.431  1.00  0.00     0.007 C 
ENDBRANCH   9  10
BRANCH   9  12
HETATM   12  N1  UNL     1      43.939  -6.263  -1.606  1.00  0.00    -0.073 N 
ATOM     13  H13 UNL     1      43.380  -5.509  -1.206  1.00  0.00     0.274 HD
ATOM     14  H12 UNL     1      43.424  -7.041  -1.194  1.00  0.00     0.274 HD
ATOM     15  H11 UNL     1      44.917  -6.233  -1.316  1.00  0.00     0.274 HD
ENDBRANCH   9  12
ENDBRANCH   8   9
ENDBRANCH   1   8
BRANCH   5  16
HETATM   16  N4  UNL     1      43.595  -9.340  -7.249  1.00  0.00    -0.383 N 
ATOM     17  H42 UNL     1      42.590  -9.505  -7.199  1.00  0.00     0.157 HD
ATOM     18  H41 UNL     1      43.947  -9.971  -7.969  1.00  0.00     0.157 HD
ENDBRANCH   5  16
TORSDOF 5
ENDMDL
MODEL 4
REMARK VINA RESULT: -4.543518516      3.051      4.567
REMARK  5 active torsions:
REMARK  status: ('A' for Active; 'I' for Inactive)
REMARK    1  A    between atoms: C2_2  and  C3_3 
REMARK    2  A    between atoms: C3_3  and  N1_4 
REMARK    3  A    between atoms: C3_3  and  C4_8 
REMARK    4  A    between atoms: C4_8  and  N2_9 
REMARK    5  A    between atoms: C6_13  and  N4_14 
ROOT
HETATM    1  N2  UNL     1      44.495  -7.327  -4.900  1.00  0.00    -0.231 N 
HETATM    2  N3  UNL     1      43.529  -8.127  -4.518  1.00  0.00    -0.292 N 
ATOM      3  H3  UNL     1      43.123  -8.858  -5.101  1.00  0.00     0.188 HD
HETATM    4  C5  UNL     1      43.142  -7.855  -3.252  1.00  0.00     0.158 A 
HETATM    5  C6  UNL     1      43.937  -6.808  -2.838  1.00  0.00     0.132 A 
HETATM    6  N5  UNL     1      44.744  -6.523  -3.878  1.00  0.00    -0.268 N 
ATOM      7  H5  UNL     1      45.451  -5.788  -3.877  1.00  0.00     0.190 HD
ENDROOT
BRANCH   1   8
HETATM    8  C4  UNL     1      45.206  -7.265  -6.172  1.00  0.00     0.202 C 
BRANCH   8   9
HETATM    9  C3  UNL     1      44.467  -8.040  -7.227  1.00  0.00     0.204 C 
BRANCH   9  10
HETATM   10  C2  UNL     1      45.287  -9.304  -7.507  1.00  0.00     0.030 C 
HETATM   11  C1  UNL     1      44.392 -10.524  -7.559  1.00  0.00     0.007 C 
ENDBRANCH   9  10
BRANCH   9  12
HETATM   12  N1  UNL     1      44.433  -7.276  -8.447  1.00  0.00    -0.073 N 
ATOM     13  H13 UNL     1      43.814  -7.677  -9.152  1.00  0.00     0.274 HD
ATOM     14  H12 UNL     1      43.954  -6.382  -8.345  1.00  0.00     0.274 HD
ATOM     15  H11 UNL     1      45.396  -7.179  -8.770  1.00  0.00     0.274 HD
ENDBRANCH   9  12
ENDBRANCH   8   9
ENDBRANCH   1   8
BRANCH   5  16
HETATM   16  N4  UNL     1      43.888  -6.235  -1.667  1.00  0.00    -0.383 N 
ATOM     17  H42 UNL     1      43.075  -5.866  -1.175  1.00  0.00     0.157 HD
ATOM     18  H41 UNL     1      44.687  -6.068  -1.055  1.00  0.00     0.157 HD
ENDBRANCH   5  16
TORSDOF 5
ENDMDL
MODEL 5
REMARK VINA RESULT: -4.483612792      2.552      4.031
REMARK  5 active torsions:
REMARK  status: ('A' for Active; 'I' for Inactive)
REMARK    1  A    between atoms: C2_2  and  C3_3 
REMARK    2  A    between atoms: C3_3  and  N1_4 
REMARK    3  A    between atoms: C3_3  and  C4_8 
REMARK    4  A    between atoms: C4_8  and  N2_9 
REMARK    5  A    between atoms: C6_13  and  N4_14 
ROOT
HETATM    1  N2  UNL     1      44.623  -7.182  -5.054  1.00  0.00    -0.231 N 
HETATM    2  N3  UNL     1      45.751  -7.846  -5.129  1.00  0.00    -0.292 N 
ATOM      3  H3  UNL     1      46.469  -7.846  -4.404  1.00  0.00     0.188 HD
HETATM    4  C5  UNL     1      45.840  -8.529  -6.292  1.00  0.00     0.158 A 
HETATM    5  C6  UNL     1      44.673  -8.255  -6.972  1.00  0.00     0.132 A 
HETATM    6  N5  UNL     1      43.966  -7.430  -6.176  1.00  0.00    -0.268 N 
ATOM      7  H5  UNL     1      43.048  -7.049  -6.406  1.00  0.00     0.190 HD
ENDROOT
BRANCH   1   8
HETATM    8  C4  UNL     1      44.117  -6.323  -3.990  1.00  0.00     0.202 C 
BRANCH   8   9
HETATM    9  C3  UNL     1      43.983  -7.094  -2.707  1.00  0.00     0.204 C 
BRANCH   9  10
HETATM   10  C2  UNL     1      42.640  -7.831  -2.770  1.00  0.00     0.030 C 
HETATM   11  C1  UNL     1      42.821  -9.303  -2.468  1.00  0.00     0.007 C 
ENDBRANCH   9  10
BRANCH   9  12
HETATM   12  N1  UNL     1      43.914  -6.177  -1.600  1.00  0.00    -0.073 N 
ATOM     13  H13 UNL     1      42.981  -6.110  -1.194  1.00  0.00     0.274 HD
ATOM     14  H12 UNL     1      44.396  -6.518  -0.768  1.00  0.00     0.274 HD
ATOM     15  H11 UNL     1      44.272  -5.280  -1.928  1.00  0.00     0.274 HD
ENDBRANCH   9  12
ENDBRANCH   8   9
ENDBRANCH   1   8
BRANCH   5  16
HETATM   16  N4  UNL     1      44.353  -8.719  -8.148  1.00  0.00    -0.383 N 
ATOM     17  H42 UNL     1      44.727  -8.453  -9.059  1.00  0.00     0.157 HD
ATOM     18  H41 UNL     1      43.656  -9.441  -8.332  1.00  0.00     0.157 HD
ENDBRANCH   5  16
TORSDOF 5
ENDMDL
