MODEL 1
REMARK VINA RESULT: -8.500389839      0.000      0.000
REMARK  8 active torsions:
REMARK  status: ('A' for Active; 'I' for Inactive)
REMARK    1  A    between atoms: N1_2  and  C2_4 
REMARK    2  A    between atoms: C4_6  and  C5_7 
REMARK    3  A    between atoms: C5_7  and  C6_8 
REMARK       I    between atoms: C6_8  and  N2_10 
REMARK    4  A    between atoms: N2_10  and  C7_12 
REMARK    5  A    between atoms: C10_15  and  C11_16 
REMARK    6  A    between atoms: C15_26  and  N6_27 
REMARK    7  A    between atoms: N6_27  and  C16_28 
REMARK    8  A    between atoms: C16_28  and  C17_29 
ROOT
HETATM    1  C7  UNL     1      49.433 -37.650  46.264  1.00  0.00     0.034 A 
HETATM    2  C8  UNL     1      48.627 -38.677  45.878  1.00  0.00     0.030 A 
HETATM    3  C9  UNL     1      48.466 -39.813  46.686  1.00  0.00     0.014 A 
HETATM    4  C10 UNL     1      49.127 -39.900  47.885  1.00  0.00    -0.023 A 
HETATM    5  C23 UNL     1      49.922 -38.865  48.268  1.00  0.00     0.014 A 
HETATM    6  C24 UNL     1      50.091 -37.754  47.495  1.00  0.00     0.030 A 
ENDROOT
BRANCH   4   7
HETATM    7  C11 UNL     1      49.132 -41.153  48.592  1.00  0.00     0.008 A 
HETATM    8  C12 UNL     1      49.698 -42.289  47.947  1.00  0.00     0.103 A 
HETATM    9  N3  UNL     1      49.655 -43.296  48.810  1.00  0.00    -0.351 N 
HETATM   10  C13 UNL     1      49.099 -42.872  49.955  1.00  0.00     0.122 A 
ATOM     11  H3  UNL     1      49.992 -44.242  48.632  1.00  0.00     0.166 HD
HETATM   12  N4  UNL     1      48.869 -43.556  51.060  1.00  0.00    -0.338 N 
HETATM   13  C22 UNL     1      48.755 -41.510  49.841  1.00  0.00     0.079 A 
HETATM   14  C14 UNL     1      48.291 -42.916  52.088  1.00  0.00     0.184 A 
ATOM     15  H4  UNL     1      49.122 -44.542  51.130  1.00  0.00     0.168 HD
HETATM   16  N5  UNL     1      47.947 -41.623  52.020  1.00  0.00    -0.327 N 
HETATM   17  C15 UNL     1      48.154 -40.842  50.902  1.00  0.00     0.194 A 
ATOM     18  H5  UNL     1      47.511 -41.194  52.837  1.00  0.00     0.169 HD
BRANCH  17  19
HETATM   19  N6  UNL     1      47.811 -39.716  50.878  1.00  0.00    -0.398 NA
BRANCH  19  20
HETATM   20  C16 UNL     1      47.386 -38.438  50.823  1.00  0.00     0.196 C 
BRANCH  20  21
HETATM   21  C17 UNL     1      48.131 -37.391  51.591  1.00  0.00    -0.005 A 
HETATM   22  C18 UNL     1      49.455 -37.446  51.873  1.00  0.00     0.031 A 
HETATM   23  C19 UNL     1      50.072 -36.441  52.575  1.00  0.00     0.088 A 
HETATM   24  N7  UNL     1      49.366 -35.362  53.005  1.00  0.00    -0.375 N 
HETATM   25  C20 UNL     1      48.068 -35.313  52.728  1.00  0.00     0.088 A 
ATOM     26  H7  UNL     1      49.821 -34.612  53.527  1.00  0.00     0.164 HD
HETATM   27  C21 UNL     1      47.396 -36.304  52.018  1.00  0.00     0.031 A 
ENDBRANCH  20  21
ENDBRANCH  19  20
ENDBRANCH  17  19
ENDBRANCH   4   7
BRANCH   1  28
HETATM   28  N2  UNL     1      49.795 -36.519  45.469  1.00  0.00    -0.327 N 
HETATM   29  C6  UNL     1      49.290 -35.248  45.707  1.00  0.00     0.226 C 
HETATM   30  O1  UNL     1      48.478 -35.042  46.691  1.00  0.00    -0.273 OA
ATOM     31  H2  UNL     1      50.448 -36.650  44.697  1.00  0.00     0.169 HD
BRANCH  29  32
HETATM   32  C5  UNL     1      49.599 -34.067  44.915  1.00  0.00     0.141 C 
BRANCH  32  33
HETATM   33  C4  UNL     1      50.333 -33.025  45.630  1.00  0.00    -0.045 A 
HETATM   34  C3  UNL     1      49.851 -31.704  45.607  1.00  0.00     0.055 A 
HETATM   35  C2  UNL     1      50.521 -30.688  46.272  1.00  0.00     0.100 A 
HETATM   36  N8  UNL     1      51.638 -30.951  46.941  1.00  0.00    -0.353 N 
HETATM   37  C26 UNL     1      52.108 -32.202  46.968  1.00  0.00     0.090 A 
ATOM     38  H8  UNL     1      52.132 -30.205  47.431  1.00  0.00     0.166 HD
HETATM   39  C25 UNL     1      51.476 -33.262  46.323  1.00  0.00     0.024 A 
BRANCH  35  40
HETATM   40  N1  UNL     1      50.024 -29.503  46.224  1.00  0.00    -0.381 N 
HETATM   41  C1  UNL     1      50.550 -28.367  46.921  1.00  0.00     0.147 C 
ATOM     42  H1  UNL     1      49.195 -29.360  45.648  1.00  0.00     0.160 HD
ENDBRANCH  35  40
ENDBRANCH  32  33
ENDBRANCH  29  32
ENDBRANCH   1  28
TORSDOF 8
ENDMDL
MODEL 2
REMARK VINA RESULT: -8.438906863      0.660      1.431
REMARK  8 active torsions:
REMARK  status: ('A' for Active; 'I' for Inactive)
REMARK    1  A    between atoms: N1_2  and  C2_4 
REMARK    2  A    between atoms: C4_6  and  C5_7 
REMARK    3  A    between atoms: C5_7  and  C6_8 
REMARK       I    between atoms: C6_8  and  N2_10 
REMARK    4  A    between atoms: N2_10  and  C7_12 
REMARK    5  A    between atoms: C10_15  and  C11_16 
REMARK    6  A    between atoms: C15_26  and  N6_27 
REMARK    7  A    between atoms: N6_27  and  C16_28 
REMARK    8  A    between atoms: C16_28  and  C17_29 
ROOT
HETATM    1  C7  UNL     1      49.334 -37.590  46.135  1.00  0.00     0.034 A 
HETATM    2  C8  UNL     1      48.484 -38.606  45.824  1.00  0.00     0.030 A 
HETATM    3  C9  UNL     1      48.363 -39.729  46.656  1.00  0.00     0.014 A 
HETATM    4  C10 UNL     1      49.108 -39.813  47.804  1.00  0.00    -0.023 A 
HETATM    5  C23 UNL     1      49.948 -38.788  48.115  1.00  0.00     0.014 A 
HETATM    6  C24 UNL     1      50.079 -37.690  47.316  1.00  0.00     0.030 A 
ENDROOT
BRANCH   4   7
HETATM    7  C11 UNL     1      49.144 -41.058  48.526  1.00  0.00     0.008 A 
HETATM    8  C12 UNL     1      49.707 -42.195  47.882  1.00  0.00     0.103 A 
HETATM    9  N3  UNL     1      49.695 -43.192  48.758  1.00  0.00    -0.351 N 
HETATM   10  C13 UNL     1      49.162 -42.760  49.910  1.00  0.00     0.122 A 
ATOM     11  H3  UNL     1      50.039 -44.136  48.583  1.00  0.00     0.166 HD
HETATM   12  N4  UNL     1      48.964 -43.433  51.028  1.00  0.00    -0.338 N 
HETATM   13  C22 UNL     1      48.799 -41.403  49.788  1.00  0.00     0.079 A 
HETATM   14  C14 UNL     1      48.403 -42.786  52.062  1.00  0.00     0.184 A 
ATOM     15  H4  UNL     1      49.230 -44.415  51.104  1.00  0.00     0.168 HD
HETATM   16  N5  UNL     1      48.044 -41.498  51.987  1.00  0.00    -0.327 N 
HETATM   17  C15 UNL     1      48.216 -40.728  50.854  1.00  0.00     0.194 A 
ATOM     18  H5  UNL     1      47.622 -41.064  52.808  1.00  0.00     0.169 HD
BRANCH  17  19
HETATM   19  N6  UNL     1      47.860 -39.607  50.825  1.00  0.00    -0.398 NA
BRANCH  19  20
HETATM   20  C16 UNL     1      47.421 -38.334  50.763  1.00  0.00     0.196 C 
BRANCH  20  21
HETATM   21  C17 UNL     1      48.119 -37.285  51.571  1.00  0.00    -0.005 A 
HETATM   22  C18 UNL     1      49.432 -37.323  51.904  1.00  0.00     0.031 A 
HETATM   23  C19 UNL     1      50.006 -36.317  52.640  1.00  0.00     0.088 A 
HETATM   24  N7  UNL     1      49.267 -35.253  53.053  1.00  0.00    -0.375 N 
HETATM   25  C20 UNL     1      47.980 -35.220  52.726  1.00  0.00     0.088 A 
ATOM     26  H7  UNL     1      49.690 -34.502  53.600  1.00  0.00     0.164 HD
HETATM   27  C21 UNL     1      47.351 -36.213  51.980  1.00  0.00     0.031 A 
ENDBRANCH  20  21
ENDBRANCH  19  20
ENDBRANCH  17  19
ENDBRANCH   4   7
BRANCH   1  28
HETATM   28  N2  UNL     1      49.656 -36.475  45.300  1.00  0.00    -0.327 N 
HETATM   29  C6  UNL     1      49.248 -35.181  45.595  1.00  0.00     0.226 C 
HETATM   30  O1  UNL     1      48.570 -34.938  46.668  1.00  0.00    -0.273 OA
ATOM     31  H2  UNL     1      50.205 -36.636  44.456  1.00  0.00     0.169 HD
BRANCH  29  32
HETATM   32  C5  UNL     1      49.521 -34.014  44.769  1.00  0.00     0.141 C 
BRANCH  32  33
HETATM   33  C4  UNL     1      50.277 -32.955  45.435  1.00  0.00    -0.045 A 
HETATM   34  C3  UNL     1      51.628 -33.174  45.760  1.00  0.00     0.055 A 
HETATM   35  C2  UNL     1      52.377 -32.194  46.393  1.00  0.00     0.100 A 
HETATM   36  N8  UNL     1      51.823 -31.028  46.706  1.00  0.00    -0.353 N 
HETATM   37  C26 UNL     1      50.540 -30.809  46.406  1.00  0.00     0.090 A 
ATOM     38  H8  UNL     1      52.373 -30.306  47.172  1.00  0.00     0.166 HD
HETATM   39  C25 UNL     1      49.740 -31.753  45.767  1.00  0.00     0.024 A 
BRANCH  35  40
HETATM   40  N1  UNL     1      53.611 -32.449  46.654  1.00  0.00    -0.381 N 
HETATM   41  C1  UNL     1      54.704 -31.568  46.375  1.00  0.00     0.147 C 
ATOM     42  H1  UNL     1      53.826 -33.345  47.092  1.00  0.00     0.160 HD
ENDBRANCH  35  40
ENDBRANCH  32  33
ENDBRANCH  29  32
ENDBRANCH   1  28
TORSDOF 8
ENDMDL
MODEL 3
REMARK VINA RESULT: -8.372577345      2.835      9.567
REMARK  8 active torsions:
REMARK  status: ('A' for Active; 'I' for Inactive)
REMARK    1  A    between atoms: N1_2  and  C2_4 
REMARK    2  A    between atoms: C4_6  and  C5_7 
REMARK    3  A    between atoms: C5_7  and  C6_8 
REMARK       I    between atoms: C6_8  and  N2_10 
REMARK    4  A    between atoms: N2_10  and  C7_12 
REMARK    5  A    between atoms: C10_15  and  C11_16 
REMARK    6  A    between atoms: C15_26  and  N6_27 
REMARK    7  A    between atoms: N6_27  and  C16_28 
REMARK    8  A    between atoms: C16_28  and  C17_29 
ROOT
HETATM    1  C7  UNL     1      48.327 -41.914  48.606  1.00  0.00     0.034 A 
HETATM    2  C8  UNL     1      47.208 -41.425  48.005  1.00  0.00     0.030 A 
HETATM    3  C9  UNL     1      47.289 -40.418  47.031  1.00  0.00     0.014 A 
HETATM    4  C10 UNL     1      48.512 -39.913  46.671  1.00  0.00    -0.023 A 
HETATM    5  C23 UNL     1      49.628 -40.413  47.269  1.00  0.00     0.014 A 
HETATM    6  C24 UNL     1      49.566 -41.391  48.218  1.00  0.00     0.030 A 
ENDROOT
BRANCH   4   7
HETATM    7  C11 UNL     1      48.567 -38.735  45.845  1.00  0.00     0.008 A 
HETATM    8  C12 UNL     1      48.321 -38.879  44.450  1.00  0.00     0.103 A 
HETATM    9  N3  UNL     1      48.354 -37.664  43.917  1.00  0.00    -0.351 N 
HETATM   10  C13 UNL     1      48.606 -36.766  44.880  1.00  0.00     0.122 A 
ATOM     11  H3  UNL     1      48.210 -37.448  42.930  1.00  0.00     0.166 HD
HETATM   12  N4  UNL     1      48.723 -35.456  44.772  1.00  0.00    -0.338 N 
HETATM   13  C22 UNL     1      48.748 -37.423  46.119  1.00  0.00     0.079 A 
HETATM   14  C14 UNL     1      48.984 -34.753  45.886  1.00  0.00     0.184 A 
ATOM     15  H4  UNL     1      48.619 -34.991  43.870  1.00  0.00     0.168 HD
HETATM   16  N5  UNL     1      49.128 -35.339  47.081  1.00  0.00    -0.327 N 
HETATM   17  C15 UNL     1      49.021 -36.701  47.275  1.00  0.00     0.194 A 
ATOM     18  H5  UNL     1      49.326 -34.749  47.889  1.00  0.00     0.169 HD
BRANCH  17  19
HETATM   19  N6  UNL     1      49.181 -37.176  48.340  1.00  0.00    -0.398 NA
BRANCH  19  20
HETATM   20  C16 UNL     1      49.335 -37.692  49.576  1.00  0.00     0.196 C 
BRANCH  20  21
HETATM   21  C17 UNL     1      48.747 -36.966  50.745  1.00  0.00    -0.005 A 
HETATM   22  C18 UNL     1      49.350 -36.842  51.952  1.00  0.00     0.031 A 
HETATM   23  C19 UNL     1      48.752 -36.150  52.975  1.00  0.00     0.088 A 
HETATM   24  N7  UNL     1      47.535 -35.570  52.801  1.00  0.00    -0.375 N 
HETATM   25  C20 UNL     1      46.947 -35.694  51.617  1.00  0.00     0.088 A 
ATOM     26  H7  UNL     1      47.087 -35.053  53.559  1.00  0.00     0.164 HD
HETATM   27  C21 UNL     1      47.512 -36.383  50.547  1.00  0.00     0.031 A 
ENDBRANCH  20  21
ENDBRANCH  19  20
ENDBRANCH  17  19
ENDBRANCH   4   7
BRANCH   1  28
HETATM   28  N2  UNL     1      48.363 -42.822  49.709  1.00  0.00    -0.327 N 
HETATM   29  C6  UNL     1      48.055 -42.433  51.006  1.00  0.00     0.226 C 
HETATM   30  O1  UNL     1      47.698 -41.217  51.255  1.00  0.00    -0.273 OA
ATOM     31  H2  UNL     1      48.624 -43.793  49.537  1.00  0.00     0.169 HD
BRANCH  29  32
HETATM   32  C5  UNL     1      48.103 -43.305  52.170  1.00  0.00     0.141 C 
BRANCH  32  33
HETATM   33  C4  UNL     1      47.626 -44.667  51.935  1.00  0.00    -0.045 A 
HETATM   34  C3  UNL     1      48.509 -45.747  52.117  1.00  0.00     0.055 A 
HETATM   35  C2  UNL     1      48.093 -47.052  51.903  1.00  0.00     0.100 A 
HETATM   36  N8  UNL     1      46.848 -47.301  51.516  1.00  0.00    -0.353 N 
HETATM   37  C26 UNL     1      46.001 -46.284  51.335  1.00  0.00     0.090 A 
ATOM     38  H8  UNL     1      46.540 -48.261  51.357  1.00  0.00     0.166 HD
HETATM   39  C25 UNL     1      46.359 -44.954  51.539  1.00  0.00     0.024 A 
BRANCH  35  40
HETATM   40  N1  UNL     1      48.943 -47.998  52.098  1.00  0.00    -0.381 N 
HETATM   41  C1  UNL     1      50.250 -48.055  51.516  1.00  0.00     0.147 C 
ATOM     42  H1  UNL     1      48.666 -48.763  52.713  1.00  0.00     0.160 HD
ENDBRANCH  35  40
ENDBRANCH  32  33
ENDBRANCH  29  32
ENDBRANCH   1  28
TORSDOF 8
ENDMDL
MODEL 4
REMARK VINA RESULT: -8.351991562      3.185      9.825
REMARK  8 active torsions:
REMARK  status: ('A' for Active; 'I' for Inactive)
REMARK    1  A    between atoms: N1_2  and  C2_4 
REMARK    2  A    between atoms: C4_6  and  C5_7 
REMARK    3  A    between atoms: C5_7  and  C6_8 
REMARK       I    between atoms: C6_8  and  N2_10 
REMARK    4  A    between atoms: N2_10  and  C7_12 
REMARK    5  A    between atoms: C10_15  and  C11_16 
REMARK    6  A    between atoms: C15_26  and  N6_27 
REMARK    7  A    between atoms: N6_27  and  C16_28 
REMARK    8  A    between atoms: C16_28  and  C17_29 
ROOT
HETATM    1  C7  UNL     1      48.438 -42.466  49.574  1.00  0.00     0.034 A 
HETATM    2  C8  UNL     1      49.625 -41.868  49.284  1.00  0.00     0.030 A 
HETATM    3  C9  UNL     1      49.694 -40.796  48.380  1.00  0.00     0.014 A 
HETATM    4  C10 UNL     1      48.552 -40.337  47.776  1.00  0.00    -0.023 A 
HETATM    5  C23 UNL     1      47.367 -40.933  48.079  1.00  0.00     0.014 A 
HETATM    6  C24 UNL     1      47.282 -41.976  48.954  1.00  0.00     0.030 A 
ENDROOT
BRANCH   4   7
HETATM    7  C11 UNL     1      48.664 -39.396  46.692  1.00  0.00     0.008 A 
HETATM    8  C12 UNL     1      48.409 -39.858  45.370  1.00  0.00     0.103 A 
HETATM    9  N3  UNL     1      48.500 -38.810  44.561  1.00  0.00    -0.351 N 
HETATM   10  C13 UNL     1      48.797 -37.720  45.283  1.00  0.00     0.122 A 
ATOM     11  H3  UNL     1      48.366 -38.830  43.551  1.00  0.00     0.166 HD
HETATM   12  N4  UNL     1      48.979 -36.481  44.867  1.00  0.00    -0.338 N 
HETATM   13  C22 UNL     1      48.909 -38.067  46.645  1.00  0.00     0.079 A 
HETATM   14  C14 UNL     1      49.276 -35.545  45.782  1.00  0.00     0.184 A 
ATOM     15  H4  UNL     1      48.896 -36.242  43.878  1.00  0.00     0.168 HD
HETATM   16  N5  UNL     1      49.392 -35.834  47.085  1.00  0.00    -0.327 N 
HETATM   17  C15 UNL     1      49.218 -37.103  47.598  1.00  0.00     0.194 A 
ATOM     18  H5  UNL     1      49.620 -35.077  47.730  1.00  0.00     0.169 HD
BRANCH  17  19
HETATM   19  N6  UNL     1      49.357 -37.315  48.748  1.00  0.00    -0.398 NA
BRANCH  19  20
HETATM   20  C16 UNL     1      49.532 -37.519  50.068  1.00  0.00     0.196 C 
BRANCH  20  21
HETATM   21  C17 UNL     1      48.698 -36.744  51.040  1.00  0.00    -0.005 A 
HETATM   22  C18 UNL     1      49.151 -36.260  52.222  1.00  0.00     0.031 A 
HETATM   23  C19 UNL     1      48.328 -35.548  53.058  1.00  0.00     0.088 A 
HETATM   24  N7  UNL     1      47.033 -35.309  52.717  1.00  0.00    -0.375 N 
HETATM   25  C20 UNL     1      46.594 -35.785  51.558  1.00  0.00     0.088 A 
ATOM     26  H7  UNL     1      46.418 -34.778  53.334  1.00  0.00     0.164 HD
HETATM   27  C21 UNL     1      47.388 -36.512  50.674  1.00  0.00     0.031 A 
ENDBRANCH  20  21
ENDBRANCH  19  20
ENDBRANCH  17  19
ENDBRANCH   4   7
BRANCH   1  28
HETATM   28  N2  UNL     1      48.260 -43.652  50.354  1.00  0.00    -0.327 N 
HETATM   29  C6  UNL     1      47.948 -43.615  51.706  1.00  0.00     0.226 C 
HETATM   30  O1  UNL     1      47.784 -42.484  52.308  1.00  0.00    -0.273 OA
ATOM     31  H2  UNL     1      48.367 -44.558  49.898  1.00  0.00     0.169 HD
BRANCH  29  32
HETATM   32  C5  UNL     1      47.784 -44.786  52.554  1.00  0.00     0.141 C 
BRANCH  32  33
HETATM   33  C4  UNL     1      46.951 -45.843  51.984  1.00  0.00    -0.045 A 
HETATM   34  C3  UNL     1      45.633 -45.546  51.593  1.00  0.00     0.055 A 
HETATM   35  C2  UNL     1      44.812 -46.523  51.049  1.00  0.00     0.100 A 
HETATM   36  N8  UNL     1      45.262 -47.762  50.893  1.00  0.00    -0.353 N 
HETATM   37  C26 UNL     1      46.512 -48.058  51.264  1.00  0.00     0.090 A 
ATOM     38  H8  UNL     1      44.660 -48.482  50.494  1.00  0.00     0.166 HD
HETATM   39  C25 UNL     1      47.382 -47.119  51.810  1.00  0.00     0.024 A 
BRANCH  35  40
HETATM   40  N1  UNL     1      43.620 -46.187  50.701  1.00  0.00    -0.381 N 
HETATM   41  C1  UNL     1      42.484 -46.183  51.571  1.00  0.00     0.147 C 
ATOM     42  H1  UNL     1      43.474 -45.901  49.732  1.00  0.00     0.160 HD
ENDBRANCH  35  40
ENDBRANCH  32  33
ENDBRANCH  29  32
ENDBRANCH   1  28
TORSDOF 8
ENDMDL
MODEL 5
REMARK VINA RESULT: -8.297267037      1.176      1.805
REMARK  8 active torsions:
REMARK  status: ('A' for Active; 'I' for Inactive)
REMARK    1  A    between atoms: N1_2  and  C2_4 
REMARK    2  A    between atoms: C4_6  and  C5_7 
REMARK    3  A    between atoms: C5_7  and  C6_8 
REMARK       I    between atoms: C6_8  and  N2_10 
REMARK    4  A    between atoms: N2_10  and  C7_12 
REMARK    5  A    between atoms: C10_15  and  C11_16 
REMARK    6  A    between atoms: C15_26  and  N6_27 
REMARK    7  A    between atoms: N6_27  and  C16_28 
REMARK    8  A    between atoms: C16_28  and  C17_29 
ROOT
HETATM    1  C7  UNL     1      49.572 -37.523  46.361  1.00  0.00     0.034 A 
HETATM    2  C8  UNL     1      48.789 -38.539  45.907  1.00  0.00     0.030 A 
HETATM    3  C9  UNL     1      48.587 -39.697  46.675  1.00  0.00     0.014 A 
HETATM    4  C10 UNL     1      49.183 -39.814  47.904  1.00  0.00    -0.023 A 
HETATM    5  C23 UNL     1      49.956 -38.790  48.357  1.00  0.00     0.014 A 
HETATM    6  C24 UNL     1      50.164 -37.659  47.623  1.00  0.00     0.030 A 
ENDROOT
BRANCH   4   7
HETATM    7  C11 UNL     1      49.152 -41.086  48.578  1.00  0.00     0.008 A 
HETATM    8  C12 UNL     1      49.686 -42.220  47.903  1.00  0.00     0.103 A 
HETATM    9  N3  UNL     1      49.615 -43.248  48.739  1.00  0.00    -0.351 N 
HETATM   10  C13 UNL     1      49.071 -42.839  49.894  1.00  0.00     0.122 A 
ATOM     11  H3  UNL     1      49.925 -44.197  48.535  1.00  0.00     0.166 HD
HETATM   12  N4  UNL     1      48.820 -43.545  50.980  1.00  0.00    -0.338 N 
HETATM   13  C22 UNL     1      48.764 -41.466  49.817  1.00  0.00     0.079 A 
HETATM   14  C14 UNL     1      48.260 -42.917  52.026  1.00  0.00     0.184 A 
ATOM     15  H4  UNL     1      49.045 -44.540  51.024  1.00  0.00     0.168 HD
HETATM   16  N5  UNL     1      47.953 -41.613  51.993  1.00  0.00    -0.327 N 
HETATM   17  C15 UNL     1      48.182 -40.809  50.895  1.00  0.00     0.194 A 
ATOM     18  H5  UNL     1      47.528 -41.195  52.821  1.00  0.00     0.169 HD
BRANCH  17  19
HETATM   19  N6  UNL     1      47.871 -39.673  50.901  1.00  0.00    -0.398 NA
BRANCH  19  20
HETATM   20  C16 UNL     1      47.476 -38.385  50.892  1.00  0.00     0.196 C 
BRANCH  20  21
HETATM   21  C17 UNL     1      48.286 -37.371  51.638  1.00  0.00    -0.005 A 
HETATM   22  C18 UNL     1      47.798 -36.198  52.111  1.00  0.00     0.031 A 
HETATM   23  C19 UNL     1      48.601 -35.322  52.797  1.00  0.00     0.088 A 
HETATM   24  N7  UNL     1      49.910 -35.611  53.020  1.00  0.00    -0.375 N 
HETATM   25  C20 UNL     1      50.385 -36.761  52.554  1.00  0.00     0.088 A 
ATOM     26  H7  UNL     1      50.511 -34.963  53.530  1.00  0.00     0.164 HD
HETATM   27  C21 UNL     1      49.612 -37.685  51.854  1.00  0.00     0.031 A 
ENDBRANCH  20  21
ENDBRANCH  19  20
ENDBRANCH  17  19
ENDBRANCH   4   7
BRANCH   1  28
HETATM   28  N2  UNL     1      49.974 -36.371  45.617  1.00  0.00    -0.327 N 
HETATM   29  C6  UNL     1      49.302 -35.159  45.698  1.00  0.00     0.226 C 
HETATM   30  O1  UNL     1      48.284 -35.028  46.484  1.00  0.00    -0.273 OA
ATOM     31  H2  UNL     1      50.785 -36.443  45.002  1.00  0.00     0.169 HD
BRANCH  29  32
HETATM   32  C5  UNL     1      49.647 -33.964  44.943  1.00  0.00     0.141 C 
BRANCH  32  33
HETATM   33  C4  UNL     1      50.843 -33.267  45.413  1.00  0.00    -0.045 A 
HETATM   34  C3  UNL     1      51.953 -33.151  44.557  1.00  0.00     0.055 A 
HETATM   35  C2  UNL     1      53.105 -32.497  44.968  1.00  0.00     0.100 A 
HETATM   36  N8  UNL     1      53.177 -31.972  46.186  1.00  0.00    -0.353 N 
HETATM   37  C26 UNL     1      52.130 -32.079  47.010  1.00  0.00     0.090 A 
ATOM     38  H8  UNL     1      54.023 -31.491  46.490  1.00  0.00     0.166 HD
HETATM   39  C25 UNL     1      50.946 -32.718  46.651  1.00  0.00     0.024 A 
BRANCH  35  40
HETATM   40  N1  UNL     1      54.083 -32.414  44.137  1.00  0.00    -0.381 N 
HETATM   41  C1  UNL     1      55.096 -31.403  44.165  1.00  0.00     0.147 C 
ATOM     42  H1  UNL     1      54.141 -33.120  43.403  1.00  0.00     0.160 HD
ENDBRANCH  35  40
ENDBRANCH  32  33
ENDBRANCH  29  32
ENDBRANCH   1  28
TORSDOF 8
ENDMDL
