MODEL 1
REMARK VINA RESULT: -8.433958742      0.000      0.000
REMARK  9 active torsions:
REMARK  status: ('A' for Active; 'I' for Inactive)
REMARK    1  A    between atoms: N2_3  and  S1_5 
REMARK    2  A    between atoms: S1_5  and  N3_6 
REMARK    3  A    between atoms: S1_5  and  C2_10 
REMARK    4  A    between atoms: C5_13  and  N4_14 
REMARK    5  A    between atoms: N4_14  and  C6_16 
REMARK    6  A    between atoms: C9_21  and  N6_22 
REMARK    7  A    between atoms: N6_22  and  C10_24 
REMARK    8  A    between atoms: C13_27  and  O2_28 
REMARK    9  A    between atoms: O2_28  and  C14_29 
ROOT
HETATM    1  N1  UNL     1      55.894 -43.663  42.143  1.00  0.00    -0.171 NA
HETATM    2  C1  UNL     1      55.341 -43.570  43.174  1.00  0.00     0.191 C 
HETATM    3  N2  UNL     1      54.701 -43.475  44.406  1.00  0.00    -0.234 N 
ATOM      4  H2  UNL     1      53.951 -42.793  44.513  1.00  0.00     0.190 HD
ENDROOT
BRANCH   3   5
HETATM    5  S1  UNL     1      55.119 -44.457  45.761  1.00  0.00     0.145 S 
HETATM    6  O1  UNL     1      55.921 -43.602  46.699  1.00  0.00    -0.223 OA
BRANCH   5   7
HETATM    7  N3  UNL     1      56.031 -45.595  45.263  1.00  0.00    -0.340 N 
ATOM      8  H32 UNL     1      55.709 -46.503  44.928  1.00  0.00     0.167 HD
ATOM      9  H31 UNL     1      56.998 -45.278  45.330  1.00  0.00     0.167 HD
ENDBRANCH   5   7
BRANCH   5  10
HETATM   10  C2  UNL     1      53.688 -45.093  46.548  1.00  0.00     0.059 A 
HETATM   11  C3  UNL     1      52.572 -45.463  45.819  1.00  0.00     0.026 A 
HETATM   12  C4  UNL     1      51.436 -45.966  46.419  1.00  0.00     0.031 A 
HETATM   13  C5  UNL     1      51.367 -46.122  47.789  1.00  0.00     0.049 A 
HETATM   14  C22 UNL     1      52.482 -45.754  48.514  1.00  0.00     0.031 A 
HETATM   15  C23 UNL     1      53.620 -45.250  47.918  1.00  0.00     0.026 A 
BRANCH  13  16
HETATM   16  N4  UNL     1      50.209 -46.639  48.431  1.00  0.00    -0.192 N 
ATOM     17  H4  UNL     1      49.952 -47.607  48.237  1.00  0.00     0.184 HD
BRANCH  16  18
HETATM   18  C6  UNL     1      49.473 -45.984  49.226  1.00  0.00     0.684 A 
HETATM   19  N5  UNL     1      49.215 -46.407  50.473  1.00  0.00    -0.202 N 
HETATM   20  C7  UNL     1      48.419 -45.673  51.290  1.00  0.00     0.110 A 
ATOM     21  H5  UNL     1      49.618 -47.282  50.807  1.00  0.00     0.183 HD
HETATM   22  C8  UNL     1      47.859 -44.480  50.865  1.00  0.00     0.066 A 
HETATM   23  C9  UNL     1      48.140 -44.069  49.585  1.00  0.00     0.122 A 
HETATM   24  N7  UNL     1      48.927 -44.827  48.819  1.00  0.00    -0.176 N 
ATOM     25  H7  UNL     1      49.126 -44.509  47.871  1.00  0.00     0.186 HD
BRANCH  23  26
HETATM   26  N6  UNL     1      47.627 -42.961  49.170  1.00  0.00    -0.342 N 
ATOM     27  H6  UNL     1      46.777 -42.990  48.607  1.00  0.00     0.167 HD
BRANCH  26  28
HETATM   28  C10 UNL     1      48.208 -41.710  49.474  1.00  0.00     0.033 A 
HETATM   29  C11 UNL     1      47.952 -41.093  50.703  1.00  0.00     0.032 A 
HETATM   30  C12 UNL     1      48.516 -39.873  51.006  1.00  0.00     0.039 A 
HETATM   31  C13 UNL     1      49.335 -39.231  50.125  1.00  0.00     0.076 A 
HETATM   32  C20 UNL     1      49.605 -39.814  48.906  1.00  0.00     0.039 A 
HETATM   33  C21 UNL     1      49.044 -41.023  48.611  1.00  0.00     0.032 A 
BRANCH  31  34
HETATM   34  O2  UNL     1      49.902 -37.987  50.448  1.00  0.00    -0.311 OA
BRANCH  34  35
HETATM   35  C14 UNL     1      49.043 -37.098  51.103  1.00  0.00     0.076 A 
HETATM   36  C15 UNL     1      47.889 -36.666  50.503  1.00  0.00     0.037 A 
HETATM   37  C16 UNL     1      47.075 -35.783  51.201  1.00  0.00     0.003 A 
HETATM   38  C17 UNL     1      47.407 -35.346  52.465  1.00  0.00     0.000 A 
HETATM   39  C18 UNL     1      48.581 -35.810  53.030  1.00  0.00     0.003 A 
HETATM   40  C19 UNL     1      49.418 -36.689  52.368  1.00  0.00     0.037 A 
ENDBRANCH  34  35
ENDBRANCH  31  34
ENDBRANCH  26  28
ENDBRANCH  23  26
ENDBRANCH  16  18
ENDBRANCH  13  16
ENDBRANCH   5  10
ENDBRANCH   3   5
TORSDOF 9
ENDMDL
MODEL 2
REMARK VINA RESULT: -8.353125858      3.667      5.863
REMARK  9 active torsions:
REMARK  status: ('A' for Active; 'I' for Inactive)
REMARK    1  A    between atoms: N2_3  and  S1_5 
REMARK    2  A    between atoms: S1_5  and  N3_6 
REMARK    3  A    between atoms: S1_5  and  C2_10 
REMARK    4  A    between atoms: C5_13  and  N4_14 
REMARK    5  A    between atoms: N4_14  and  C6_16 
REMARK    6  A    between atoms: C9_21  and  N6_22 
REMARK    7  A    between atoms: N6_22  and  C10_24 
REMARK    8  A    between atoms: C13_27  and  O2_28 
REMARK    9  A    between atoms: O2_28  and  C14_29 
ROOT
HETATM    1  N1  UNL     1      47.814 -42.978  52.020  1.00  0.00    -0.171 NA
HETATM    2  C1  UNL     1      47.782 -44.104  52.348  1.00  0.00     0.191 C 
HETATM    3  N2  UNL     1      47.757 -45.446  52.718  1.00  0.00    -0.234 N 
ATOM      4  H2  UNL     1      47.358 -45.693  53.623  1.00  0.00     0.190 HD
ENDROOT
BRANCH   3   5
HETATM    5  S1  UNL     1      48.369 -46.710  51.717  1.00  0.00     0.145 S 
HETATM    6  O1  UNL     1      47.311 -47.773  51.646  1.00  0.00    -0.223 OA
BRANCH   5   7
HETATM    7  N3  UNL     1      49.602 -47.317  52.415  1.00  0.00    -0.340 N 
ATOM      8  H32 UNL     1      49.758 -48.312  52.573  1.00  0.00     0.167 HD
ATOM      9  H31 UNL     1      50.221 -46.552  52.684  1.00  0.00     0.167 HD
ENDBRANCH   5   7
BRANCH   5  10
HETATM   10  C2  UNL     1      48.777 -46.113  50.120  1.00  0.00     0.059 A 
HETATM   11  C3  UNL     1      50.094 -45.950  49.730  1.00  0.00     0.026 A 
HETATM   12  C4  UNL     1      50.437 -45.482  48.478  1.00  0.00     0.031 A 
HETATM   13  C5  UNL     1      49.467 -45.153  47.554  1.00  0.00     0.049 A 
HETATM   14  C22 UNL     1      48.153 -45.317  47.944  1.00  0.00     0.031 A 
HETATM   15  C23 UNL     1      47.806 -45.784  49.196  1.00  0.00     0.026 A 
BRANCH  13  16
HETATM   16  N4  UNL     1      49.794 -44.669  46.257  1.00  0.00    -0.192 N 
ATOM     17  H4  UNL     1      50.442 -45.221  45.696  1.00  0.00     0.184 HD
BRANCH  16  18
HETATM   18  C6  UNL     1      49.338 -43.603  45.749  1.00  0.00     0.684 A 
HETATM   19  N5  UNL     1      48.357 -43.611  44.835  1.00  0.00    -0.202 N 
HETATM   20  C7  UNL     1      47.900 -42.444  44.317  1.00  0.00     0.110 A 
ATOM     21  H5  UNL     1      47.953 -44.496  44.528  1.00  0.00     0.183 HD
HETATM   22  C8  UNL     1      48.428 -41.226  44.714  1.00  0.00     0.066 A 
HETATM   23  C9  UNL     1      49.430 -41.247  45.652  1.00  0.00     0.122 A 
HETATM   24  N7  UNL     1      49.846 -42.421  46.131  1.00  0.00    -0.176 N 
ATOM     25  H7  UNL     1      50.591 -42.420  46.827  1.00  0.00     0.186 HD
BRANCH  23  26
HETATM   26  N6  UNL     1      49.935 -40.124  46.034  1.00  0.00    -0.342 N 
ATOM     27  H6  UNL     1      50.414 -39.538  45.350  1.00  0.00     0.167 HD
BRANCH  26  28
HETATM   28  C10 UNL     1      49.843 -39.681  47.372  1.00  0.00     0.033 A 
HETATM   29  C11 UNL     1      50.036 -38.332  47.685  1.00  0.00     0.032 A 
HETATM   30  C12 UNL     1      49.947 -37.892  48.987  1.00  0.00     0.039 A 
HETATM   31  C13 UNL     1      49.670 -38.753  50.008  1.00  0.00     0.076 A 
HETATM   32  C20 UNL     1      49.475 -40.088  49.733  1.00  0.00     0.039 A 
HETATM   33  C21 UNL     1      49.564 -40.518  48.439  1.00  0.00     0.032 A 
BRANCH  31  34
HETATM   34  O2  UNL     1      49.582 -38.291  51.332  1.00  0.00    -0.311 OA
BRANCH  34  35
HETATM   35  C14 UNL     1      48.630 -37.288  51.546  1.00  0.00     0.076 A 
HETATM   36  C15 UNL     1      47.369 -37.393  51.022  1.00  0.00     0.037 A 
HETATM   37  C16 UNL     1      46.466 -36.366  51.268  1.00  0.00     0.003 A 
HETATM   38  C17 UNL     1      46.817 -35.265  52.019  1.00  0.00     0.000 A 
HETATM   39  C18 UNL     1      48.102 -35.203  52.527  1.00  0.00     0.003 A 
HETATM   40  C19 UNL     1      49.029 -36.204  52.305  1.00  0.00     0.037 A 
ENDBRANCH  34  35
ENDBRANCH  31  34
ENDBRANCH  26  28
ENDBRANCH  23  26
ENDBRANCH  16  18
ENDBRANCH  13  16
ENDBRANCH   5  10
ENDBRANCH   3   5
TORSDOF 9
ENDMDL
MODEL 3
REMARK VINA RESULT: -8.236225794      7.008      9.296
REMARK  9 active torsions:
REMARK  status: ('A' for Active; 'I' for Inactive)
REMARK    1  A    between atoms: N2_3  and  S1_5 
REMARK    2  A    between atoms: S1_5  and  N3_6 
REMARK    3  A    between atoms: S1_5  and  C2_10 
REMARK    4  A    between atoms: C5_13  and  N4_14 
REMARK    5  A    between atoms: N4_14  and  C6_16 
REMARK    6  A    between atoms: C9_21  and  N6_22 
REMARK    7  A    between atoms: N6_22  and  C10_24 
REMARK    8  A    between atoms: C13_27  and  O2_28 
REMARK    9  A    between atoms: O2_28  and  C14_29 
ROOT
HETATM    1  N1  UNL     1      57.172 -31.209  47.042  1.00  0.00    -0.171 NA
HETATM    2  C1  UNL     1      56.059 -31.577  47.013  1.00  0.00     0.191 C 
HETATM    3  N2  UNL     1      54.735 -32.002  46.957  1.00  0.00    -0.234 N 
ATOM      4  H2  UNL     1      54.421 -32.705  47.627  1.00  0.00     0.190 HD
ENDROOT
BRANCH   3   5
HETATM    5  S1  UNL     1      53.599 -31.397  45.810  1.00  0.00     0.145 S 
HETATM    6  O1  UNL     1      54.351 -30.494  44.875  1.00  0.00    -0.223 OA
BRANCH   5   7
HETATM    7  N3  UNL     1      52.567 -30.538  46.567  1.00  0.00    -0.340 N 
ATOM      8  H32 UNL     1      52.160 -30.770  47.473  1.00  0.00     0.167 HD
ATOM      9  H31 UNL     1      52.370 -29.711  46.004  1.00  0.00     0.167 HD
ENDBRANCH   5   7
BRANCH   5  10
HETATM   10  C2  UNL     1      52.818 -32.703  44.941  1.00  0.00     0.059 A 
HETATM   11  C3  UNL     1      51.803 -33.444  45.519  1.00  0.00     0.026 A 
HETATM   12  C4  UNL     1      51.175 -34.476  44.853  1.00  0.00     0.031 A 
HETATM   13  C5  UNL     1      51.539 -34.813  43.565  1.00  0.00     0.049 A 
HETATM   14  C22 UNL     1      52.550 -34.072  42.989  1.00  0.00     0.031 A 
HETATM   15  C23 UNL     1      53.182 -33.040  43.652  1.00  0.00     0.026 A 
BRANCH  13  16
HETATM   16  N4  UNL     1      50.907 -35.872  42.856  1.00  0.00    -0.192 N 
ATOM     17  H4  UNL     1      51.168 -36.010  41.880  1.00  0.00     0.184 HD
BRANCH  16  18
HETATM   18  C6  UNL     1      50.044 -36.656  43.349  1.00  0.00     0.684 A 
HETATM   19  N5  UNL     1      48.743 -36.579  43.030  1.00  0.00    -0.202 N 
HETATM   20  C7  UNL     1      47.854 -37.439  43.584  1.00  0.00     0.110 A 
ATOM     21  H5  UNL     1      48.423 -35.872  42.368  1.00  0.00     0.183 HD
HETATM   22  C8  UNL     1      48.260 -38.411  44.484  1.00  0.00     0.066 A 
HETATM   23  C9  UNL     1      49.596 -38.469  44.793  1.00  0.00     0.122 A 
HETATM   24  N7  UNL     1      50.432 -37.599  44.222  1.00  0.00    -0.176 N 
ATOM     25  H7  UNL     1      51.422 -37.654  44.462  1.00  0.00     0.186 HD
BRANCH  23  26
HETATM   26  N6  UNL     1      49.994 -39.366  45.629  1.00  0.00    -0.342 N 
ATOM     27  H6  UNL     1      50.384 -40.238  45.271  1.00  0.00     0.167 HD
BRANCH  26  28
HETATM   28  C10 UNL     1      49.905 -39.176  47.026  1.00  0.00     0.033 A 
HETATM   29  C11 UNL     1      50.070 -37.902  47.577  1.00  0.00     0.032 A 
HETATM   30  C12 UNL     1      49.984 -37.709  48.938  1.00  0.00     0.039 A 
HETATM   31  C13 UNL     1      49.737 -38.747  49.788  1.00  0.00     0.076 A 
HETATM   32  C20 UNL     1      49.570 -40.015  49.275  1.00  0.00     0.039 A 
HETATM   33  C21 UNL     1      49.656 -40.199  47.924  1.00  0.00     0.032 A 
BRANCH  31  34
HETATM   34  O2  UNL     1      49.652 -38.535  51.174  1.00  0.00    -0.311 OA
BRANCH  34  35
HETATM   35  C14 UNL     1      48.871 -37.440  51.558  1.00  0.00     0.076 A 
HETATM   36  C15 UNL     1      49.402 -36.430  52.317  1.00  0.00     0.037 A 
HETATM   37  C16 UNL     1      48.578 -35.368  52.668  1.00  0.00     0.003 A 
HETATM   38  C17 UNL     1      47.260 -35.318  52.269  1.00  0.00     0.000 A 
HETATM   39  C18 UNL     1      46.769 -36.361  51.503  1.00  0.00     0.003 A 
HETATM   40  C19 UNL     1      47.556 -37.435  51.133  1.00  0.00     0.037 A 
ENDBRANCH  34  35
ENDBRANCH  31  34
ENDBRANCH  26  28
ENDBRANCH  23  26
ENDBRANCH  16  18
ENDBRANCH  13  16
ENDBRANCH   5  10
ENDBRANCH   3   5
TORSDOF 9
ENDMDL
MODEL 4
REMARK VINA RESULT: -8.103503018      3.473      6.244
REMARK  9 active torsions:
REMARK  status: ('A' for Active; 'I' for Inactive)
REMARK    1  A    between atoms: N2_3  and  S1_5 
REMARK    2  A    between atoms: S1_5  and  N3_6 
REMARK    3  A    between atoms: S1_5  and  C2_10 
REMARK    4  A    between atoms: C5_13  and  N4_14 
REMARK    5  A    between atoms: N4_14  and  C6_16 
REMARK    6  A    between atoms: C9_21  and  N6_22 
REMARK    7  A    between atoms: N6_22  and  C10_24 
REMARK    8  A    between atoms: C13_27  and  O2_28 
REMARK    9  A    between atoms: O2_28  and  C14_29 
ROOT
HETATM    1  N1  UNL     1      47.813 -40.864  51.548  1.00  0.00    -0.171 NA
HETATM    2  C1  UNL     1      48.146 -41.980  51.685  1.00  0.00     0.191 C 
HETATM    3  N2  UNL     1      48.530 -43.311  51.826  1.00  0.00    -0.234 N 
ATOM      4  H2  UNL     1      49.166 -43.555  52.585  1.00  0.00     0.190 HD
ENDROOT
BRANCH   3   5
HETATM    5  S1  UNL     1      47.982 -44.565  50.778  1.00  0.00     0.145 S 
HETATM    6  O1  UNL     1      46.496 -44.677  50.958  1.00  0.00    -0.223 OA
BRANCH   5   7
HETATM    7  N3  UNL     1      48.616 -45.890  51.247  1.00  0.00    -0.340 N 
ATOM      8  H32 UNL     1      49.408 -45.970  51.884  1.00  0.00     0.167 HD
ATOM      9  H31 UNL     1      48.105 -46.657  50.810  1.00  0.00     0.167 HD
ENDBRANCH   5   7
BRANCH   5  10
HETATM   10  C2  UNL     1      48.396 -44.223  49.109  1.00  0.00     0.059 A 
HETATM   11  C3  UNL     1      49.712 -44.067  48.714  1.00  0.00     0.026 A 
HETATM   12  C4  UNL     1      50.060 -43.798  47.406  1.00  0.00     0.031 A 
HETATM   13  C5  UNL     1      49.095 -43.673  46.427  1.00  0.00     0.049 A 
HETATM   14  C22 UNL     1      47.782 -43.830  46.823  1.00  0.00     0.031 A 
HETATM   15  C23 UNL     1      47.430 -44.099  48.130  1.00  0.00     0.026 A 
BRANCH  13  16
HETATM   16  N4  UNL     1      49.426 -43.396  45.073  1.00  0.00    -0.192 N 
ATOM     17  H4  UNL     1      49.236 -44.122  44.381  1.00  0.00     0.184 HD
BRANCH  16  18
HETATM   18  C6  UNL     1      49.941 -42.315  44.662  1.00  0.00     0.684 A 
HETATM   19  N5  UNL     1      50.833 -42.283  43.661  1.00  0.00    -0.202 N 
HETATM   20  C7  UNL     1      51.359 -41.101  43.255  1.00  0.00     0.110 A 
ATOM     21  H5  UNL     1      51.117 -43.150  43.205  1.00  0.00     0.183 HD
HETATM   22  C8  UNL     1      50.992 -39.908  43.856  1.00  0.00     0.066 A 
HETATM   23  C9  UNL     1      50.077 -39.968  44.877  1.00  0.00     0.122 A 
HETATM   24  N7  UNL     1      49.589 -41.156  45.241  1.00  0.00    -0.176 N 
ATOM     25  H7  UNL     1      48.910 -41.185  46.001  1.00  0.00     0.186 HD
BRANCH  23  26
HETATM   26  N6  UNL     1      49.723 -38.868  45.449  1.00  0.00    -0.342 N 
ATOM     27  H6  UNL     1      49.400 -38.092  44.872  1.00  0.00     0.167 HD
BRANCH  26  28
HETATM   28  C10 UNL     1      49.769 -38.708  46.851  1.00  0.00     0.033 A 
HETATM   29  C11 UNL     1      49.752 -37.429  47.417  1.00  0.00     0.032 A 
HETATM   30  C12 UNL     1      49.796 -37.265  48.784  1.00  0.00     0.039 A 
HETATM   31  C13 UNL     1      49.857 -38.337  49.625  1.00  0.00     0.076 A 
HETATM   32  C20 UNL     1      49.876 -39.609  49.098  1.00  0.00     0.039 A 
HETATM   33  C21 UNL     1      49.831 -39.765  47.742  1.00  0.00     0.032 A 
BRANCH  31  34
HETATM   34  O2  UNL     1      49.902 -38.154  51.017  1.00  0.00    -0.311 OA
BRANCH  34  35
HETATM   35  C14 UNL     1      49.017 -37.191  51.516  1.00  0.00     0.076 A 
HETATM   36  C15 UNL     1      49.449 -36.221  52.381  1.00  0.00     0.037 A 
HETATM   37  C16 UNL     1      48.524 -35.292  52.843  1.00  0.00     0.003 A 
HETATM   38  C17 UNL     1      47.205 -35.334  52.448  1.00  0.00     0.000 A 
HETATM   39  C18 UNL     1      46.816 -36.332  51.573  1.00  0.00     0.003 A 
HETATM   40  C19 UNL     1      47.704 -37.274  51.091  1.00  0.00     0.037 A 
ENDBRANCH  34  35
ENDBRANCH  31  34
ENDBRANCH  26  28
ENDBRANCH  23  26
ENDBRANCH  16  18
ENDBRANCH  13  16
ENDBRANCH   5  10
ENDBRANCH   3   5
TORSDOF 9
ENDMDL
MODEL 5
REMARK VINA RESULT: -8.000702030      6.647      9.110
REMARK  9 active torsions:
REMARK  status: ('A' for Active; 'I' for Inactive)
REMARK    1  A    between atoms: N2_3  and  S1_5 
REMARK    2  A    between atoms: S1_5  and  N3_6 
REMARK    3  A    between atoms: S1_5  and  C2_10 
REMARK    4  A    between atoms: C5_13  and  N4_14 
REMARK    5  A    between atoms: N4_14  and  C6_16 
REMARK    6  A    between atoms: C9_21  and  N6_22 
REMARK    7  A    between atoms: N6_22  and  C10_24 
REMARK    8  A    between atoms: C13_27  and  O2_28 
REMARK    9  A    between atoms: O2_28  and  C14_29 
ROOT
HETATM    1  N1  UNL     1      50.711 -29.217  45.824  1.00  0.00    -0.171 NA
HETATM    2  C1  UNL     1      51.702 -29.708  46.215  1.00  0.00     0.191 C 
HETATM    3  N2  UNL     1      52.879 -30.304  46.660  1.00  0.00    -0.234 N 
ATOM      4  H2  UNL     1      53.348 -29.906  47.474  1.00  0.00     0.190 HD
ENDROOT
BRANCH   3   5
HETATM    5  S1  UNL     1      53.581 -31.682  45.899  1.00  0.00     0.145 S 
HETATM    6  O1  UNL     1      54.655 -32.196  46.814  1.00  0.00    -0.223 OA
BRANCH   5   7
HETATM    7  N3  UNL     1      54.257 -31.215  44.594  1.00  0.00    -0.340 N 
ATOM      8  H32 UNL     1      54.284 -30.253  44.257  1.00  0.00     0.167 HD
ATOM      9  H31 UNL     1      54.662 -32.032  44.138  1.00  0.00     0.167 HD
ENDBRANCH   5   7
BRANCH   5  10
HETATM   10  C2  UNL     1      52.376 -32.914  45.580  1.00  0.00     0.059 A 
HETATM   11  C3  UNL     1      51.436 -33.262  46.533  1.00  0.00     0.026 A 
HETATM   12  C4  UNL     1      50.478 -34.228  46.303  1.00  0.00     0.031 A 
HETATM   13  C5  UNL     1      50.420 -34.894  45.096  1.00  0.00     0.049 A 
HETATM   14  C22 UNL     1      51.358 -34.546  44.145  1.00  0.00     0.031 A 
HETATM   15  C23 UNL     1      52.317 -33.580  44.372  1.00  0.00     0.026 A 
BRANCH  13  16
HETATM   16  N4  UNL     1      49.443 -35.894  44.833  1.00  0.00    -0.192 N 
ATOM     17  H4  UNL     1      48.462 -35.616  44.861  1.00  0.00     0.184 HD
BRANCH  16  18
HETATM   18  C6  UNL     1      49.703 -37.104  44.567  1.00  0.00     0.684 A 
HETATM   19  N5  UNL     1      49.880 -37.536  43.310  1.00  0.00    -0.202 N 
HETATM   20  C7  UNL     1      50.156 -38.843  43.072  1.00  0.00     0.110 A 
ATOM     21  H5  UNL     1      49.808 -36.882  42.531  1.00  0.00     0.183 HD
HETATM   22  C8  UNL     1      50.261 -39.755  44.109  1.00  0.00     0.066 A 
HETATM   23  C9  UNL     1      50.076 -39.286  45.386  1.00  0.00     0.122 A 
HETATM   24  N7  UNL     1      49.806 -37.992  45.568  1.00  0.00    -0.176 N 
ATOM     25  H7  UNL     1      49.670 -37.658  46.523  1.00  0.00     0.186 HD
BRANCH  23  26
HETATM   26  N6  UNL     1      50.169 -40.120  46.365  1.00  0.00    -0.342 N 
ATOM     27  H6  UNL     1      50.624 -41.019  46.207  1.00  0.00     0.167 HD
BRANCH  26  28
HETATM   28  C10 UNL     1      49.660 -39.824  47.649  1.00  0.00     0.033 A 
HETATM   29  C11 UNL     1      48.451 -40.382  48.075  1.00  0.00     0.032 A 
HETATM   30  C12 UNL     1      47.948 -40.098  49.326  1.00  0.00     0.039 A 
HETATM   31  C13 UNL     1      48.610 -39.270  50.184  1.00  0.00     0.076 A 
HETATM   32  C20 UNL     1      49.803 -38.705  49.793  1.00  0.00     0.039 A 
HETATM   33  C21 UNL     1      50.296 -38.990  48.552  1.00  0.00     0.032 A 
BRANCH  31  34
HETATM   34  O2  UNL     1      48.085 -38.990  51.457  1.00  0.00    -0.311 OA
BRANCH  34  35
HETATM   35  C14 UNL     1      47.839 -37.636  51.710  1.00  0.00     0.076 A 
HETATM   36  C15 UNL     1      46.770 -36.997  51.139  1.00  0.00     0.037 A 
HETATM   37  C16 UNL     1      46.576 -35.652  51.427  1.00  0.00     0.003 A 
HETATM   38  C17 UNL     1      47.428 -34.966  52.264  1.00  0.00     0.000 A 
HETATM   39  C18 UNL     1      48.495 -35.653  52.817  1.00  0.00     0.003 A 
HETATM   40  C19 UNL     1      48.722 -36.991  52.556  1.00  0.00     0.037 A 
ENDBRANCH  34  35
ENDBRANCH  31  34
ENDBRANCH  26  28
ENDBRANCH  23  26
ENDBRANCH  16  18
ENDBRANCH  13  16
ENDBRANCH   5  10
ENDBRANCH   3   5
TORSDOF 9
ENDMDL
