MODEL 1
REMARK VINA RESULT: -8.264949948      0.000      0.000
REMARK  10 active torsions:
REMARK  status: ('A' for Active; 'I' for Inactive)
REMARK    1  A    between atoms: C5_5  and  N1_6 
REMARK    2  A    between atoms: N1_6  and  C6_7 
REMARK    3  A    between atoms: C7_10  and  N3_11 
REMARK    4  A    between atoms: N3_11  and  C8_13 
REMARK    5  A    between atoms: C8_13  and  C9_14 
REMARK    6  A    between atoms: C9_14  and  O1_15 
REMARK    7  A    between atoms: C10_19  and  N5_20 
REMARK    8  A    between atoms: N5_20  and  C11_22 
REMARK    9  A    between atoms: C11_22  and  C12_23 
REMARK   10  A    between atoms: C15_26  and  C16_27 
ROOT
HETATM    1  C6  UNL     1      49.155 -40.621  49.559  1.00  0.00     0.288 A 
HETATM    2  N2  UNL     1      49.093 -41.823  50.190  1.00  0.00    -0.148 N 
ATOM      3  H2  UNL     1      48.916 -41.847  51.195  1.00  0.00     0.188 HD
HETATM    4  C7  UNL     1      49.263 -43.005  49.516  1.00  0.00     0.696 A 
HETATM    5  N4  UNL     1      49.494 -42.989  48.217  1.00  0.00    -0.022 N 
ATOM      6  H4  UNL     1      49.620 -43.869  47.718  1.00  0.00     0.203 HD
HETATM    7  C10 UNL     1      49.566 -41.820  47.538  1.00  0.00     0.700 A 
HETATM    8  N7  UNL     1      49.398 -40.677  48.208  1.00  0.00    -0.148 N 
ATOM      9  H7  UNL     1      49.453 -39.801  47.689  1.00  0.00     0.188 HD
ENDROOT
BRANCH   7  10
HETATM   10  N5  UNL     1      49.786 -41.813  46.306  1.00  0.00    -0.200 N 
ATOM     11  H5  UNL     1      50.753 -42.049  46.084  1.00  0.00     0.183 HD
BRANCH  10  12
HETATM   12  C11 UNL     1      49.023 -41.559  45.153  1.00  0.00     0.117 C 
BRANCH  12  13
HETATM   13  C12 UNL     1      48.979 -40.087  44.969  1.00  0.00    -0.020 A 
HETATM   14  C13 UNL     1      47.823 -39.412  45.294  1.00  0.00     0.013 A 
HETATM   15  C14 UNL     1      47.765 -38.026  45.150  1.00  0.00     0.013 A 
HETATM   16  C15 UNL     1      48.866 -37.343  44.684  1.00  0.00    -0.024 A 
HETATM   17  C22 UNL     1      50.021 -38.024  44.360  1.00  0.00     0.013 A 
HETATM   18  C23 UNL     1      50.077 -39.420  44.505  1.00  0.00     0.013 A 
BRANCH  16  19
HETATM   19  C16 UNL     1      48.778 -35.893  44.551  1.00  0.00    -0.002 A 
HETATM   20  C17 UNL     1      48.254 -35.269  43.427  1.00  0.00     0.031 A 
HETATM   21  C18 UNL     1      48.358 -33.920  43.698  1.00  0.00     0.091 A 
HETATM   22  N6  UNL     1      48.906 -33.763  44.902  1.00  0.00    -0.364 N 
HETATM   23  C19 UNL     1      49.211 -32.515  45.602  1.00  0.00     0.155 C 
HETATM   24  C20 UNL     1      49.187 -34.965  45.477  1.00  0.00     0.018 A 
HETATM   25  C21 UNL     1      49.795 -35.234  46.797  1.00  0.00     0.069 C 
ENDBRANCH  16  19
ENDBRANCH  12  13
ENDBRANCH  10  12
ENDBRANCH   7  10
BRANCH   4  26
HETATM   26  N3  UNL     1      49.171 -44.063  50.245  1.00  0.00    -0.223 N 
ATOM     27  H3  UNL     1      50.012 -44.610  50.428  1.00  0.00     0.177 HD
BRANCH  26  28
HETATM   28  C8  UNL     1      47.930 -44.492  50.803  1.00  0.00     0.164 C 
BRANCH  28  29
HETATM   29  C9  UNL     1      47.932 -44.290  52.323  1.00  0.00     0.184 C 
BRANCH  29  30
HETATM   30  O1  UNL     1      47.897 -42.962  52.685  1.00  0.00    -0.399 OA
ATOM     31  H1  UNL     1      47.028 -42.584  52.617  1.00  0.00     0.209 HD
ENDBRANCH  29  30
ENDBRANCH  28  29
ENDBRANCH  26  28
ENDBRANCH   4  26
BRANCH   1  32
HETATM   32  N1  UNL     1      49.004 -39.608  50.160  1.00  0.00    -0.370 NA
BRANCH  32  33
HETATM   33  C5  UNL     1      48.806 -38.497  50.813  1.00  0.00     0.111 A 
HETATM   34  C4  UNL     1      49.847 -37.958  51.594  1.00  0.00     0.045 A 
HETATM   35  C3  UNL     1      49.743 -36.827  52.319  1.00  0.00     0.010 A 
HETATM   36  C2  UNL     1      48.555 -36.139  52.310  1.00  0.00    -0.056 A 
HETATM   37  C1  UNL     1      48.407 -34.889  53.106  1.00  0.00     0.049 C 
HETATM   38  C25 UNL     1      47.470 -36.597  51.564  1.00  0.00    -0.053 A 
HETATM   39  C24 UNL     1      47.616 -37.747  50.844  1.00  0.00     0.052 A 
HETATM   40  C26 UNL     1      46.215 -35.802  51.603  1.00  0.00     0.049 C 
ENDBRANCH  32  33
ENDBRANCH   1  32
TORSDOF 10
ENDMDL
MODEL 2
REMARK VINA RESULT: -8.133326243      0.541      1.228
REMARK  10 active torsions:
REMARK  status: ('A' for Active; 'I' for Inactive)
REMARK    1  A    between atoms: C5_5  and  N1_6 
REMARK    2  A    between atoms: N1_6  and  C6_7 
REMARK    3  A    between atoms: C7_10  and  N3_11 
REMARK    4  A    between atoms: N3_11  and  C8_13 
REMARK    5  A    between atoms: C8_13  and  C9_14 
REMARK    6  A    between atoms: C9_14  and  O1_15 
REMARK    7  A    between atoms: C10_19  and  N5_20 
REMARK    8  A    between atoms: N5_20  and  C11_22 
REMARK    9  A    between atoms: C11_22  and  C12_23 
REMARK   10  A    between atoms: C15_26  and  C16_27 
ROOT
HETATM    1  C6  UNL     1      49.128 -40.558  49.535  1.00  0.00     0.288 A 
HETATM    2  N2  UNL     1      49.010 -41.773  50.133  1.00  0.00    -0.148 N 
ATOM      3  H2  UNL     1      48.785 -41.816  51.127  1.00  0.00     0.188 HD
HETATM    4  C7  UNL     1      49.187 -42.942  49.439  1.00  0.00     0.696 A 
HETATM    5  N4  UNL     1      49.480 -42.901  48.154  1.00  0.00    -0.022 N 
ATOM      6  H4  UNL     1      49.611 -43.771  47.639  1.00  0.00     0.203 HD
HETATM    7  C10 UNL     1      49.610 -41.718  47.507  1.00  0.00     0.700 A 
HETATM    8  N7  UNL     1      49.434 -40.588  48.196  1.00  0.00    -0.148 N 
ATOM      9  H7  UNL     1      49.533 -39.701  47.703  1.00  0.00     0.188 HD
ENDROOT
BRANCH   7  10
HETATM   10  N5  UNL     1      49.889 -41.687  46.287  1.00  0.00    -0.200 N 
ATOM     11  H5  UNL     1      50.880 -41.853  46.113  1.00  0.00     0.183 HD
BRANCH  10  12
HETATM   12  C11 UNL     1      49.167 -41.480  45.100  1.00  0.00     0.117 C 
BRANCH  12  13
HETATM   13  C12 UNL     1      49.010 -40.013  44.930  1.00  0.00    -0.020 A 
HETATM   14  C13 UNL     1      47.778 -39.446  45.171  1.00  0.00     0.013 A 
HETATM   15  C14 UNL     1      47.611 -38.068  45.038  1.00  0.00     0.013 A 
HETATM   16  C15 UNL     1      48.681 -37.284  44.669  1.00  0.00    -0.024 A 
HETATM   17  C22 UNL     1      49.912 -37.858  44.428  1.00  0.00     0.013 A 
HETATM   18  C23 UNL     1      50.078 -39.247  44.561  1.00  0.00     0.013 A 
BRANCH  16  19
HETATM   19  C16 UNL     1      48.478 -35.846  44.546  1.00  0.00    -0.002 A 
HETATM   20  C17 UNL     1      48.611 -34.971  45.616  1.00  0.00     0.031 A 
HETATM   21  C18 UNL     1      48.334 -33.728  45.084  1.00  0.00     0.091 A 
HETATM   22  N6  UNL     1      48.058 -33.864  43.788  1.00  0.00    -0.364 N 
HETATM   23  C19 UNL     1      47.706 -32.823  42.823  1.00  0.00     0.155 C 
HETATM   24  C20 UNL     1      48.135 -35.167  43.402  1.00  0.00     0.018 A 
HETATM   25  C21 UNL     1      47.904 -35.746  42.061  1.00  0.00     0.069 C 
ENDBRANCH  16  19
ENDBRANCH  12  13
ENDBRANCH  10  12
ENDBRANCH   7  10
BRANCH   4  26
HETATM   26  N3  UNL     1      49.037 -44.014  50.137  1.00  0.00    -0.223 N 
ATOM     27  H3  UNL     1      49.824 -44.657  50.228  1.00  0.00     0.177 HD
BRANCH  26  28
HETATM   28  C8  UNL     1      47.806 -44.330  50.785  1.00  0.00     0.164 C 
BRANCH  28  29
HETATM   29  C9  UNL     1      47.949 -44.173  52.303  1.00  0.00     0.184 C 
BRANCH  29  30
HETATM   30  O1  UNL     1      47.910 -42.859  52.710  1.00  0.00    -0.399 OA
ATOM     31  H1  UNL     1      47.080 -42.619  53.106  1.00  0.00     0.209 HD
ENDBRANCH  29  30
ENDBRANCH  28  29
ENDBRANCH  26  28
ENDBRANCH   4  26
BRANCH   1  32
HETATM   32  N1  UNL     1      48.969 -39.556  50.153  1.00  0.00    -0.370 NA
BRANCH  32  33
HETATM   33  C5  UNL     1      48.771 -38.448  50.813  1.00  0.00     0.111 A 
HETATM   34  C4  UNL     1      49.812 -37.912  51.594  1.00  0.00     0.045 A 
HETATM   35  C3  UNL     1      49.707 -36.785  52.326  1.00  0.00     0.010 A 
HETATM   36  C2  UNL     1      48.518 -36.099  52.322  1.00  0.00    -0.056 A 
HETATM   37  C1  UNL     1      48.369 -34.853  53.125  1.00  0.00     0.049 C 
HETATM   38  C25 UNL     1      47.432 -36.556  51.576  1.00  0.00    -0.053 A 
HETATM   39  C24 UNL     1      47.579 -37.702  50.850  1.00  0.00     0.052 A 
HETATM   40  C26 UNL     1      46.176 -35.763  51.621  1.00  0.00     0.049 C 
ENDBRANCH  32  33
ENDBRANCH   1  32
TORSDOF 10
ENDMDL
MODEL 3
REMARK VINA RESULT: -8.041670697      1.376      1.457
REMARK  10 active torsions:
REMARK  status: ('A' for Active; 'I' for Inactive)
REMARK    1  A    between atoms: C5_5  and  N1_6 
REMARK    2  A    between atoms: N1_6  and  C6_7 
REMARK    3  A    between atoms: C7_10  and  N3_11 
REMARK    4  A    between atoms: N3_11  and  C8_13 
REMARK    5  A    between atoms: C8_13  and  C9_14 
REMARK    6  A    between atoms: C9_14  and  O1_15 
REMARK    7  A    between atoms: C10_19  and  N5_20 
REMARK    8  A    between atoms: N5_20  and  C11_22 
REMARK    9  A    between atoms: C11_22  and  C12_23 
REMARK   10  A    between atoms: C15_26  and  C16_27 
ROOT
HETATM    1  C6  UNL     1      48.005 -40.625  49.983  1.00  0.00     0.288 A 
HETATM    2  N2  UNL     1      48.437 -41.736  50.637  1.00  0.00    -0.148 N 
ATOM      3  H2  UNL     1      48.846 -41.637  51.566  1.00  0.00     0.188 HD
HETATM    4  C7  UNL     1      48.340 -42.986  50.082  1.00  0.00     0.696 A 
HETATM    5  N4  UNL     1      47.815 -43.129  48.881  1.00  0.00    -0.022 N 
ATOM      6  H4  UNL     1      47.744 -44.060  48.470  1.00  0.00     0.203 HD
HETATM    7  C10 UNL     1      47.369 -42.057  48.185  1.00  0.00     0.700 A 
HETATM    8  N7  UNL     1      47.469 -40.846  48.738  1.00  0.00    -0.148 N 
ATOM      9  H7  UNL     1      47.130 -40.043  48.208  1.00  0.00     0.188 HD
ENDROOT
BRANCH   7  10
HETATM   10  N5  UNL     1      46.872 -42.201  47.045  1.00  0.00    -0.200 N 
ATOM     11  H5  UNL     1      45.888 -42.466  47.083  1.00  0.00     0.183 HD
BRANCH  10  12
HETATM   12  C11 UNL     1      47.340 -42.085  45.725  1.00  0.00     0.117 C 
BRANCH  12  13
HETATM   13  C12 UNL     1      47.937 -40.732  45.587  1.00  0.00    -0.020 A 
HETATM   14  C13 UNL     1      47.103 -39.661  45.350  1.00  0.00     0.013 A 
HETATM   15  C14 UNL     1      47.637 -38.378  45.238  1.00  0.00     0.013 A 
HETATM   16  C15 UNL     1      48.996 -38.191  45.366  1.00  0.00    -0.024 A 
HETATM   17  C22 UNL     1      49.825 -39.267  45.602  1.00  0.00     0.013 A 
HETATM   18  C23 UNL     1      49.285 -40.559  45.714  1.00  0.00     0.013 A 
BRANCH  16  19
HETATM   19  C16 UNL     1      49.524 -36.837  45.251  1.00  0.00    -0.002 A 
HETATM   20  C17 UNL     1      50.014 -36.317  44.060  1.00  0.00     0.031 A 
HETATM   21  C18 UNL     1      50.413 -35.035  44.380  1.00  0.00     0.091 A 
HETATM   22  N6  UNL     1      50.173 -34.818  45.671  1.00  0.00    -0.364 N 
HETATM   23  C19 UNL     1      50.435 -33.607  46.449  1.00  0.00     0.155 C 
HETATM   24  C20 UNL     1      49.618 -35.912  46.261  1.00  0.00     0.018 A 
HETATM   25  C21 UNL     1      49.202 -36.088  47.669  1.00  0.00     0.069 C 
ENDBRANCH  16  19
ENDBRANCH  12  13
ENDBRANCH  10  12
ENDBRANCH   7  10
BRANCH   4  26
HETATM   26  N3  UNL     1      48.785 -43.943  50.821  1.00  0.00    -0.223 N 
ATOM     27  H3  UNL     1      49.545 -43.750  51.474  1.00  0.00     0.177 HD
BRANCH  26  28
HETATM   28  C8  UNL     1      48.248 -45.263  50.755  1.00  0.00     0.164 C 
BRANCH  28  29
HETATM   29  C9  UNL     1      47.484 -45.592  52.042  1.00  0.00     0.184 C 
BRANCH  29  30
HETATM   30  O1  UNL     1      48.027 -44.988  53.154  1.00  0.00    -0.399 OA
ATOM     31  H1  UNL     1      48.264 -45.610  53.833  1.00  0.00     0.209 HD
ENDBRANCH  29  30
ENDBRANCH  28  29
ENDBRANCH  26  28
ENDBRANCH   4  26
BRANCH   1  32
HETATM   32  N1  UNL     1      48.095 -39.550  50.481  1.00  0.00    -0.370 NA
BRANCH  32  33
HETATM   33  C5  UNL     1      48.226 -38.373  51.026  1.00  0.00     0.111 A 
HETATM   34  C4  UNL     1      49.469 -37.992  51.565  1.00  0.00     0.045 A 
HETATM   35  C3  UNL     1      49.706 -36.807  52.162  1.00  0.00     0.010 A 
HETATM   36  C2  UNL     1      48.682 -35.898  52.262  1.00  0.00    -0.056 A 
HETATM   37  C1  UNL     1      48.911 -34.583  52.923  1.00  0.00     0.049 C 
HETATM   38  C25 UNL     1      47.416 -36.188  51.756  1.00  0.00    -0.053 A 
HETATM   39  C24 UNL     1      47.218 -37.399  51.159  1.00  0.00     0.052 A 
HETATM   40  C26 UNL     1      46.357 -35.157  51.901  1.00  0.00     0.049 C 
ENDBRANCH  32  33
ENDBRANCH   1  32
TORSDOF 10
ENDMDL
MODEL 4
REMARK VINA RESULT: -8.022865759      4.424      8.034
REMARK  10 active torsions:
REMARK  status: ('A' for Active; 'I' for Inactive)
REMARK    1  A    between atoms: C5_5  and  N1_6 
REMARK    2  A    between atoms: N1_6  and  C6_7 
REMARK    3  A    between atoms: C7_10  and  N3_11 
REMARK    4  A    between atoms: N3_11  and  C8_13 
REMARK    5  A    between atoms: C8_13  and  C9_14 
REMARK    6  A    between atoms: C9_14  and  O1_15 
REMARK    7  A    between atoms: C10_19  and  N5_20 
REMARK    8  A    between atoms: N5_20  and  C11_22 
REMARK    9  A    between atoms: C11_22  and  C12_23 
REMARK   10  A    between atoms: C15_26  and  C16_27 
ROOT
HETATM    1  C6  UNL     1      49.218 -40.393  49.321  1.00  0.00     0.288 A 
HETATM    2  N2  UNL     1      49.432 -40.262  47.986  1.00  0.00    -0.148 N 
ATOM      3  H2  UNL     1      49.411 -39.331  47.569  1.00  0.00     0.188 HD
HETATM    4  C7  UNL     1      49.675 -41.346  47.181  1.00  0.00     0.696 A 
HETATM    5  N4  UNL     1      49.705 -42.555  47.706  1.00  0.00    -0.022 N 
ATOM      6  H4  UNL     1      49.886 -43.360  47.107  1.00  0.00     0.203 HD
HETATM    7  C10 UNL     1      49.498 -42.744  49.031  1.00  0.00     0.700 A 
HETATM    8  N7  UNL     1      49.263 -41.679  49.802  1.00  0.00    -0.148 N 
ATOM      9  H7  UNL     1      49.109 -41.829  50.799  1.00  0.00     0.188 HD
ENDROOT
BRANCH   7  10
HETATM   10  N5  UNL     1      49.527 -43.895  49.522  1.00  0.00    -0.200 N 
ATOM     11  H5  UNL     1      49.826 -43.893  50.497  1.00  0.00     0.183 HD
BRANCH  10  12
HETATM   12  C11 UNL     1      49.247 -45.191  49.055  1.00  0.00     0.117 C 
BRANCH  12  13
HETATM   13  C12 UNL     1      50.476 -45.695  48.392  1.00  0.00    -0.020 A 
HETATM   14  C13 UNL     1      50.406 -46.082  47.072  1.00  0.00     0.013 A 
HETATM   15  C14 UNL     1      51.551 -46.539  46.422  1.00  0.00     0.013 A 
HETATM   16  C15 UNL     1      52.745 -46.599  47.105  1.00  0.00    -0.024 A 
HETATM   17  C22 UNL     1      52.809 -46.211  48.427  1.00  0.00     0.013 A 
HETATM   18  C23 UNL     1      51.654 -45.752  49.081  1.00  0.00     0.013 A 
BRANCH  16  19
HETATM   19  C16 UNL     1      53.927 -47.074  46.396  1.00  0.00    -0.002 A 
HETATM   20  C17 UNL     1      54.280 -48.416  46.331  1.00  0.00     0.031 A 
HETATM   21  C18 UNL     1      55.442 -48.433  45.586  1.00  0.00     0.091 A 
HETATM   22  N6  UNL     1      55.750 -47.186  45.237  1.00  0.00    -0.364 N 
HETATM   23  C19 UNL     1      56.892 -46.722  44.449  1.00  0.00     0.155 C 
HETATM   24  C20 UNL     1      54.836 -46.299  45.717  1.00  0.00     0.018 A 
HETATM   25  C21 UNL     1      54.806 -44.829  45.558  1.00  0.00     0.069 C 
ENDBRANCH  16  19
ENDBRANCH  12  13
ENDBRANCH  10  12
ENDBRANCH   7  10
BRANCH   4  26
HETATM   26  N3  UNL     1      49.866 -41.066  45.939  1.00  0.00    -0.223 N 
ATOM     27  H3  UNL     1      50.179 -41.805  45.309  1.00  0.00     0.177 HD
BRANCH  26  28
HETATM   28  C8  UNL     1      49.654 -39.756  45.416  1.00  0.00     0.164 C 
BRANCH  28  29
HETATM   29  C9  UNL     1      50.446 -39.566  44.118  1.00  0.00     0.184 C 
BRANCH  29  30
HETATM   30  O1  UNL     1      51.612 -40.297  44.092  1.00  0.00    -0.399 OA
ATOM     31  H1  UNL     1      52.370 -39.775  43.856  1.00  0.00     0.209 HD
ENDBRANCH  29  30
ENDBRANCH  28  29
ENDBRANCH  26  28
ENDBRANCH   4  26
BRANCH   1  32
HETATM   32  N1  UNL     1      49.011 -39.442  50.002  1.00  0.00    -0.370 NA
BRANCH  32  33
HETATM   33  C5  UNL     1      48.790 -38.379  50.725  1.00  0.00     0.111 A 
HETATM   34  C4  UNL     1      49.798 -37.905  51.585  1.00  0.00     0.045 A 
HETATM   35  C3  UNL     1      49.667 -36.827  52.385  1.00  0.00     0.010 A 
HETATM   36  C2  UNL     1      48.483 -36.133  52.375  1.00  0.00    -0.056 A 
HETATM   37  C1  UNL     1      48.305 -34.943  53.252  1.00  0.00     0.049 C 
HETATM   38  C25 UNL     1      47.429 -36.530  51.553  1.00  0.00    -0.053 A 
HETATM   39  C24 UNL     1      47.602 -37.626  50.760  1.00  0.00     0.052 A 
HETATM   40  C26 UNL     1      46.176 -35.732  51.596  1.00  0.00     0.049 C 
ENDBRANCH  32  33
ENDBRANCH   1  32
TORSDOF 10
ENDMDL
MODEL 5
REMARK VINA RESULT: -7.913089101      4.316      7.510
REMARK  10 active torsions:
REMARK  status: ('A' for Active; 'I' for Inactive)
REMARK    1  A    between atoms: C5_5  and  N1_6 
REMARK    2  A    between atoms: N1_6  and  C6_7 
REMARK    3  A    between atoms: C7_10  and  N3_11 
REMARK    4  A    between atoms: N3_11  and  C8_13 
REMARK    5  A    between atoms: C8_13  and  C9_14 
REMARK    6  A    between atoms: C9_14  and  O1_15 
REMARK    7  A    between atoms: C10_19  and  N5_20 
REMARK    8  A    between atoms: N5_20  and  C11_22 
REMARK    9  A    between atoms: C11_22  and  C12_23 
REMARK   10  A    between atoms: C15_26  and  C16_27 
ROOT
HETATM    1  C6  UNL     1      48.148 -40.509  49.622  1.00  0.00     0.288 A 
HETATM    2  N2  UNL     1      47.288 -40.688  48.585  1.00  0.00    -0.148 N 
ATOM      3  H2  UNL     1      46.661 -39.926  48.323  1.00  0.00     0.188 HD
HETATM    4  C7  UNL     1      47.236 -41.864  47.881  1.00  0.00     0.696 A 
HETATM    5  N4  UNL     1      48.040 -42.857  48.209  1.00  0.00    -0.022 N 
ATOM      6  H4  UNL     1      48.000 -43.731  47.684  1.00  0.00     0.203 HD
HETATM    7  C10 UNL     1      48.916 -42.733  49.233  1.00  0.00     0.700 A 
HETATM    8  N7  UNL     1      48.955 -41.583  49.909  1.00  0.00    -0.148 N 
ATOM      9  H7  UNL     1      49.619 -41.497  50.679  1.00  0.00     0.188 HD
ENDROOT
BRANCH   7  10
HETATM   10  N5  UNL     1      49.675 -43.681  49.539  1.00  0.00    -0.200 N 
ATOM     11  H5  UNL     1      50.378 -43.408  50.225  1.00  0.00     0.183 HD
BRANCH  10  12
HETATM   12  C11 UNL     1      49.793 -45.030  49.166  1.00  0.00     0.117 C 
BRANCH  12  13
HETATM   13  C12 UNL     1      51.016 -45.151  48.331  1.00  0.00    -0.020 A 
HETATM   14  C13 UNL     1      50.903 -45.011  46.966  1.00  0.00     0.013 A 
HETATM   15  C14 UNL     1      52.040 -45.099  46.163  1.00  0.00     0.013 A 
HETATM   16  C15 UNL     1      53.268 -45.325  46.743  1.00  0.00    -0.024 A 
HETATM   17  C22 UNL     1      53.374 -45.466  48.111  1.00  0.00     0.013 A 
HETATM   18  C23 UNL     1      52.228 -45.378  48.918  1.00  0.00     0.013 A 
BRANCH  16  19
HETATM   19  C16 UNL     1      54.439 -45.405  45.879  1.00  0.00    -0.002 A 
HETATM   20  C17 UNL     1      55.004 -44.293  45.268  1.00  0.00     0.031 A 
HETATM   21  C18 UNL     1      56.069 -44.796  44.548  1.00  0.00     0.091 A 
HETATM   22  N6  UNL     1      56.126 -46.114  44.726  1.00  0.00    -0.364 N 
HETATM   23  C19 UNL     1      57.084 -47.064  44.159  1.00  0.00     0.155 C 
HETATM   24  C20 UNL     1      55.131 -46.545  45.549  1.00  0.00     0.018 A 
HETATM   25  C21 UNL     1      54.840 -47.923  46.000  1.00  0.00     0.069 C 
ENDBRANCH  16  19
ENDBRANCH  12  13
ENDBRANCH  10  12
ENDBRANCH   7  10
BRANCH   4  26
HETATM   26  N3  UNL     1      46.377 -41.884  46.922  1.00  0.00    -0.223 N 
ATOM     27  H3  UNL     1      45.420 -42.174  47.124  1.00  0.00     0.177 HD
BRANCH  26  28
HETATM   28  C8  UNL     1      46.721 -41.514  45.588  1.00  0.00     0.164 C 
BRANCH  28  29
HETATM   29  C9  UNL     1      46.132 -40.142  45.247  1.00  0.00     0.184 C 
BRANCH  29  30
HETATM   30  O1  UNL     1      46.814 -39.105  45.842  1.00  0.00    -0.399 OA
ATOM     31  H1  UNL     1      46.252 -38.545  46.364  1.00  0.00     0.209 HD
ENDBRANCH  29  30
ENDBRANCH  28  29
ENDBRANCH  26  28
ENDBRANCH   4  26
BRANCH   1  32
HETATM   32  N1  UNL     1      48.179 -39.482  50.218  1.00  0.00    -0.370 NA
BRANCH  32  33
HETATM   33  C5  UNL     1      48.232 -38.343  50.851  1.00  0.00     0.111 A 
HETATM   34  C4  UNL     1      49.435 -37.946  51.464  1.00  0.00     0.045 A 
HETATM   35  C3  UNL     1      49.592 -36.799  52.154  1.00  0.00     0.010 A 
HETATM   36  C2  UNL     1      48.522 -35.948  52.280  1.00  0.00    -0.056 A 
HETATM   37  C1  UNL     1      48.662 -34.677  53.043  1.00  0.00     0.049 C 
HETATM   38  C25 UNL     1      47.290 -36.259  51.706  1.00  0.00    -0.053 A 
HETATM   39  C24 UNL     1      47.173 -37.431  51.016  1.00  0.00     0.052 A 
HETATM   40  C26 UNL     1      46.177 -35.292  51.885  1.00  0.00     0.049 C 
ENDBRANCH  32  33
ENDBRANCH   1  32
TORSDOF 10
ENDMDL
