MODEL 1
REMARK VINA RESULT: -8.661097580      0.000      0.000
REMARK  9 active torsions:
REMARK  status: ('A' for Active; 'I' for Inactive)
REMARK    1  A    between atoms: C3_3  and  N1_4 
REMARK    2  A    between atoms: C5_9  and  N3_10 
REMARK    3  A    between atoms: N3_10  and  C6_12 
REMARK    4  A    between atoms: C6_12  and  C7_13 
REMARK    5  A    between atoms: C7_13  and  C8_14 
REMARK    6  A    between atoms: C10_17  and  N4_18 
REMARK    7  A    between atoms: N4_18  and  C11_20 
REMARK    8  A    between atoms: C14_25  and  N6_26 
REMARK    9  A    between atoms: N6_26  and  C15_28 
ROOT
HETATM    1  C1  UNL     1      48.155 -35.072  52.958  1.00  0.00     0.014 C 
HETATM    2  C2  UNL     1      47.678 -35.675  52.044  1.00  0.00    -0.097 C 
HETATM    3  C3  UNL     1      47.068 -36.410  50.922  1.00  0.00     0.231 C 
ENDROOT
BRANCH   3   4
HETATM    4  N1  UNL     1      47.302 -37.794  51.093  1.00  0.00    -0.216 N 
HETATM    5  C4  UNL     1      48.030 -38.563  50.309  1.00  0.00     0.682 A 
HETATM    6  N2  UNL     1      48.138 -39.864  50.634  1.00  0.00    -0.170 N 
HETATM    7  N8  UNL     1      48.588 -37.953  49.268  1.00  0.00    -0.170 N 
HETATM    8  C5  UNL     1      48.822 -40.804  49.986  1.00  0.00     0.163 A 
ATOM      9  H2  UNL     1      47.639 -40.163  51.471  1.00  0.00     0.186 HD
HETATM   10  S1  UNL     1      49.635 -40.210  48.579  1.00  0.00    -0.017 SA
HETATM   11  C10 UNL     1      49.364 -38.545  48.355  1.00  0.00     0.168 A 
ATOM     12  H8  UNL     1      48.409 -36.956  49.158  1.00  0.00     0.186 HD
ATOM     13  H1  UNL     1      46.865 -38.240  51.900  1.00  0.00     0.178 HD
BRANCH   8  14
HETATM   14  N3  UNL     1      48.903 -42.045  50.329  1.00  0.00    -0.370 N 
ATOM     15  H3  UNL     1      49.395 -42.700  49.721  1.00  0.00     0.161 HD
BRANCH  14  16
HETATM   16  C6  UNL     1      48.317 -42.523  51.542  1.00  0.00     0.121 C 
BRANCH  16  17
HETATM   17  C7  UNL     1      47.630 -43.856  51.280  1.00  0.00     0.019 C 
BRANCH  17  18
HETATM   18  C8  UNL     1      47.857 -44.788  52.455  1.00  0.00    -0.003 C 
HETATM   19  C9  UNL     1      46.695 -45.744  52.582  1.00  0.00     0.005 C 
ENDBRANCH  17  18
ENDBRANCH  16  17
ENDBRANCH  14  16
ENDBRANCH   8  14
BRANCH  11  20
HETATM   20  N4  UNL     1      49.856 -37.842  47.383  1.00  0.00    -0.320 N 
ATOM     21  H4  UNL     1      50.649 -37.233  47.583  1.00  0.00     0.169 HD
BRANCH  20  22
HETATM   22  C11 UNL     1      49.353 -37.874  46.059  1.00  0.00     0.134 A 
HETATM   23  N5  UNL     1      48.590 -38.802  45.463  1.00  0.00    -0.350 N 
HETATM   24  C12 UNL     1      48.315 -38.469  44.191  1.00  0.00     0.092 A 
ATOM     25  H5  UNL     1      48.260 -39.653  45.917  1.00  0.00     0.166 HD
HETATM   26  C13 UNL     1      48.923 -37.266  43.931  1.00  0.00     0.050 A 
HETATM   27  C14 UNL     1      49.568 -36.893  45.088  1.00  0.00     0.078 A 
BRANCH  27  28
HETATM   28  N6  UNL     1      50.341 -35.725  45.329  1.00  0.00    -0.352 N 
ATOM     29  H6  UNL     1      51.342 -35.788  45.510  1.00  0.00     0.166 HD
BRANCH  28  30
HETATM   30  C15 UNL     1      49.742 -34.587  45.312  1.00  0.00     0.046 A 
HETATM   31  C16 UNL     1      48.467 -34.445  44.819  1.00  0.00     0.047 A 
HETATM   32  C17 UNL     1      47.848 -33.211  44.817  1.00  0.00     0.090 A 
HETATM   33  N7  UNL     1      48.496 -32.140  45.301  1.00  0.00    -0.365 N 
HETATM   34  C18 UNL     1      49.730 -32.224  45.789  1.00  0.00     0.050 A 
ATOM     35  H7  UNL     1      48.027 -31.234  45.294  1.00  0.00     0.165 HD
HETATM   36  C19 UNL     1      50.357 -31.079  46.278  1.00  0.00    -0.034 A 
HETATM   37  C24 UNL     1      50.378 -33.443  45.805  1.00  0.00     0.018 A 
HETATM   38  C20 UNL     1      49.635 -29.794  46.247  1.00  0.00     0.050 C 
HETATM   39  C21 UNL     1      51.624 -31.140  46.785  1.00  0.00     0.009 A 
HETATM   40  C22 UNL     1      52.261 -32.377  46.792  1.00  0.00     0.002 A 
HETATM   41  C23 UNL     1      51.661 -33.508  46.316  1.00  0.00     0.016 A 
ENDBRANCH  28  30
ENDBRANCH  27  28
ENDBRANCH  20  22
ENDBRANCH  11  20
ENDBRANCH   3   4
TORSDOF 9
ENDMDL
MODEL 2
REMARK VINA RESULT: -8.654655572      2.427     10.215
REMARK  9 active torsions:
REMARK  status: ('A' for Active; 'I' for Inactive)
REMARK    1  A    between atoms: C3_3  and  N1_4 
REMARK    2  A    between atoms: C5_9  and  N3_10 
REMARK    3  A    between atoms: N3_10  and  C6_12 
REMARK    4  A    between atoms: C6_12  and  C7_13 
REMARK    5  A    between atoms: C7_13  and  C8_14 
REMARK    6  A    between atoms: C10_17  and  N4_18 
REMARK    7  A    between atoms: N4_18  and  C11_20 
REMARK    8  A    between atoms: C14_25  and  N6_26 
REMARK    9  A    between atoms: N6_26  and  C15_28 
ROOT
HETATM    1  C1  UNL     1      48.029 -35.329  53.546  1.00  0.00     0.014 C 
HETATM    2  C2  UNL     1      47.660 -35.944  52.591  1.00  0.00    -0.097 C 
HETATM    3  C3  UNL     1      47.216 -36.723  51.422  1.00  0.00     0.231 C 
ENDROOT
BRANCH   3   4
HETATM    4  N1  UNL     1      47.791 -36.173  50.253  1.00  0.00    -0.216 N 
HETATM    5  C4  UNL     1      48.406 -36.844  49.299  1.00  0.00     0.682 A 
HETATM    6  N2  UNL     1      48.892 -36.144  48.258  1.00  0.00    -0.170 N 
HETATM    7  N8  UNL     1      48.474 -38.158  49.477  1.00  0.00    -0.170 N 
HETATM    8  C5  UNL     1      49.537 -36.621  47.195  1.00  0.00     0.163 A 
ATOM      9  H2  UNL     1      48.750 -35.135  48.286  1.00  0.00     0.186 HD
HETATM   10  S1  UNL     1      49.734 -38.340  47.231  1.00  0.00    -0.017 SA
HETATM   11  C10 UNL     1      49.049 -39.021  48.632  1.00  0.00     0.168 A 
ATOM     12  H8  UNL     1      48.055 -38.540  50.324  1.00  0.00     0.186 HD
ATOM     13  H1  UNL     1      47.724 -35.162  50.137  1.00  0.00     0.178 HD
BRANCH   8  14
HETATM   14  N3  UNL     1      49.989 -35.918  46.213  1.00  0.00    -0.370 N 
ATOM     15  H3  UNL     1      49.955 -36.300  45.268  1.00  0.00     0.161 HD
BRANCH  14  16
HETATM   16  C6  UNL     1      50.537 -34.615  46.419  1.00  0.00     0.121 C 
BRANCH  16  17
HETATM   17  C7  UNL     1      49.549 -33.567  45.926  1.00  0.00     0.019 C 
BRANCH  17  18
HETATM   18  C8  UNL     1      50.020 -32.185  46.338  1.00  0.00    -0.003 C 
HETATM   19  C9  UNL     1      51.370 -32.283  47.006  1.00  0.00     0.005 C 
ENDBRANCH  17  18
ENDBRANCH  16  17
ENDBRANCH  14  16
ENDBRANCH   8  14
BRANCH  11  20
HETATM   20  N4  UNL     1      49.049 -40.286  48.913  1.00  0.00    -0.320 N 
ATOM     21  H4  UNL     1      49.756 -40.634  49.561  1.00  0.00     0.169 HD
BRANCH  20  22
HETATM   22  C11 UNL     1      48.125 -41.211  48.370  1.00  0.00     0.134 A 
HETATM   23  N5  UNL     1      47.022 -40.982  47.643  1.00  0.00    -0.350 N 
HETATM   24  C12 UNL     1      46.406 -42.128  47.309  1.00  0.00     0.092 A 
ATOM     25  H5  UNL     1      46.692 -40.054  47.377  1.00  0.00     0.166 HD
HETATM   26  C13 UNL     1      47.132 -43.165  47.839  1.00  0.00     0.050 A 
HETATM   27  C14 UNL     1      48.200 -42.601  48.499  1.00  0.00     0.078 A 
BRANCH  27  28
HETATM   28  N6  UNL     1      49.241 -43.254  49.211  1.00  0.00    -0.352 N 
ATOM     29  H6  UNL     1      50.218 -43.114  48.956  1.00  0.00     0.166 HD
BRANCH  28  30
HETATM   30  C15 UNL     1      48.916 -44.028  50.186  1.00  0.00     0.046 A 
HETATM   31  C16 UNL     1      48.254 -43.558  51.295  1.00  0.00     0.047 A 
HETATM   32  C17 UNL     1      47.915 -44.414  52.325  1.00  0.00     0.090 A 
HETATM   33  N7  UNL     1      48.234 -45.714  52.243  1.00  0.00    -0.365 N 
HETATM   34  C18 UNL     1      48.875 -46.218  51.192  1.00  0.00     0.050 A 
ATOM     35  H7  UNL     1      47.978 -46.335  53.011  1.00  0.00     0.165 HD
HETATM   36  C19 UNL     1      49.183 -47.577  51.159  1.00  0.00    -0.034 A 
HETATM   37  C24 UNL     1      49.229 -45.390  50.145  1.00  0.00     0.018 A 
HETATM   38  C20 UNL     1      48.789 -48.433  52.294  1.00  0.00     0.050 C 
HETATM   39  C21 UNL     1      49.840 -48.118  50.091  1.00  0.00     0.009 A 
HETATM   40  C22 UNL     1      50.188 -47.269  49.045  1.00  0.00     0.002 A 
HETATM   41  C23 UNL     1      49.894 -45.935  49.062  1.00  0.00     0.016 A 
ENDBRANCH  28  30
ENDBRANCH  27  28
ENDBRANCH  20  22
ENDBRANCH  11  20
ENDBRANCH   3   4
TORSDOF 9
ENDMDL
MODEL 3
REMARK VINA RESULT: -8.627416618      1.881      3.273
REMARK  9 active torsions:
REMARK  status: ('A' for Active; 'I' for Inactive)
REMARK    1  A    between atoms: C3_3  and  N1_4 
REMARK    2  A    between atoms: C5_9  and  N3_10 
REMARK    3  A    between atoms: N3_10  and  C6_12 
REMARK    4  A    between atoms: C6_12  and  C7_13 
REMARK    5  A    between atoms: C7_13  and  C8_14 
REMARK    6  A    between atoms: C10_17  and  N4_18 
REMARK    7  A    between atoms: N4_18  and  C11_20 
REMARK    8  A    between atoms: C14_25  and  N6_26 
REMARK    9  A    between atoms: N6_26  and  C15_28 
ROOT
HETATM    1  C1  UNL     1      47.865 -35.507  52.864  1.00  0.00     0.014 C 
HETATM    2  C2  UNL     1      47.909 -36.336  52.005  1.00  0.00    -0.097 C 
HETATM    3  C3  UNL     1      47.939 -37.355  50.941  1.00  0.00     0.231 C 
ENDROOT
BRANCH   3   4
HETATM    4  N1  UNL     1      48.248 -38.611  51.511  1.00  0.00    -0.216 N 
HETATM    5  C4  UNL     1      48.063 -39.788  50.947  1.00  0.00     0.682 A 
HETATM    6  N2  UNL     1      48.420 -40.879  51.647  1.00  0.00    -0.170 N 
HETATM    7  N8  UNL     1      47.537 -39.762  49.727  1.00  0.00    -0.170 N 
HETATM    8  C5  UNL     1      48.323 -42.151  51.266  1.00  0.00     0.163 A 
ATOM      9  H2  UNL     1      48.808 -40.714  52.575  1.00  0.00     0.186 HD
HETATM   10  S1  UNL     1      47.652 -42.340  49.682  1.00  0.00    -0.017 SA
HETATM   11  C10 UNL     1      47.272 -40.838  48.979  1.00  0.00     0.168 A 
ATOM     12  H8  UNL     1      47.319 -38.848  49.329  1.00  0.00     0.186 HD
ATOM     13  H1  UNL     1      48.652 -38.607  52.447  1.00  0.00     0.178 HD
BRANCH   8  14
HETATM   14  N3  UNL     1      48.677 -43.175  51.967  1.00  0.00    -0.370 N 
ATOM     15  H3  UNL     1      49.624 -43.218  52.344  1.00  0.00     0.161 HD
BRANCH  14  16
HETATM   16  C6  UNL     1      47.772 -44.249  52.226  1.00  0.00     0.121 C 
BRANCH  16  17
HETATM   17  C7  UNL     1      48.364 -45.548  51.695  1.00  0.00     0.019 C 
BRANCH  17  18
HETATM   18  C8  UNL     1      47.367 -46.677  51.876  1.00  0.00    -0.003 C 
HETATM   19  C9  UNL     1      46.211 -46.207  52.725  1.00  0.00     0.005 C 
ENDBRANCH  17  18
ENDBRANCH  16  17
ENDBRANCH  14  16
ENDBRANCH   8  14
BRANCH  11  20
HETATM   20  N4  UNL     1      46.761 -40.684  47.798  1.00  0.00    -0.320 N 
ATOM     21  H4  UNL     1      45.778 -40.422  47.730  1.00  0.00     0.169 HD
BRANCH  20  22
HETATM   22  C11 UNL     1      47.492 -40.861  46.598  1.00  0.00     0.134 A 
HETATM   23  N5  UNL     1      47.951 -41.991  46.041  1.00  0.00    -0.350 N 
HETATM   24  C12 UNL     1      48.599 -41.745  44.891  1.00  0.00     0.092 A 
ATOM     25  H5  UNL     1      47.824 -42.921  46.442  1.00  0.00     0.166 HD
HETATM   26  C13 UNL     1      48.570 -40.390  44.674  1.00  0.00     0.050 A 
HETATM   27  C14 UNL     1      47.883 -39.837  45.730  1.00  0.00     0.078 A 
BRANCH  27  28
HETATM   28  N6  UNL     1      47.585 -38.469  45.967  1.00  0.00    -0.352 N 
ATOM     29  H6  UNL     1      46.659 -38.092  45.766  1.00  0.00     0.166 HD
BRANCH  28  30
HETATM   30  C15 UNL     1      48.514 -37.718  46.443  1.00  0.00     0.046 A 
HETATM   31  C16 UNL     1      49.246 -38.082  47.549  1.00  0.00     0.047 A 
HETATM   32  C17 UNL     1      50.241 -37.257  48.035  1.00  0.00     0.090 A 
HETATM   33  N7  UNL     1      50.497 -36.091  47.424  1.00  0.00    -0.365 N 
HETATM   34  C18 UNL     1      49.818 -35.692  46.352  1.00  0.00     0.050 A 
ATOM     35  H7  UNL     1      51.235 -35.491  47.793  1.00  0.00     0.165 HD
HETATM   36  C19 UNL     1      50.125 -34.470  45.756  1.00  0.00    -0.034 A 
HETATM   37  C24 UNL     1      48.816 -36.493  45.840  1.00  0.00     0.018 A 
HETATM   38  C20 UNL     1      51.202 -33.641  46.328  1.00  0.00     0.050 C 
HETATM   39  C21 UNL     1      49.442 -34.040  44.654  1.00  0.00     0.009 A 
HETATM   40  C22 UNL     1      48.436 -34.860  44.153  1.00  0.00     0.002 A 
HETATM   41  C23 UNL     1      48.123 -36.061  44.725  1.00  0.00     0.016 A 
ENDBRANCH  28  30
ENDBRANCH  27  28
ENDBRANCH  20  22
ENDBRANCH  11  20
ENDBRANCH   3   4
TORSDOF 9
ENDMDL
MODEL 4
REMARK VINA RESULT: -8.614376513      4.586      9.262
REMARK  9 active torsions:
REMARK  status: ('A' for Active; 'I' for Inactive)
REMARK    1  A    between atoms: C3_3  and  N1_4 
REMARK    2  A    between atoms: C5_9  and  N3_10 
REMARK    3  A    between atoms: N3_10  and  C6_12 
REMARK    4  A    between atoms: C6_12  and  C7_13 
REMARK    5  A    between atoms: C7_13  and  C8_14 
REMARK    6  A    between atoms: C10_17  and  N4_18 
REMARK    7  A    between atoms: N4_18  and  C11_20 
REMARK    8  A    between atoms: C14_25  and  N6_26 
REMARK    9  A    between atoms: N6_26  and  C15_28 
ROOT
HETATM    1  C1  UNL     1      47.386 -45.312  52.497  1.00  0.00     0.014 C 
HETATM    2  C2  UNL     1      47.984 -44.506  51.851  1.00  0.00    -0.097 C 
HETATM    3  C3  UNL     1      48.744 -43.520  51.061  1.00  0.00     0.231 C 
ENDROOT
BRANCH   3   4
HETATM    4  N1  UNL     1      48.428 -42.219  51.516  1.00  0.00    -0.216 N 
HETATM    5  C4  UNL     1      48.619 -41.096  50.854  1.00  0.00     0.682 A 
HETATM    6  N2  UNL     1      48.254 -39.948  51.453  1.00  0.00    -0.170 N 
HETATM    7  N8  UNL     1      49.159 -41.228  49.647  1.00  0.00    -0.170 N 
HETATM    8  C5  UNL     1      48.355 -38.714  50.963  1.00  0.00     0.163 A 
ATOM      9  H2  UNL     1      47.855 -40.033  52.387  1.00  0.00     0.186 HD
HETATM   10  S1  UNL     1      49.044 -38.663  49.377  1.00  0.00    -0.017 SA
HETATM   11  C10 UNL     1      49.433 -40.221  48.811  1.00  0.00     0.168 A 
ATOM     12  H8  UNL     1      49.382 -42.172  49.333  1.00  0.00     0.186 HD
ATOM     13  H1  UNL     1      48.013 -42.143  52.444  1.00  0.00     0.178 HD
BRANCH   8  14
HETATM   14  N3  UNL     1      47.993 -37.634  51.568  1.00  0.00    -0.370 N 
ATOM     15  H3  UNL     1      48.446 -37.377  52.446  1.00  0.00     0.161 HD
BRANCH  14  16
HETATM   16  C6  UNL     1      46.971 -36.789  51.037  1.00  0.00     0.121 C 
BRANCH  16  17
HETATM   17  C7  UNL     1      46.951 -35.475  51.805  1.00  0.00     0.019 C 
BRANCH  17  18
HETATM   18  C8  UNL     1      47.832 -35.588  53.035  1.00  0.00    -0.003 C 
HETATM   19  C9  UNL     1      49.180 -34.967  52.757  1.00  0.00     0.005 C 
ENDBRANCH  17  18
ENDBRANCH  16  17
ENDBRANCH  14  16
ENDBRANCH   8  14
BRANCH  11  20
HETATM   20  N4  UNL     1      49.957 -40.476  47.654  1.00  0.00    -0.320 N 
ATOM     21  H4  UNL     1      50.968 -40.380  47.553  1.00  0.00     0.169 HD
BRANCH  20  22
HETATM   22  C11 UNL     1      49.206 -40.879  46.523  1.00  0.00     0.134 A 
HETATM   23  N5  UNL     1      48.332 -40.175  45.790  1.00  0.00    -0.350 N 
HETATM   24  C12 UNL     1      47.824 -40.913  44.789  1.00  0.00     0.092 A 
ATOM     25  H5  UNL     1      48.083 -39.202  45.970  1.00  0.00     0.166 HD
HETATM   26  C13 UNL     1      48.387 -42.163  44.861  1.00  0.00     0.050 A 
HETATM   27  C14 UNL     1      49.245 -42.146  45.936  1.00  0.00     0.078 A 
BRANCH  27  28
HETATM   28  N6  UNL     1      50.064 -43.199  46.425  1.00  0.00    -0.352 N 
ATOM     29  H6  UNL     1      51.063 -43.223  46.224  1.00  0.00     0.166 HD
BRANCH  28  30
HETATM   30  C15 UNL     1      49.510 -44.121  47.131  1.00  0.00     0.046 A 
HETATM   31  C16 UNL     1      48.144 -44.258  47.201  1.00  0.00     0.047 A 
HETATM   32  C17 UNL     1      47.578 -45.261  47.964  1.00  0.00     0.090 A 
HETATM   33  N7  UNL     1      48.367 -46.108  48.642  1.00  0.00    -0.365 N 
HETATM   34  C18 UNL     1      49.693 -46.018  48.607  1.00  0.00     0.050 A 
ATOM     35  H7  UNL     1      47.935 -46.844  49.201  1.00  0.00     0.165 HD
HETATM   36  C19 UNL     1      50.465 -46.925  49.332  1.00  0.00    -0.034 A 
HETATM   37  C24 UNL     1      50.292 -45.027  47.855  1.00  0.00     0.018 A 
HETATM   38  C20 UNL     1      49.793 -47.972  50.123  1.00  0.00     0.050 C 
HETATM   39  C21 UNL     1      51.829 -46.852  49.311  1.00  0.00     0.009 A 
HETATM   40  C22 UNL     1      52.415 -45.847  48.547  1.00  0.00     0.002 A 
HETATM   41  C23 UNL     1      51.672 -44.950  47.832  1.00  0.00     0.016 A 
ENDBRANCH  28  30
ENDBRANCH  27  28
ENDBRANCH  20  22
ENDBRANCH  11  20
ENDBRANCH   3   4
TORSDOF 9
ENDMDL
MODEL 5
REMARK VINA RESULT: -8.543185095      2.414      3.941
REMARK  9 active torsions:
REMARK  status: ('A' for Active; 'I' for Inactive)
REMARK    1  A    between atoms: C3_3  and  N1_4 
REMARK    2  A    between atoms: C5_9  and  N3_10 
REMARK    3  A    between atoms: N3_10  and  C6_12 
REMARK    4  A    between atoms: C6_12  and  C7_13 
REMARK    5  A    between atoms: C7_13  and  C8_14 
REMARK    6  A    between atoms: C10_17  and  N4_18 
REMARK    7  A    between atoms: N4_18  and  C11_20 
REMARK    8  A    between atoms: C14_25  and  N6_26 
REMARK    9  A    between atoms: N6_26  and  C15_28 
ROOT
HETATM    1  C1  UNL     1      49.155 -35.453  52.647  1.00  0.00     0.014 C 
HETATM    2  C2  UNL     1      48.737 -36.317  51.935  1.00  0.00    -0.097 C 
HETATM    3  C3  UNL     1      48.199 -37.372  51.059  1.00  0.00     0.231 C 
ENDROOT
BRANCH   3   4
HETATM    4  N1  UNL     1      48.447 -38.634  51.648  1.00  0.00    -0.216 N 
HETATM    5  C4  UNL     1      48.184 -39.808  51.112  1.00  0.00     0.682 A 
HETATM    6  N2  UNL     1      48.491 -40.905  51.827  1.00  0.00    -0.170 N 
HETATM    7  N8  UNL     1      47.637 -39.775  49.901  1.00  0.00    -0.170 N 
HETATM    8  C5  UNL     1      48.314 -42.176  51.473  1.00  0.00     0.163 A 
ATOM      9  H2  UNL     1      48.906 -40.745  52.745  1.00  0.00     0.186 HD
HETATM   10  S1  UNL     1      47.603 -42.355  49.906  1.00  0.00    -0.017 SA
HETATM   11  C10 UNL     1      47.296 -40.847  49.180  1.00  0.00     0.168 A 
ATOM     12  H8  UNL     1      47.464 -38.858  49.490  1.00  0.00     0.186 HD
ATOM     13  H1  UNL     1      48.869 -38.635  52.577  1.00  0.00     0.178 HD
BRANCH   8  14
HETATM   14  N3  UNL     1      48.622 -43.205  52.188  1.00  0.00    -0.370 N 
ATOM     15  H3  UNL     1      49.536 -43.243  52.641  1.00  0.00     0.161 HD
BRANCH  14  16
HETATM   16  C6  UNL     1      47.713 -44.293  52.359  1.00  0.00     0.121 C 
BRANCH  16  17
HETATM   17  C7  UNL     1      48.362 -45.577  51.861  1.00  0.00     0.019 C 
BRANCH  17  18
HETATM   18  C8  UNL     1      47.347 -46.705  51.881  1.00  0.00    -0.003 C 
HETATM   19  C9  UNL     1      46.202 -46.346  52.796  1.00  0.00     0.005 C 
ENDBRANCH  17  18
ENDBRANCH  16  17
ENDBRANCH  14  16
ENDBRANCH   8  14
BRANCH  11  20
HETATM   20  N4  UNL     1      46.772 -40.687  48.006  1.00  0.00    -0.320 N 
ATOM     21  H4  UNL     1      46.215 -39.850  47.838  1.00  0.00     0.169 HD
BRANCH  20  22
HETATM   22  C11 UNL     1      46.930 -41.610  46.943  1.00  0.00     0.134 A 
HETATM   23  N5  UNL     1      46.180 -42.676  46.626  1.00  0.00    -0.350 N 
HETATM   24  C12 UNL     1      46.654 -43.305  45.538  1.00  0.00     0.092 A 
ATOM     25  H5  UNL     1      45.354 -42.972  47.146  1.00  0.00     0.166 HD
HETATM   26  C13 UNL     1      47.770 -42.626  45.114  1.00  0.00     0.050 A 
HETATM   27  C14 UNL     1      47.944 -41.574  45.983  1.00  0.00     0.078 A 
BRANCH  27  28
HETATM   28  N6  UNL     1      48.959 -40.580  45.970  1.00  0.00    -0.352 N 
ATOM     29  H6  UNL     1      49.880 -40.765  46.366  1.00  0.00     0.166 HD
BRANCH  28  30
HETATM   30  C15 UNL     1      48.684 -39.438  45.444  1.00  0.00     0.046 A 
HETATM   31  C16 UNL     1      48.085 -39.333  44.211  1.00  0.00     0.047 A 
HETATM   32  C17 UNL     1      47.798 -38.093  43.674  1.00  0.00     0.090 A 
HETATM   33  N7  UNL     1      48.106 -36.983  44.360  1.00  0.00    -0.365 N 
HETATM   34  C18 UNL     1      48.686 -37.030  45.556  1.00  0.00     0.050 A 
ATOM     35  H7  UNL     1      47.888 -36.073  43.952  1.00  0.00     0.165 HD
HETATM   36  C19 UNL     1      48.985 -35.844  46.225  1.00  0.00    -0.034 A 
HETATM   37  C24 UNL     1      48.987 -38.253  46.122  1.00  0.00     0.018 A 
HETATM   38  C20 UNL     1      48.649 -34.556  45.592  1.00  0.00     0.050 C 
HETATM   39  C21 UNL     1      49.580 -35.867  47.454  1.00  0.00     0.009 A 
HETATM   40  C22 UNL     1      49.876 -37.109  48.009  1.00  0.00     0.002 A 
HETATM   41  C23 UNL     1      49.590 -38.280  47.366  1.00  0.00     0.016 A 
ENDBRANCH  28  30
ENDBRANCH  27  28
ENDBRANCH  20  22
ENDBRANCH  11  20
ENDBRANCH   3   4
TORSDOF 9
ENDMDL
