MODEL 1
REMARK VINA RESULT: -6.588596697      0.000      0.000
REMARK  15 active torsions:
REMARK  status: ('A' for Active; 'I' for Inactive)
REMARK    1  A    between atoms: C2_2  and  C3_3 
REMARK    2  A    between atoms: C3_3  and  O1_4 
REMARK    3  A    between atoms: C3_3  and  C4_6 
REMARK    4  A    between atoms: C4_6  and  C5_7 
REMARK    5  A    between atoms: C5_7  and  C6_8 
REMARK    6  A    between atoms: C10_12  and  C11_13 
REMARK    7  A    between atoms: C15_17  and  C16_18 
REMARK    8  A    between atoms: C16_18  and  C23_29 
REMARK    9  A    between atoms: C17_19  and  C18_20 
REMARK   10  A    between atoms: C18_20  and  C19_21 
REMARK   11  A    between atoms: C19_21  and  C20_22 
REMARK   12  A    between atoms: C20_22  and  O2_23 
REMARK   13  A    between atoms: C20_22  and  C21_25 
REMARK   14  A    between atoms: C21_25  and  C22_26 
REMARK   15  A    between atoms: C27_34  and  O5_35 
ROOT
HETATM    1  C23 UNL     1      49.732 -39.448  49.146  1.00  0.00     0.070 C 
HETATM    2  C24 UNL     1      49.644 -38.383  48.112  1.00  0.00     0.036 C 
HETATM    3  C25 UNL     1      50.874 -40.354  48.682  1.00  0.00     0.036 C 
HETATM    4  C26 UNL     1      50.327 -38.896  50.407  1.00  0.00     0.073 C 
HETATM    5  N1  UNL     1      50.802 -38.498  51.413  1.00  0.00    -0.196 NA
ENDROOT
BRANCH   1   6
HETATM    6  C16 UNL     1      48.464 -40.090  49.464  1.00  0.00    -0.024 C 
HETATM    7  C17 UNL     1      47.492 -39.324  49.974  1.00  0.00     0.065 C 
BRANCH   6   8
HETATM    8  C15 UNL     1      48.053 -41.473  49.376  1.00  0.00    -0.039 C 
HETATM    9  C13 UNL     1      47.603 -42.137  48.160  1.00  0.00     0.014 C 
HETATM   10  C12 UNL     1      47.275 -43.535  48.702  1.00  0.00     0.016 C 
HETATM   11  C14 UNL     1      48.549 -42.365  47.041  1.00  0.00     0.015 C 
HETATM   12  C11 UNL     1      47.966 -43.662  50.052  1.00  0.00     0.024 C 
HETATM   13  C27 UNL     1      48.982 -42.487  49.993  1.00  0.00     0.152 C 
BRANCH  12  14
HETATM   14  C10 UNL     1      48.631 -45.005  50.181  1.00  0.00    -0.000 C 
HETATM   15  C8  UNL     1      48.357 -45.616  51.544  1.00  0.00     0.010 C 
HETATM   16  C7  UNL     1      46.900 -46.088  51.535  1.00  0.00    -0.006 C 
HETATM   17  C9  UNL     1      49.255 -46.785  51.870  1.00  0.00     0.014 C 
HETATM   18  C6  UNL     1      46.521 -46.820  50.512  1.00  0.00    -0.008 C 
HETATM   19  C29 UNL     1      47.502 -47.155  49.457  1.00  0.00     0.048 C 
HETATM   20  C28 UNL     1      48.220 -45.909  49.038  1.00  0.00     0.011 C 
BRANCH  18  21
HETATM   21  C5  UNL     1      45.189 -47.310  50.399  1.00  0.00    -0.069 C 
BRANCH  21  22
HETATM   22  C4  UNL     1      44.069 -47.740  50.337  1.00  0.00    -0.070 C 
BRANCH  22  23
HETATM   23  C3  UNL     1      42.701 -48.314  50.262  1.00  0.00     0.196 C 
BRANCH  23  24
HETATM   24  C2  UNL     1      41.698 -47.224  50.648  1.00  0.00     0.040 C 
HETATM   25  C1  UNL     1      41.514 -46.315  49.459  1.00  0.00     0.009 C 
ENDBRANCH  23  24
BRANCH  23  26
HETATM   26  O1  UNL     1      42.519 -48.718  48.963  1.00  0.00    -0.383 OA
ATOM     27  H1  UNL     1      41.780 -49.311  48.888  1.00  0.00     0.211 HD
ENDBRANCH  23  26
ENDBRANCH  22  23
ENDBRANCH  21  22
ENDBRANCH  18  21
ENDBRANCH  12  14
BRANCH  13  28
HETATM   28  O5  UNL     1      49.342 -42.188  51.267  1.00  0.00    -0.391 OA
ATOM     29  H5  UNL     1      48.988 -41.331  51.474  1.00  0.00     0.210 HD
ENDBRANCH  13  28
ENDBRANCH   6   8
BRANCH   7  30
HETATM   30  C18 UNL     1      47.383 -37.972  50.243  1.00  0.00    -0.125 C 
BRANCH  30  31
HETATM   31  C19 UNL     1      47.282 -36.745  50.492  1.00  0.00     0.092 C 
BRANCH  31  32
HETATM   32  C20 UNL     1      46.528 -35.897  51.383  1.00  0.00     0.079 C 
BRANCH  32  33
HETATM   33  O2  UNL     1      45.203 -35.656  51.306  1.00  0.00    -0.360 OA
ATOM     34  H2  UNL     1      44.516 -36.222  51.640  1.00  0.00     0.217 HD
ENDBRANCH  32  33
BRANCH  32  35
HETATM   35  C21 UNL     1      47.176 -35.277  52.403  1.00  0.00     0.121 C 
BRANCH  35  36
HETATM   36  C22 UNL     1      48.477 -35.731  52.787  1.00  0.00     0.201 C 
HETATM   37  O3  UNL     1      48.678 -36.770  53.470  1.00  0.00    -0.644 OA
HETATM   38  O4  UNL     1      49.626 -35.033  52.419  1.00  0.00    -0.644 OA
ENDBRANCH  35  36
ENDBRANCH  32  35
ENDBRANCH  31  32
ENDBRANCH  30  31
ENDBRANCH   7  30
ENDBRANCH   1   6
TORSDOF 15
ENDMDL
MODEL 2
REMARK VINA RESULT: -6.427694606      2.782      9.556
REMARK  15 active torsions:
REMARK  status: ('A' for Active; 'I' for Inactive)
REMARK    1  A    between atoms: C2_2  and  C3_3 
REMARK    2  A    between atoms: C3_3  and  O1_4 
REMARK    3  A    between atoms: C3_3  and  C4_6 
REMARK    4  A    between atoms: C4_6  and  C5_7 
REMARK    5  A    between atoms: C5_7  and  C6_8 
REMARK    6  A    between atoms: C10_12  and  C11_13 
REMARK    7  A    between atoms: C15_17  and  C16_18 
REMARK    8  A    between atoms: C16_18  and  C23_29 
REMARK    9  A    between atoms: C17_19  and  C18_20 
REMARK   10  A    between atoms: C18_20  and  C19_21 
REMARK   11  A    between atoms: C19_21  and  C20_22 
REMARK   12  A    between atoms: C20_22  and  O2_23 
REMARK   13  A    between atoms: C20_22  and  C21_25 
REMARK   14  A    between atoms: C21_25  and  C22_26 
REMARK   15  A    between atoms: C27_34  and  O5_35 
ROOT
HETATM    1  C23 UNL     1      49.060 -45.122  48.871  1.00  0.00     0.070 C 
HETATM    2  C24 UNL     1      48.094 -45.874  48.027  1.00  0.00     0.036 C 
HETATM    3  C25 UNL     1      49.735 -46.187  49.739  1.00  0.00     0.036 C 
HETATM    4  C26 UNL     1      50.228 -44.674  48.044  1.00  0.00     0.073 C 
HETATM    5  N1  UNL     1      51.169 -44.314  47.427  1.00  0.00    -0.196 NA
ENDROOT
BRANCH   1   6
HETATM    6  C16 UNL     1      48.496 -43.967  49.557  1.00  0.00    -0.024 C 
HETATM    7  C17 UNL     1      47.514 -44.188  50.438  1.00  0.00     0.065 C 
BRANCH   6   8
HETATM    8  C15 UNL     1      48.777 -42.555  49.424  1.00  0.00    -0.039 C 
HETATM    9  C13 UNL     1      48.317 -41.710  48.329  1.00  0.00     0.014 C 
HETATM   10  C12 UNL     1      48.956 -40.369  48.718  1.00  0.00     0.016 C 
HETATM   11  C14 UNL     1      46.872 -41.421  48.167  1.00  0.00     0.015 C 
HETATM   12  C11 UNL     1      49.344 -40.469  50.185  1.00  0.00     0.024 C 
HETATM   13  C27 UNL     1      48.519 -41.706  50.641  1.00  0.00     0.152 C 
BRANCH  12  14
HETATM   14  C10 UNL     1      48.966 -39.211  50.918  1.00  0.00    -0.000 C 
HETATM   15  C8  UNL     1      50.143 -38.254  50.994  1.00  0.00     0.010 C 
HETATM   16  C7  UNL     1      50.320 -37.655  49.597  1.00  0.00    -0.006 C 
HETATM   17  C9  UNL     1      49.947 -37.139  51.992  1.00  0.00     0.014 C 
HETATM   18  C6  UNL     1      49.244 -37.166  49.021  1.00  0.00    -0.008 C 
HETATM   19  C29 UNL     1      47.954 -37.207  49.743  1.00  0.00     0.048 C 
HETATM   20  C28 UNL     1      47.739 -38.584  50.292  1.00  0.00     0.011 C 
BRANCH  18  21
HETATM   21  C5  UNL     1      49.291 -36.587  47.721  1.00  0.00    -0.069 C 
BRANCH  21  22
HETATM   22  C4  UNL     1      49.366 -36.087  46.632  1.00  0.00    -0.070 C 
BRANCH  22  23
HETATM   23  C3  UNL     1      49.436 -35.431  45.301  1.00  0.00     0.196 C 
BRANCH  23  24
HETATM   24  C2  UNL     1      49.390 -33.915  45.506  1.00  0.00     0.040 C 
HETATM   25  C1  UNL     1      50.740 -33.471  46.013  1.00  0.00     0.009 C 
ENDBRANCH  23  24
BRANCH  23  26
HETATM   26  O1  UNL     1      50.625 -35.820  44.737  1.00  0.00    -0.383 OA
ATOM     27  H1  UNL     1      51.049 -36.492  45.257  1.00  0.00     0.211 HD
ENDBRANCH  23  26
ENDBRANCH  22  23
ENDBRANCH  21  22
ENDBRANCH  18  21
ENDBRANCH  12  14
BRANCH  13  28
HETATM   28  O5  UNL     1      49.093 -42.190  51.772  1.00  0.00    -0.391 OA
ATOM     29  H5  UNL     1      49.612 -41.493  52.155  1.00  0.00     0.210 HD
ENDBRANCH  13  28
ENDBRANCH   6   8
BRANCH   7  30
HETATM   30  C18 UNL     1      46.900 -45.331  50.917  1.00  0.00    -0.125 C 
BRANCH  30  31
HETATM   31  C19 UNL     1      46.346 -46.369  51.358  1.00  0.00     0.092 C 
BRANCH  31  32
HETATM   32  C20 UNL     1      45.266 -47.245  50.972  1.00  0.00     0.079 C 
BRANCH  32  33
HETATM   33  O2  UNL     1      45.403 -48.456  50.396  1.00  0.00    -0.360 OA
ATOM     34  H2  UNL     1      45.651 -48.615  49.492  1.00  0.00     0.217 HD
ENDBRANCH  32  33
BRANCH  32  35
HETATM   35  C21 UNL     1      43.987 -46.849  51.202  1.00  0.00     0.121 C 
BRANCH  35  36
HETATM   36  C22 UNL     1      43.224 -46.287  50.130  1.00  0.00     0.201 C 
HETATM   37  O3  UNL     1      43.651 -46.184  48.950  1.00  0.00    -0.644 OA
HETATM   38  O4  UNL     1      41.930 -45.810  50.335  1.00  0.00    -0.644 OA
ENDBRANCH  35  36
ENDBRANCH  32  35
ENDBRANCH  31  32
ENDBRANCH  30  31
ENDBRANCH   7  30
ENDBRANCH   1   6
TORSDOF 15
ENDMDL
MODEL 3
REMARK VINA RESULT: -6.425783626      4.119      8.945
REMARK  15 active torsions:
REMARK  status: ('A' for Active; 'I' for Inactive)
REMARK    1  A    between atoms: C2_2  and  C3_3 
REMARK    2  A    between atoms: C3_3  and  O1_4 
REMARK    3  A    between atoms: C3_3  and  C4_6 
REMARK    4  A    between atoms: C4_6  and  C5_7 
REMARK    5  A    between atoms: C5_7  and  C6_8 
REMARK    6  A    between atoms: C10_12  and  C11_13 
REMARK    7  A    between atoms: C15_17  and  C16_18 
REMARK    8  A    between atoms: C16_18  and  C23_29 
REMARK    9  A    between atoms: C17_19  and  C18_20 
REMARK   10  A    between atoms: C18_20  and  C19_21 
REMARK   11  A    between atoms: C19_21  and  C20_22 
REMARK   12  A    between atoms: C20_22  and  O2_23 
REMARK   13  A    between atoms: C20_22  and  C21_25 
REMARK   14  A    between atoms: C21_25  and  C22_26 
REMARK   15  A    between atoms: C27_34  and  O5_35 
ROOT
HETATM    1  C23 UNL     1      48.438 -41.781  48.185  1.00  0.00     0.070 C 
HETATM    2  C24 UNL     1      49.588 -42.454  48.845  1.00  0.00     0.036 C 
HETATM    3  C25 UNL     1      47.503 -42.918  47.770  1.00  0.00     0.036 C 
HETATM    4  C26 UNL     1      47.585 -41.094  49.208  1.00  0.00     0.073 C 
HETATM    5  N1  UNL     1      46.883 -40.550  49.988  1.00  0.00    -0.196 NA
ENDROOT
BRANCH   1   6
HETATM    6  C16 UNL     1      48.809 -40.818  47.156  1.00  0.00    -0.024 C 
HETATM    7  C17 UNL     1      49.489 -39.731  47.540  1.00  0.00     0.065 C 
BRANCH   6   8
HETATM    8  C15 UNL     1      48.524 -40.787  45.739  1.00  0.00    -0.039 C 
HETATM    9  C13 UNL     1      47.625 -39.846  45.085  1.00  0.00     0.014 C 
HETATM   10  C12 UNL     1      47.705 -40.336  43.633  1.00  0.00     0.016 C 
HETATM   11  C14 UNL     1      47.967 -38.404  45.030  1.00  0.00     0.015 C 
HETATM   12  C11 UNL     1      48.946 -41.209  43.525  1.00  0.00     0.024 C 
HETATM   13  C27 UNL     1      49.716 -40.815  44.817  1.00  0.00     0.152 C 
BRANCH  12  14
HETATM   14  C10 UNL     1      49.709 -40.891  42.269  1.00  0.00    -0.000 C 
HETATM   15  C8  UNL     1      48.964 -39.871  41.426  1.00  0.00     0.010 C 
HETATM   16  C7  UNL     1      49.113 -38.519  42.128  1.00  0.00    -0.006 C 
HETATM   17  C9  UNL     1      49.489 -39.759  40.015  1.00  0.00     0.014 C 
HETATM   18  C6  UNL     1      50.329 -38.165  42.480  1.00  0.00    -0.008 C 
HETATM   19  C29 UNL     1      51.463 -39.064  42.173  1.00  0.00     0.048 C 
HETATM   20  C28 UNL     1      51.121 -40.456  42.605  1.00  0.00     0.011 C 
BRANCH  18  21
HETATM   21  C5  UNL     1      50.585 -36.931  43.142  1.00  0.00    -0.069 C 
BRANCH  21  22
HETATM   22  C4  UNL     1      50.815 -35.910  43.731  1.00  0.00    -0.070 C 
BRANCH  22  23
HETATM   23  C3  UNL     1      51.121 -34.670  44.491  1.00  0.00     0.196 C 
BRANCH  23  24
HETATM   24  C2  UNL     1      50.054 -34.490  45.573  1.00  0.00     0.040 C 
HETATM   25  C1  UNL     1      50.152 -35.657  46.524  1.00  0.00     0.009 C 
ENDBRANCH  23  24
BRANCH  23  26
HETATM   26  O1  UNL     1      52.364 -34.848  45.044  1.00  0.00    -0.383 OA
ATOM     27  H1  UNL     1      53.036 -34.430  44.521  1.00  0.00     0.211 HD
ENDBRANCH  23  26
ENDBRANCH  22  23
ENDBRANCH  21  22
ENDBRANCH  18  21
ENDBRANCH  12  14
BRANCH  13  28
HETATM   28  O5  UNL     1      50.594 -41.812  45.096  1.00  0.00    -0.391 OA
ATOM     29  H5  UNL     1      51.415 -41.603  44.666  1.00  0.00     0.210 HD
ENDBRANCH  13  28
ENDBRANCH   6   8
BRANCH   7  30
HETATM   30  C18 UNL     1      49.998 -39.302  48.752  1.00  0.00    -0.125 C 
BRANCH  30  31
HETATM   31  C19 UNL     1      50.466 -38.911  49.850  1.00  0.00     0.092 C 
BRANCH  31  32
HETATM   32  C20 UNL     1      50.079 -38.017  50.915  1.00  0.00     0.079 C 
BRANCH  32  33
HETATM   33  O2  UNL     1      50.535 -38.060  52.183  1.00  0.00    -0.360 OA
ATOM     34  H2  UNL     1      50.805 -37.311  52.701  1.00  0.00     0.217 HD
ENDBRANCH  32  33
BRANCH  32  35
HETATM   35  C21 UNL     1      49.182 -37.031  50.650  1.00  0.00     0.121 C 
BRANCH  35  36
HETATM   36  C22 UNL     1      48.033 -36.883  51.489  1.00  0.00     0.201 C 
HETATM   37  O3  UNL     1      48.087 -36.472  52.678  1.00  0.00    -0.644 OA
HETATM   38  O4  UNL     1      46.755 -37.194  51.028  1.00  0.00    -0.644 OA
ENDBRANCH  35  36
ENDBRANCH  32  35
ENDBRANCH  31  32
ENDBRANCH  30  31
ENDBRANCH   7  30
ENDBRANCH   1   6
TORSDOF 15
ENDMDL
MODEL 4
REMARK VINA RESULT: -6.195912321      4.204      9.012
REMARK  15 active torsions:
REMARK  status: ('A' for Active; 'I' for Inactive)
REMARK    1  A    between atoms: C2_2  and  C3_3 
REMARK    2  A    between atoms: C3_3  and  O1_4 
REMARK    3  A    between atoms: C3_3  and  C4_6 
REMARK    4  A    between atoms: C4_6  and  C5_7 
REMARK    5  A    between atoms: C5_7  and  C6_8 
REMARK    6  A    between atoms: C10_12  and  C11_13 
REMARK    7  A    between atoms: C15_17  and  C16_18 
REMARK    8  A    between atoms: C16_18  and  C23_29 
REMARK    9  A    between atoms: C17_19  and  C18_20 
REMARK   10  A    between atoms: C18_20  and  C19_21 
REMARK   11  A    between atoms: C19_21  and  C20_22 
REMARK   12  A    between atoms: C20_22  and  O2_23 
REMARK   13  A    between atoms: C20_22  and  C21_25 
REMARK   14  A    between atoms: C21_25  and  C22_26 
REMARK   15  A    between atoms: C27_34  and  O5_35 
ROOT
HETATM    1  C23 UNL     1      48.579 -41.786  48.278  1.00  0.00     0.070 C 
HETATM    2  C24 UNL     1      49.754 -42.222  49.079  1.00  0.00     0.036 C 
HETATM    3  C25 UNL     1      47.840 -43.079  47.928  1.00  0.00     0.036 C 
HETATM    4  C26 UNL     1      47.564 -41.130  49.165  1.00  0.00     0.073 C 
HETATM    5  N1  UNL     1      46.737 -40.618  49.835  1.00  0.00    -0.196 NA
ENDROOT
BRANCH   1   6
HETATM    6  C16 UNL     1      48.896 -40.885  47.177  1.00  0.00    -0.024 C 
HETATM    7  C17 UNL     1      49.405 -39.686  47.484  1.00  0.00     0.065 C 
BRANCH   6   8
HETATM    8  C15 UNL     1      48.710 -41.029  45.751  1.00  0.00    -0.039 C 
HETATM    9  C13 UNL     1      47.426 -40.984  45.065  1.00  0.00     0.014 C 
HETATM   10  C12 UNL     1      47.867 -41.236  43.617  1.00  0.00     0.016 C 
HETATM   11  C14 UNL     1      46.647 -39.722  45.022  1.00  0.00     0.015 C 
HETATM   12  C11 UNL     1      49.363 -40.971  43.554  1.00  0.00     0.024 C 
HETATM   13  C27 UNL     1      49.594 -40.181  44.873  1.00  0.00     0.152 C 
BRANCH  12  14
HETATM   14  C10 UNL     1      49.708 -40.173  42.326  1.00  0.00    -0.000 C 
HETATM   15  C8  UNL     1      48.528 -39.327  41.881  1.00  0.00     0.010 C 
HETATM   16  C7  UNL     1      48.411 -38.169  42.875  1.00  0.00    -0.006 C 
HETATM   17  C9  UNL     1      48.681 -38.771  40.486  1.00  0.00     0.014 C 
HETATM   18  C6  UNL     1      49.510 -37.496  43.133  1.00  0.00    -0.008 C 
HETATM   19  C29 UNL     1      50.768 -37.875  42.454  1.00  0.00     0.048 C 
HETATM   20  C28 UNL     1      50.961 -39.356  42.563  1.00  0.00     0.011 C 
BRANCH  18  21
HETATM   21  C5  UNL     1      49.518 -36.401  44.044  1.00  0.00    -0.069 C 
BRANCH  21  22
HETATM   22  C4  UNL     1      49.522 -35.455  44.782  1.00  0.00    -0.070 C 
BRANCH  22  23
HETATM   23  C3  UNL     1      49.513 -34.257  45.662  1.00  0.00     0.196 C 
BRANCH  23  24
HETATM   24  C2  UNL     1      50.734 -33.399  45.323  1.00  0.00     0.040 C 
HETATM   25  C1  UNL     1      51.291 -32.849  46.613  1.00  0.00     0.009 C 
ENDBRANCH  23  24
BRANCH  23  26
HETATM   26  O1  UNL     1      48.345 -33.587  45.397  1.00  0.00    -0.383 OA
ATOM     27  H1  UNL     1      47.763 -34.112  44.861  1.00  0.00     0.211 HD
ENDBRANCH  23  26
ENDBRANCH  22  23
ENDBRANCH  21  22
ENDBRANCH  18  21
ENDBRANCH  12  14
BRANCH  13  28
HETATM   28  O5  UNL     1      50.913 -40.270  45.183  1.00  0.00    -0.391 OA
ATOM     29  H5  UNL     1      51.166 -41.182  45.110  1.00  0.00     0.210 HD
ENDBRANCH  13  28
ENDBRANCH   6   8
BRANCH   7  30
HETATM   30  C18 UNL     1      49.770 -39.079  48.672  1.00  0.00    -0.125 C 
BRANCH  30  31
HETATM   31  C19 UNL     1      50.105 -38.525  49.748  1.00  0.00     0.092 C 
BRANCH  31  32
HETATM   32  C20 UNL     1      49.453 -37.978  50.914  1.00  0.00     0.079 C 
BRANCH  32  33
HETATM   33  O2  UNL     1      50.038 -37.743  52.105  1.00  0.00    -0.360 OA
ATOM     34  H2  UNL     1      50.948 -37.502  52.237  1.00  0.00     0.217 HD
ENDBRANCH  32  33
BRANCH  32  35
HETATM   35  C21 UNL     1      48.135 -37.656  50.837  1.00  0.00     0.121 C 
BRANCH  35  36
HETATM   36  C22 UNL     1      47.695 -36.382  51.315  1.00  0.00     0.201 C 
HETATM   37  O3  UNL     1      48.478 -35.437  51.600  1.00  0.00    -0.644 OA
HETATM   38  O4  UNL     1      46.341 -36.105  51.499  1.00  0.00    -0.644 OA
ENDBRANCH  35  36
ENDBRANCH  32  35
ENDBRANCH  31  32
ENDBRANCH  30  31
ENDBRANCH   7  30
ENDBRANCH   1   6
TORSDOF 15
ENDMDL
MODEL 5
REMARK VINA RESULT: -6.137345578      2.597      3.884
REMARK  15 active torsions:
REMARK  status: ('A' for Active; 'I' for Inactive)
REMARK    1  A    between atoms: C2_2  and  C3_3 
REMARK    2  A    between atoms: C3_3  and  O1_4 
REMARK    3  A    between atoms: C3_3  and  C4_6 
REMARK    4  A    between atoms: C4_6  and  C5_7 
REMARK    5  A    between atoms: C5_7  and  C6_8 
REMARK    6  A    between atoms: C10_12  and  C11_13 
REMARK    7  A    between atoms: C15_17  and  C16_18 
REMARK    8  A    between atoms: C16_18  and  C23_29 
REMARK    9  A    between atoms: C17_19  and  C18_20 
REMARK   10  A    between atoms: C18_20  and  C19_21 
REMARK   11  A    between atoms: C19_21  and  C20_22 
REMARK   12  A    between atoms: C20_22  and  O2_23 
REMARK   13  A    between atoms: C20_22  and  C21_25 
REMARK   14  A    between atoms: C21_25  and  C22_26 
REMARK   15  A    between atoms: C27_34  and  O5_35 
ROOT
HETATM    1  C23 UNL     1      48.148 -41.381  47.929  1.00  0.00     0.070 C 
HETATM    2  C24 UNL     1      47.367 -42.480  47.302  1.00  0.00     0.036 C 
HETATM    3  C25 UNL     1      48.107 -40.239  46.911  1.00  0.00     0.036 C 
HETATM    4  C26 UNL     1      47.366 -40.766  49.050  1.00  0.00     0.073 C 
HETATM    5  N1  UNL     1      46.775 -40.249  49.934  1.00  0.00    -0.196 NA
ENDROOT
BRANCH   1   6
HETATM    6  C16 UNL     1      49.458 -41.777  48.429  1.00  0.00    -0.024 C 
HETATM    7  C17 UNL     1      50.263 -40.813  48.891  1.00  0.00     0.065 C 
BRANCH   6   8
HETATM    8  C15 UNL     1      50.104 -43.070  48.477  1.00  0.00    -0.039 C 
HETATM    9  C13 UNL     1      49.896 -44.071  49.515  1.00  0.00     0.014 C 
HETATM   10  C12 UNL     1      50.863 -45.169  49.049  1.00  0.00     0.016 C 
HETATM   11  C14 UNL     1      48.580 -44.742  49.650  1.00  0.00     0.015 C 
HETATM   12  C11 UNL     1      51.195 -44.881  47.592  1.00  0.00     0.024 C 
HETATM   13  C27 UNL     1      50.068 -43.882  47.208  1.00  0.00     0.152 C 
BRANCH  12  14
HETATM   14  C10 UNL     1      51.156 -46.147  46.781  1.00  0.00    -0.000 C 
HETATM   15  C8  UNL     1      51.730 -47.312  47.568  1.00  0.00     0.010 C 
HETATM   16  C7  UNL     1      50.689 -47.691  48.625  1.00  0.00    -0.006 C 
HETATM   17  C9  UNL     1      52.034 -48.521  46.716  1.00  0.00     0.014 C 
HETATM   18  C6  UNL     1      49.454 -47.859  48.207  1.00  0.00    -0.008 C 
HETATM   19  C29 UNL     1      49.146 -47.691  46.770  1.00  0.00     0.048 C 
HETATM   20  C28 UNL     1      49.751 -46.411  46.282  1.00  0.00     0.011 C 
BRANCH  18  21
HETATM   21  C5  UNL     1      48.404 -48.208  49.103  1.00  0.00    -0.069 C 
BRANCH  21  22
HETATM   22  C4  UNL     1      47.532 -48.476  49.883  1.00  0.00    -0.070 C 
BRANCH  22  23
HETATM   23  C3  UNL     1      46.425 -48.818  50.814  1.00  0.00     0.196 C 
BRANCH  23  24
HETATM   24  C2  UNL     1      46.732 -48.196  52.179  1.00  0.00     0.040 C 
HETATM   25  C1  UNL     1      46.372 -46.733  52.117  1.00  0.00     0.009 C 
ENDBRANCH  23  24
BRANCH  23  26
HETATM   26  O1  UNL     1      45.282 -48.287  50.273  1.00  0.00    -0.383 OA
ATOM     27  H1  UNL     1      44.625 -48.130  50.941  1.00  0.00     0.211 HD
ENDBRANCH  23  26
ENDBRANCH  22  23
ENDBRANCH  21  22
ENDBRANCH  18  21
ENDBRANCH  12  14
BRANCH  13  28
HETATM   28  O5  UNL     1      50.480 -43.195  46.112  1.00  0.00    -0.391 OA
ATOM     29  H5  UNL     1      49.899 -43.419  45.395  1.00  0.00     0.210 HD
ENDBRANCH  13  28
ENDBRANCH   6   8
BRANCH   7  30
HETATM   30  C18 UNL     1      50.118 -39.448  49.062  1.00  0.00    -0.125 C 
BRANCH  30  31
HETATM   31  C19 UNL     1      49.983 -38.209  49.212  1.00  0.00     0.092 C 
BRANCH  31  32
HETATM   32  C20 UNL     1      48.956 -37.293  49.647  1.00  0.00     0.079 C 
BRANCH  32  33
HETATM   33  O2  UNL     1      48.271 -36.445  48.853  1.00  0.00    -0.360 OA
ATOM     34  H2  UNL     1      47.438 -36.039  49.064  1.00  0.00     0.217 HD
ENDBRANCH  32  33
BRANCH  32  35
HETATM   35  C21 UNL     1      48.621 -37.261  50.963  1.00  0.00     0.121 C 
BRANCH  35  36
HETATM   36  C22 UNL     1      47.588 -36.375  51.403  1.00  0.00     0.201 C 
HETATM   37  O3  UNL     1      46.386 -36.470  51.038  1.00  0.00    -0.644 OA
HETATM   38  O4  UNL     1      47.858 -35.328  52.283  1.00  0.00    -0.644 OA
ENDBRANCH  35  36
ENDBRANCH  32  35
ENDBRANCH  31  32
ENDBRANCH  30  31
ENDBRANCH   7  30
ENDBRANCH   1   6
TORSDOF 15
ENDMDL
