MODEL 1
REMARK VINA RESULT: -8.602400096      0.000      0.000
REMARK  10 active torsions:
REMARK  status: ('A' for Active; 'I' for Inactive)
REMARK    1  A    between atoms: C4_4  and  O1_5 
REMARK    2  A    between atoms: C18_21  and  O3_22 
REMARK    3  A    between atoms: C20_25  and  C21_26 
REMARK    4  A    between atoms: C21_26  and  C22_27 
REMARK    5  A    between atoms: C22_27  and  C23_28 
REMARK    6  A    between atoms: C23_28  and  C24_29 
REMARK    7  A    between atoms: C24_29  and  C25_30 
REMARK    8  A    between atoms: C25_30  and  O4_31 
REMARK    9  A    between atoms: C25_30  and  C26_33 
REMARK   10  A    between atoms: C26_33  and  O5_34 
ROOT
HETATM    1  C1  UNL     1      51.274 -47.924  50.326  1.00  0.00     0.018 C 
HETATM    2  C2  UNL     1      50.705 -47.522  48.945  1.00  0.00    -0.015 C 
HETATM    3  C3  UNL     1      50.754 -48.755  48.139  1.00  0.00     0.018 C 
HETATM    4  C4  UNL     1      51.690 -46.474  48.402  1.00  0.00     0.150 C 
HETATM    5  C5  UNL     1      51.608 -45.139  49.028  1.00  0.00     0.201 C 
HETATM    6  O2  UNL     1      50.817 -44.192  48.741  1.00  0.00    -0.377 OA
HETATM    7  C6  UNL     1      49.653 -43.927  48.240  1.00  0.00     0.069 C 
HETATM    8  C7  UNL     1      49.505 -44.552  46.866  1.00  0.00     0.040 C 
HETATM    9  C8  UNL     1      48.933 -45.923  46.878  1.00  0.00     0.013 C 
HETATM   10  C9  UNL     1      48.512 -46.474  48.161  1.00  0.00    -0.032 C 
HETATM   11  C10 UNL     1      47.476 -47.572  47.860  1.00  0.00     0.016 C 
HETATM   12  C11 UNL     1      49.461 -46.859  49.198  1.00  0.00     0.005 C 
HETATM   13  C12 UNL     1      48.465 -47.482  50.193  1.00  0.00     0.007 C 
HETATM   14  C13 UNL     1      47.557 -46.236  50.285  1.00  0.00     0.011 C 
HETATM   15  C14 UNL     1      47.742 -45.446  49.018  1.00  0.00    -0.030 C 
HETATM   16  C15 UNL     1      46.343 -45.371  48.379  1.00  0.00     0.016 C 
HETATM   17  C16 UNL     1      48.415 -44.139  49.097  1.00  0.00     0.032 C 
HETATM   18  C17 UNL     1      48.711 -43.588  50.451  1.00  0.00     0.040 C 
HETATM   19  C18 UNL     1      48.817 -42.062  50.323  1.00  0.00     0.123 C 
HETATM   20  C19 UNL     1      49.619 -41.581  49.192  1.00  0.00     0.025 C 
HETATM   21  C20 UNL     1      49.007 -40.265  48.731  1.00  0.00    -0.008 C 
HETATM   22  C27 UNL     1      48.561 -40.424  47.322  1.00  0.00     0.005 C 
HETATM   23  C28 UNL     1      48.702 -41.906  46.996  1.00  0.00     0.008 C 
HETATM   24  C29 UNL     1      49.691 -42.416  47.966  1.00  0.00     0.027 C 
ENDROOT
BRANCH  21  25
HETATM   25  C21 UNL     1      49.954 -39.103  48.915  1.00  0.00     0.005 C 
BRANCH  25  26
HETATM   26  C22 UNL     1      49.139 -37.946  49.441  1.00  0.00     0.000 C 
BRANCH  26  27
HETATM   27  C23 UNL     1      48.650 -38.188  50.849  1.00  0.00     0.002 C 
BRANCH  27  28
HETATM   28  C24 UNL     1      48.048 -36.979  51.481  1.00  0.00     0.034 C 
BRANCH  28  29
HETATM   29  C25 UNL     1      46.878 -36.418  50.719  1.00  0.00     0.141 C 
BRANCH  29  30
HETATM   30  O4  UNL     1      45.961 -37.481  50.559  1.00  0.00    -0.393 OA
ATOM     31  H4  UNL     1      45.419 -37.486  51.339  1.00  0.00     0.210 HD
ENDBRANCH  29  30
BRANCH  29  32
HETATM   32  C26 UNL     1      46.158 -35.336  51.472  1.00  0.00     0.195 C 
BRANCH  32  33
HETATM   33  O5  UNL     1      44.764 -35.527  51.378  1.00  0.00    -0.398 OA
ATOM     34  H5  UNL     1      44.388 -35.616  52.246  1.00  0.00     0.209 HD
ENDBRANCH  32  33
ENDBRANCH  29  32
ENDBRANCH  28  29
ENDBRANCH  27  28
ENDBRANCH  26  27
ENDBRANCH  25  26
ENDBRANCH  21  25
BRANCH  19  35
HETATM   35  O3  UNL     1      49.378 -41.609  51.526  1.00  0.00    -0.395 OA
ATOM     36  H3  UNL     1      50.248 -41.296  51.309  1.00  0.00     0.210 HD
ENDBRANCH  19  35
BRANCH   4  37
HETATM   37  O1  UNL     1      52.952 -47.032  48.764  1.00  0.00    -0.393 OA
ATOM     38  H1  UNL     1      53.081 -46.684  49.638  1.00  0.00     0.210 HD
ENDBRANCH   4  37
TORSDOF 10
ENDMDL
MODEL 2
REMARK VINA RESULT: -8.444905418      2.521      3.829
REMARK  10 active torsions:
REMARK  status: ('A' for Active; 'I' for Inactive)
REMARK    1  A    between atoms: C4_4  and  O1_5 
REMARK    2  A    between atoms: C18_21  and  O3_22 
REMARK    3  A    between atoms: C20_25  and  C21_26 
REMARK    4  A    between atoms: C21_26  and  C22_27 
REMARK    5  A    between atoms: C22_27  and  C23_28 
REMARK    6  A    between atoms: C23_28  and  C24_29 
REMARK    7  A    between atoms: C24_29  and  C25_30 
REMARK    8  A    between atoms: C25_30  and  O4_31 
REMARK    9  A    between atoms: C25_30  and  C26_33 
REMARK   10  A    between atoms: C26_33  and  O5_34 
ROOT
HETATM    1  C1  UNL     1      48.461 -45.722  46.262  1.00  0.00     0.018 C 
HETATM    2  C2  UNL     1      49.018 -44.513  45.474  1.00  0.00    -0.015 C 
HETATM    3  C3  UNL     1      49.289 -45.031  44.121  1.00  0.00     0.018 C 
HETATM    4  C4  UNL     1      50.327 -44.143  46.190  1.00  0.00     0.150 C 
HETATM    5  C5  UNL     1      50.170 -43.457  47.488  1.00  0.00     0.201 C 
HETATM    6  O2  UNL     1      49.987 -42.221  47.699  1.00  0.00    -0.377 OA
HETATM    7  C6  UNL     1      49.514 -41.137  47.173  1.00  0.00     0.069 C 
HETATM    8  C7  UNL     1      50.142 -40.880  45.816  1.00  0.00     0.040 C 
HETATM    9  C8  UNL     1      49.402 -41.482  44.678  1.00  0.00     0.013 C 
HETATM   10  C9  UNL     1      48.148 -42.166  44.966  1.00  0.00    -0.032 C 
HETATM   11  C10 UNL     1      47.329 -42.174  43.662  1.00  0.00     0.016 C 
HETATM   12  C11 UNL     1      48.093 -43.438  45.676  1.00  0.00     0.005 C 
HETATM   13  C12 UNL     1      46.583 -43.708  45.538  1.00  0.00     0.007 C 
HETATM   14  C13 UNL     1      46.142 -42.363  46.157  1.00  0.00     0.011 C 
HETATM   15  C14 UNL     1      47.268 -41.384  45.965  1.00  0.00    -0.030 C 
HETATM   16  C15 UNL     1      46.666 -40.231  45.140  1.00  0.00     0.016 C 
HETATM   17  C16 UNL     1      48.009 -40.924  47.152  1.00  0.00     0.032 C 
HETATM   18  C17 UNL     1      47.486 -41.311  48.494  1.00  0.00     0.040 C 
HETATM   19  C18 UNL     1      47.992 -40.277  49.509  1.00  0.00     0.123 C 
HETATM   20  C19 UNL     1      49.413 -39.932  49.397  1.00  0.00     0.025 C 
HETATM   21  C20 UNL     1      49.558 -38.474  49.814  1.00  0.00    -0.008 C 
HETATM   22  C27 UNL     1      50.097 -37.708  48.659  1.00  0.00     0.005 C 
HETATM   23  C28 UNL     1      50.071 -38.660  47.468  1.00  0.00     0.008 C 
HETATM   24  C29 UNL     1      50.061 -40.011  48.062  1.00  0.00     0.027 C 
ENDROOT
BRANCH  21  25
HETATM   25  C21 UNL     1      50.400 -38.321  51.058  1.00  0.00     0.005 C 
BRANCH  25  26
HETATM   26  C22 UNL     1      49.827 -37.164  51.841  1.00  0.00     0.000 C 
BRANCH  26  27
HETATM   27  C23 UNL     1      48.317 -37.148  51.810  1.00  0.00     0.002 C 
BRANCH  27  28
HETATM   28  C24 UNL     1      47.746 -35.801  51.520  1.00  0.00     0.034 C 
BRANCH  28  29
HETATM   29  C25 UNL     1      46.372 -35.848  50.910  1.00  0.00     0.141 C 
BRANCH  29  30
HETATM   30  O4  UNL     1      46.080 -37.213  50.691  1.00  0.00    -0.393 OA
ATOM     31  H4  UNL     1      45.300 -37.404  51.197  1.00  0.00     0.210 HD
ENDBRANCH  29  30
BRANCH  29  32
HETATM   32  C26 UNL     1      45.308 -35.321  51.831  1.00  0.00     0.195 C 
BRANCH  32  33
HETATM   33  O5  UNL     1      44.156 -34.981  51.093  1.00  0.00    -0.398 OA
ATOM     34  H5  UNL     1      43.955 -34.060  51.209  1.00  0.00     0.209 HD
ENDBRANCH  32  33
ENDBRANCH  29  32
ENDBRANCH  28  29
ENDBRANCH  27  28
ENDBRANCH  26  27
ENDBRANCH  25  26
ENDBRANCH  21  25
BRANCH  19  35
HETATM   35  O3  UNL     1      47.738 -40.821  50.777  1.00  0.00    -0.395 OA
ATOM     36  H3  UNL     1      47.825 -40.104  51.393  1.00  0.00     0.210 HD
ENDBRANCH  19  35
BRANCH   4  37
HETATM   37  O1  UNL     1      50.895 -45.424  46.457  1.00  0.00    -0.393 OA
ATOM     38  H1  UNL     1      51.657 -45.200  46.978  1.00  0.00     0.210 HD
ENDBRANCH   4  37
TORSDOF 10
ENDMDL
MODEL 3
REMARK VINA RESULT: -8.193409851      0.815      1.062
REMARK  10 active torsions:
REMARK  status: ('A' for Active; 'I' for Inactive)
REMARK    1  A    between atoms: C4_4  and  O1_5 
REMARK    2  A    between atoms: C18_21  and  O3_22 
REMARK    3  A    between atoms: C20_25  and  C21_26 
REMARK    4  A    between atoms: C21_26  and  C22_27 
REMARK    5  A    between atoms: C22_27  and  C23_28 
REMARK    6  A    between atoms: C23_28  and  C24_29 
REMARK    7  A    between atoms: C24_29  and  C25_30 
REMARK    8  A    between atoms: C25_30  and  O4_31 
REMARK    9  A    between atoms: C25_30  and  C26_33 
REMARK   10  A    between atoms: C26_33  and  O5_34 
ROOT
HETATM    1  C1  UNL     1      51.322 -47.906  50.340  1.00  0.00     0.018 C 
HETATM    2  C2  UNL     1      50.740 -47.522  48.959  1.00  0.00    -0.015 C 
HETATM    3  C3  UNL     1      50.783 -48.764  48.168  1.00  0.00     0.018 C 
HETATM    4  C4  UNL     1      51.718 -46.480  48.394  1.00  0.00     0.150 C 
HETATM    5  C5  UNL     1      51.640 -45.137  49.005  1.00  0.00     0.201 C 
HETATM    6  O2  UNL     1      50.844 -44.194  48.714  1.00  0.00    -0.377 OA
HETATM    7  C6  UNL     1      49.676 -43.937  48.219  1.00  0.00     0.069 C 
HETATM    8  C7  UNL     1      49.517 -44.580  46.855  1.00  0.00     0.040 C 
HETATM    9  C8  UNL     1      48.947 -45.951  46.889  1.00  0.00     0.013 C 
HETATM   10  C9  UNL     1      48.539 -46.487  48.182  1.00  0.00    -0.032 C 
HETATM   11  C10 UNL     1      47.501 -47.590  47.904  1.00  0.00     0.016 C 
HETATM   12  C11 UNL     1      49.497 -46.858  49.216  1.00  0.00     0.005 C 
HETATM   13  C12 UNL     1      48.511 -47.470  50.227  1.00  0.00     0.007 C 
HETATM   14  C13 UNL     1      47.602 -46.224  50.311  1.00  0.00     0.011 C 
HETATM   15  C14 UNL     1      47.775 -45.450  49.033  1.00  0.00    -0.030 C 
HETATM   16  C15 UNL     1      46.369 -45.385  48.406  1.00  0.00     0.016 C 
HETATM   17  C16 UNL     1      48.446 -44.140  49.090  1.00  0.00     0.032 C 
HETATM   18  C17 UNL     1      48.754 -43.572  50.435  1.00  0.00     0.040 C 
HETATM   19  C18 UNL     1      48.855 -42.048  50.287  1.00  0.00     0.123 C 
HETATM   20  C19 UNL     1      49.647 -41.580  49.143  1.00  0.00     0.025 C 
HETATM   21  C20 UNL     1      49.029 -40.270  48.672  1.00  0.00    -0.008 C 
HETATM   22  C27 UNL     1      48.571 -40.447  47.268  1.00  0.00     0.005 C 
HETATM   23  C28 UNL     1      48.711 -41.933  46.959  1.00  0.00     0.008 C 
HETATM   24  C29 UNL     1      49.709 -42.430  47.927  1.00  0.00     0.027 C 
ENDROOT
BRANCH  21  25
HETATM   25  C21 UNL     1      49.976 -39.105  48.833  1.00  0.00     0.005 C 
BRANCH  25  26
HETATM   26  C22 UNL     1      49.620 -38.095  47.769  1.00  0.00     0.000 C 
BRANCH  26  27
HETATM   27  C23 UNL     1      48.896 -36.899  48.339  1.00  0.00     0.002 C 
BRANCH  27  28
HETATM   28  C24 UNL     1      48.971 -36.816  49.826  1.00  0.00     0.034 C 
BRANCH  28  29
HETATM   29  C25 UNL     1      47.631 -36.648  50.489  1.00  0.00     0.141 C 
BRANCH  29  30
HETATM   30  O4  UNL     1      47.040 -37.931  50.521  1.00  0.00    -0.393 OA
ATOM     31  H4  UNL     1      46.564 -37.985  51.342  1.00  0.00     0.210 HD
ENDBRANCH  29  30
BRANCH  29  32
HETATM   32  C26 UNL     1      47.741 -36.186  51.915  1.00  0.00     0.195 C 
BRANCH  32  33
HETATM   33  O5  UNL     1      48.498 -37.109  52.664  1.00  0.00    -0.398 OA
ATOM     34  H5  UNL     1      48.005 -37.912  52.786  1.00  0.00     0.209 HD
ENDBRANCH  32  33
ENDBRANCH  29  32
ENDBRANCH  28  29
ENDBRANCH  27  28
ENDBRANCH  26  27
ENDBRANCH  25  26
ENDBRANCH  21  25
BRANCH  19  35
HETATM   35  O3  UNL     1      49.427 -41.579  51.479  1.00  0.00    -0.395 OA
ATOM     36  H3  UNL     1      49.553 -42.344  52.028  1.00  0.00     0.210 HD
ENDBRANCH  19  35
BRANCH   4  37
HETATM   37  O1  UNL     1      52.984 -47.031  48.752  1.00  0.00    -0.393 OA
ATOM     38  H1  UNL     1      52.795 -47.961  48.787  1.00  0.00     0.210 HD
ENDBRANCH   4  37
TORSDOF 10
ENDMDL
MODEL 4
REMARK VINA RESULT: -8.061101167      0.970      1.197
REMARK  10 active torsions:
REMARK  status: ('A' for Active; 'I' for Inactive)
REMARK    1  A    between atoms: C4_4  and  O1_5 
REMARK    2  A    between atoms: C18_21  and  O3_22 
REMARK    3  A    between atoms: C20_25  and  C21_26 
REMARK    4  A    between atoms: C21_26  and  C22_27 
REMARK    5  A    between atoms: C22_27  and  C23_28 
REMARK    6  A    between atoms: C23_28  and  C24_29 
REMARK    7  A    between atoms: C24_29  and  C25_30 
REMARK    8  A    between atoms: C25_30  and  O4_31 
REMARK    9  A    between atoms: C25_30  and  C26_33 
REMARK   10  A    between atoms: C26_33  and  O5_34 
ROOT
HETATM    1  C1  UNL     1      50.067 -47.761  49.688  1.00  0.00     0.018 C 
HETATM    2  C2  UNL     1      50.109 -46.969  48.359  1.00  0.00    -0.015 C 
HETATM    3  C3  UNL     1      50.402 -47.975  47.324  1.00  0.00     0.018 C 
HETATM    4  C4  UNL     1      51.283 -45.990  48.519  1.00  0.00     0.150 C 
HETATM    5  C5  UNL     1      51.034 -44.838  49.410  1.00  0.00     0.201 C 
HETATM    6  O2  UNL     1      50.471 -43.739  49.123  1.00  0.00    -0.377 OA
HETATM    7  C6  UNL     1      49.614 -43.189  48.325  1.00  0.00     0.069 C 
HETATM    8  C7  UNL     1      49.983 -43.452  46.877  1.00  0.00     0.040 C 
HETATM    9  C8  UNL     1      49.379 -44.683  46.308  1.00  0.00     0.013 C 
HETATM   10  C9  UNL     1      48.459 -45.442  47.147  1.00  0.00    -0.032 C 
HETATM   11  C10 UNL     1      47.566 -46.268  46.203  1.00  0.00     0.016 C 
HETATM   12  C11 UNL     1      48.902 -46.198  48.312  1.00  0.00     0.005 C 
HETATM   13  C12 UNL     1      47.563 -46.870  48.666  1.00  0.00     0.007 C 
HETATM   14  C13 UNL     1      46.762 -45.553  48.756  1.00  0.00     0.011 C 
HETATM   15  C14 UNL     1      47.472 -44.532  47.909  1.00  0.00    -0.030 C 
HETATM   16  C15 UNL     1      46.441 -44.097  46.850  1.00  0.00     0.016 C 
HETATM   17  C16 UNL     1      48.129 -43.398  48.580  1.00  0.00     0.032 C 
HETATM   18  C17 UNL     1      47.900 -43.225  50.043  1.00  0.00     0.040 C 
HETATM   19  C18 UNL     1      48.130 -41.746  50.382  1.00  0.00     0.123 C 
HETATM   20  C19 UNL     1      49.336 -41.149  49.798  1.00  0.00     0.025 C 
HETATM   21  C20 UNL     1      49.027 -39.683  49.522  1.00  0.00    -0.008 C 
HETATM   22  C27 UNL     1      49.162 -39.443  48.060  1.00  0.00     0.005 C 
HETATM   23  C28 UNL     1      49.338 -40.815  47.419  1.00  0.00     0.008 C 
HETATM   24  C29 UNL     1      49.838 -41.681  48.505  1.00  0.00     0.027 C 
ENDROOT
BRANCH  21  25
HETATM   25  C21 UNL     1      49.887 -38.757  50.346  1.00  0.00     0.005 C 
BRANCH  25  26
HETATM   26  C22 UNL     1      49.365 -37.356  50.128  1.00  0.00     0.000 C 
BRANCH  26  27
HETATM   27  C23 UNL     1      49.239 -36.588  51.422  1.00  0.00     0.002 C 
BRANCH  27  28
HETATM   28  C24 UNL     1      47.846 -36.552  51.954  1.00  0.00     0.034 C 
BRANCH  28  29
HETATM   29  C25 UNL     1      46.824 -36.120  50.939  1.00  0.00     0.141 C 
BRANCH  29  30
HETATM   30  O4  UNL     1      46.031 -37.257  50.665  1.00  0.00    -0.393 OA
ATOM     31  H4  UNL     1      46.275 -37.914  51.305  1.00  0.00     0.210 HD
ENDBRANCH  29  30
BRANCH  29  32
HETATM   32  C26 UNL     1      45.894 -35.061  51.463  1.00  0.00     0.195 C 
BRANCH  32  33
HETATM   33  O5  UNL     1      44.563 -35.522  51.418  1.00  0.00    -0.398 OA
ATOM     34  H5  UNL     1      44.546 -36.471  51.460  1.00  0.00     0.209 HD
ENDBRANCH  32  33
ENDBRANCH  29  32
ENDBRANCH  28  29
ENDBRANCH  27  28
ENDBRANCH  26  27
ENDBRANCH  25  26
ENDBRANCH  21  25
BRANCH  19  35
HETATM   35  O3  UNL     1      48.198 -41.674  51.781  1.00  0.00    -0.395 OA
ATOM     36  H3  UNL     1      47.682 -42.401  52.107  1.00  0.00     0.210 HD
ENDBRANCH  19  35
BRANCH   4  37
HETATM   37  O1  UNL     1      52.269 -46.804  49.150  1.00  0.00    -0.393 OA
ATOM     38  H1  UNL     1      51.817 -47.096  49.932  1.00  0.00     0.210 HD
ENDBRANCH   4  37
TORSDOF 10
ENDMDL
MODEL 5
REMARK VINA RESULT: -7.534886281      2.233      2.598
REMARK  10 active torsions:
REMARK  status: ('A' for Active; 'I' for Inactive)
REMARK    1  A    between atoms: C4_4  and  O1_5 
REMARK    2  A    between atoms: C18_21  and  O3_22 
REMARK    3  A    between atoms: C20_25  and  C21_26 
REMARK    4  A    between atoms: C21_26  and  C22_27 
REMARK    5  A    between atoms: C22_27  and  C23_28 
REMARK    6  A    between atoms: C23_28  and  C24_29 
REMARK    7  A    between atoms: C24_29  and  C25_30 
REMARK    8  A    between atoms: C25_30  and  O4_31 
REMARK    9  A    between atoms: C25_30  and  C26_33 
REMARK   10  A    between atoms: C26_33  and  O5_34 
ROOT
HETATM    1  C1  UNL     1      51.492 -47.986  50.173  1.00  0.00     0.018 C 
HETATM    2  C2  UNL     1      50.860 -47.574  48.822  1.00  0.00    -0.015 C 
HETATM    3  C3  UNL     1      50.932 -48.783  47.983  1.00  0.00     0.018 C 
HETATM    4  C4  UNL     1      51.781 -46.472  48.275  1.00  0.00     0.150 C 
HETATM    5  C5  UNL     1      51.664 -45.158  48.939  1.00  0.00     0.201 C 
HETATM    6  O2  UNL     1      50.825 -44.238  48.704  1.00  0.00    -0.377 OA
HETATM    7  C6  UNL     1      49.635 -44.010  48.248  1.00  0.00     0.069 C 
HETATM    8  C7  UNL     1      49.466 -44.607  46.864  1.00  0.00     0.040 C 
HETATM    9  C8  UNL     1      48.953 -46.001  46.859  1.00  0.00     0.013 C 
HETATM   10  C9  UNL     1      48.599 -46.601  48.140  1.00  0.00    -0.032 C 
HETATM   11  C10 UNL     1      47.600 -47.735  47.845  1.00  0.00     0.016 C 
HETATM   12  C11 UNL     1      49.598 -46.972  49.135  1.00  0.00     0.005 C 
HETATM   13  C12 UNL     1      48.664 -47.661  50.145  1.00  0.00     0.007 C 
HETATM   14  C13 UNL     1      47.709 -46.457  50.300  1.00  0.00     0.011 C 
HETATM   15  C14 UNL     1      47.817 -45.629  49.049  1.00  0.00    -0.030 C 
HETATM   16  C15 UNL     1      46.394 -45.598  48.459  1.00  0.00     0.016 C 
HETATM   17  C16 UNL     1      48.437 -44.296  49.140  1.00  0.00     0.032 C 
HETATM   18  C17 UNL     1      48.756 -43.768  50.498  1.00  0.00     0.040 C 
HETATM   19  C18 UNL     1      48.793 -42.236  50.407  1.00  0.00     0.123 C 
HETATM   20  C19 UNL     1      49.536 -41.693  49.263  1.00  0.00     0.025 C 
HETATM   21  C20 UNL     1      48.854 -40.393  48.858  1.00  0.00    -0.008 C 
HETATM   22  C27 UNL     1      48.367 -40.535  47.460  1.00  0.00     0.005 C 
HETATM   23  C28 UNL     1      48.558 -42.002  47.091  1.00  0.00     0.008 C 
HETATM   24  C29 UNL     1      49.600 -42.493  48.014  1.00  0.00     0.027 C 
ENDROOT
BRANCH  21  25
HETATM   25  C21 UNL     1      49.757 -39.197  49.042  1.00  0.00     0.005 C 
BRANCH  25  26
HETATM   26  C22 UNL     1      49.865 -38.514  47.699  1.00  0.00     0.000 C 
BRANCH  26  27
HETATM   27  C23 UNL     1      49.546 -37.040  47.783  1.00  0.00     0.002 C 
BRANCH  27  28
HETATM   28  C24 UNL     1      49.096 -36.458  46.486  1.00  0.00     0.034 C 
BRANCH  28  29
HETATM   29  C25 UNL     1      49.706 -35.118  46.182  1.00  0.00     0.141 C 
BRANCH  29  30
HETATM   30  O4  UNL     1      51.062 -35.360  45.868  1.00  0.00    -0.393 OA
ATOM     31  H4  UNL     1      51.269 -34.799  45.130  1.00  0.00     0.210 HD
ENDBRANCH  29  30
BRANCH  29  32
HETATM   32  C26 UNL     1      49.094 -34.458  44.979  1.00  0.00     0.195 C 
BRANCH  32  33
HETATM   33  O5  UNL     1      48.229 -33.422  45.384  1.00  0.00    -0.398 OA
ATOM     34  H5  UNL     1      47.424 -33.787  45.732  1.00  0.00     0.209 HD
ENDBRANCH  32  33
ENDBRANCH  29  32
ENDBRANCH  28  29
ENDBRANCH  27  28
ENDBRANCH  26  27
ENDBRANCH  25  26
ENDBRANCH  21  25
BRANCH  19  35
HETATM   35  O3  UNL     1      49.376 -41.790  51.602  1.00  0.00    -0.395 OA
ATOM     36  H3  UNL     1      48.955 -40.963  51.807  1.00  0.00     0.210 HD
ENDBRANCH  19  35
BRANCH   4  37
HETATM   37  O1  UNL     1      53.077 -46.985  48.580  1.00  0.00    -0.393 OA
ATOM     38  H1  UNL     1      53.427 -47.168  47.716  1.00  0.00     0.210 HD
ENDBRANCH   4  37
TORSDOF 10
ENDMDL
