MODEL 1
REMARK VINA RESULT: -7.502278874      0.000      0.000
REMARK  10 active torsions:
REMARK  status: ('A' for Active; 'I' for Inactive)
REMARK    1  A    between atoms: C2_2  and  C4_4 
REMARK    2  A    between atoms: C4_4  and  C5_5 
REMARK    3  A    between atoms: C5_5  and  C6_6 
REMARK    4  A    between atoms: C10_10  and  O1_11 
REMARK    5  A    between atoms: C12_14  and  O2_15 
REMARK    6  A    between atoms: C13_17  and  O3_18 
REMARK    7  A    between atoms: C16_22  and  C18_24 
REMARK    8  A    between atoms: C18_24  and  O4_25 
REMARK    9  A    between atoms: O4_25  and  C19_26 
REMARK   10  A    between atoms: C26_33  and  O5_34 
ROOT
HETATM    1  C6  UNL     1      49.408 -46.531  50.240  1.00  0.00    -0.068 C 
HETATM    2  C7  UNL     1      49.656 -47.624  51.230  1.00  0.00     0.014 C 
HETATM    3  C8  UNL     1      51.023 -48.278  51.068  1.00  0.00     0.015 C 
HETATM    4  C9  UNL     1      48.651 -48.727  51.208  1.00  0.00     0.047 C 
HETATM    5  C10 UNL     1      47.299 -48.172  51.235  1.00  0.00     0.072 C 
HETATM    6  C11 UNL     1      46.481 -48.817  50.130  1.00  0.00     0.073 C 
HETATM    7  C12 UNL     1      45.273 -47.931  49.987  1.00  0.00     0.150 C 
HETATM    8  C13 UNL     1      45.625 -46.680  50.719  1.00  0.00     0.159 C 
HETATM    9  C14 UNL     1      47.079 -46.700  51.128  1.00  0.00     0.029 C 
HETATM   10  C15 UNL     1      47.045 -46.172  52.570  1.00  0.00     0.022 C 
HETATM   11  C16 UNL     1      48.031 -45.914  50.269  1.00  0.00     0.014 C 
HETATM   12  C17 UNL     1      47.463 -45.677  48.887  1.00  0.00     0.023 C 
ENDROOT
BRANCH  11  13
HETATM   13  C18 UNL     1      48.133 -44.529  50.901  1.00  0.00     0.182 C 
BRANCH  13  14
HETATM   14  O4  UNL     1      49.017 -43.651  50.578  1.00  0.00    -0.382 OA
BRANCH  14  15
HETATM   15  C19 UNL     1      49.105 -42.551  49.906  1.00  0.00     0.151 C 
HETATM   16  C20 UNL     1      48.089 -42.497  48.714  1.00  0.00     0.038 C 
HETATM   17  C21 UNL     1      48.694 -41.924  47.482  1.00  0.00    -0.016 C 
HETATM   18  C22 UNL     1      49.830 -42.810  47.019  1.00  0.00     0.010 C 
HETATM   19  C23 UNL     1      49.099 -40.479  47.556  1.00  0.00     0.010 C 
HETATM   20  C24 UNL     1      48.555 -39.846  48.766  1.00  0.00     0.001 A 
HETATM   21  C25 UNL     1      49.569 -40.185  49.905  1.00  0.00     0.030 A 
HETATM   22  C27 UNL     1      49.148 -38.845  49.621  1.00  0.00    -0.037 A 
HETATM   23  C26 UNL     1      48.900 -41.243  50.700  1.00  0.00     0.152 C 
HETATM   24  C28 UNL     1      48.270 -38.146  50.638  1.00  0.00     0.015 C 
HETATM   25  C29 UNL     1      50.156 -37.903  48.988  1.00  0.00     0.015 C 
BRANCH  23  26
HETATM   26  O5  UNL     1      47.532 -40.929  50.748  1.00  0.00    -0.393 OA
ATOM     27  H5  UNL     1      47.235 -40.934  51.650  1.00  0.00     0.210 HD
ENDBRANCH  23  26
ENDBRANCH  14  15
ENDBRANCH  13  14
ENDBRANCH  11  13
BRANCH   1  28
HETATM   28  C5  UNL     1      50.042 -46.720  48.916  1.00  0.00    -0.018 C 
BRANCH  28  29
HETATM   29  C4  UNL     1      51.137 -45.917  48.414  1.00  0.00     0.060 C 
BRANCH  29  30
HETATM   30  C2  UNL     1      52.250 -46.807  47.900  1.00  0.00    -0.090 C 
HETATM   31  C1  UNL     1      53.526 -46.562  48.054  1.00  0.00     0.014 C 
HETATM   32  C3  UNL     1      51.840 -48.058  47.155  1.00  0.00     0.043 C 
ENDBRANCH  29  30
ENDBRANCH  28  29
ENDBRANCH   1  28
BRANCH   5  33
HETATM   33  O1  UNL     1      46.695 -48.672  52.432  1.00  0.00    -0.389 OA
ATOM     34  H1  UNL     1      46.863 -49.607  52.436  1.00  0.00     0.210 HD
ENDBRANCH   5  33
BRANCH   8  35
HETATM   35  O3  UNL     1      45.097 -45.550  50.207  1.00  0.00    -0.392 OA
ATOM     36  H3  UNL     1      45.173 -44.782  50.761  1.00  0.00     0.210 HD
ENDBRANCH   8  35
BRANCH   7  37
HETATM   37  O2  UNL     1      44.156 -48.612  50.542  1.00  0.00    -0.393 OA
ATOM     38  H2  UNL     1      43.514 -48.737  49.853  1.00  0.00     0.210 HD
ENDBRANCH   7  37
TORSDOF 10
ENDMDL
MODEL 2
REMARK VINA RESULT: -7.403195567      1.680      2.994
REMARK  10 active torsions:
REMARK  status: ('A' for Active; 'I' for Inactive)
REMARK    1  A    between atoms: C2_2  and  C4_4 
REMARK    2  A    between atoms: C4_4  and  C5_5 
REMARK    3  A    between atoms: C5_5  and  C6_6 
REMARK    4  A    between atoms: C10_10  and  O1_11 
REMARK    5  A    between atoms: C12_14  and  O2_15 
REMARK    6  A    between atoms: C13_17  and  O3_18 
REMARK    7  A    between atoms: C16_22  and  C18_24 
REMARK    8  A    between atoms: C18_24  and  O4_25 
REMARK    9  A    between atoms: O4_25  and  C19_26 
REMARK   10  A    between atoms: C26_33  and  O5_34 
ROOT
HETATM    1  C6  UNL     1      48.510 -45.512  48.707  1.00  0.00    -0.068 C 
HETATM    2  C7  UNL     1      49.901 -45.811  49.169  1.00  0.00     0.014 C 
HETATM    3  C8  UNL     1      50.895 -45.946  48.022  1.00  0.00     0.015 C 
HETATM    4  C9  UNL     1      50.033 -47.046  49.996  1.00  0.00     0.047 C 
HETATM    5  C10 UNL     1      49.022 -47.050  51.053  1.00  0.00     0.072 C 
HETATM    6  C11 UNL     1      48.312 -48.392  51.047  1.00  0.00     0.073 C 
HETATM    7  C12 UNL     1      47.073 -48.167  51.871  1.00  0.00     0.150 C 
HETATM    8  C13 UNL     1      46.953 -46.685  51.988  1.00  0.00     0.159 C 
HETATM    9  C14 UNL     1      47.961 -46.002  51.095  1.00  0.00     0.029 C 
HETATM   10  C15 UNL     1      48.513 -44.878  51.985  1.00  0.00     0.022 C 
HETATM   11  C16 UNL     1      47.451 -45.475  49.782  1.00  0.00     0.014 C 
HETATM   12  C17 UNL     1      46.169 -46.164  49.369  1.00  0.00     0.023 C 
ENDROOT
BRANCH  11  13
HETATM   13  C18 UNL     1      47.061 -44.021  50.029  1.00  0.00     0.182 C 
BRANCH  13  14
HETATM   14  O4  UNL     1      47.288 -43.062  49.201  1.00  0.00    -0.382 OA
BRANCH  14  15
HETATM   15  C19 UNL     1      47.995 -41.983  49.122  1.00  0.00     0.151 C 
HETATM   16  C20 UNL     1      47.818 -41.254  47.745  1.00  0.00     0.038 C 
HETATM   17  C21 UNL     1      49.106 -40.736  47.212  1.00  0.00    -0.016 C 
HETATM   18  C22 UNL     1      50.046 -41.894  46.952  1.00  0.00     0.010 C 
HETATM   19  C23 UNL     1      49.761 -39.645  48.012  1.00  0.00     0.010 C 
HETATM   20  C24 UNL     1      48.839 -39.120  49.029  1.00  0.00     0.001 A 
HETATM   21  C25 UNL     1      48.969 -40.087  50.248  1.00  0.00     0.030 A 
HETATM   22  C27 UNL     1      49.119 -38.667  50.371  1.00  0.00    -0.037 A 
HETATM   23  C26 UNL     1      47.739 -40.913  50.205  1.00  0.00     0.152 C 
HETATM   24  C28 UNL     1      48.047 -37.902  51.118  1.00  0.00     0.015 C 
HETATM   25  C29 UNL     1      50.509 -38.121  50.642  1.00  0.00     0.015 C 
BRANCH  23  26
HETATM   26  O5  UNL     1      46.687 -40.075  49.802  1.00  0.00    -0.393 OA
ATOM     27  H5  UNL     1      46.266 -39.701  50.568  1.00  0.00     0.210 HD
ENDBRANCH  23  26
ENDBRANCH  14  15
ENDBRANCH  13  14
ENDBRANCH  11  13
BRANCH   1  28
HETATM   28  C5  UNL     1      48.136 -46.103  47.403  1.00  0.00    -0.018 C 
BRANCH  28  29
HETATM   29  C4  UNL     1      47.857 -45.331  46.209  1.00  0.00     0.060 C 
BRANCH  29  30
HETATM   30  C2  UNL     1      46.365 -45.272  45.957  1.00  0.00    -0.090 C 
HETATM   31  C1  UNL     1      45.634 -46.293  45.587  1.00  0.00     0.014 C 
HETATM   32  C3  UNL     1      45.688 -43.933  46.148  1.00  0.00     0.043 C 
ENDBRANCH  29  30
ENDBRANCH  28  29
ENDBRANCH   1  28
BRANCH   5  33
HETATM   33  O1  UNL     1      49.748 -47.063  52.286  1.00  0.00    -0.389 OA
ATOM     34  H1  UNL     1      49.662 -46.189  52.647  1.00  0.00     0.210 HD
ENDBRANCH   5  33
BRANCH   8  35
HETATM   35  O3  UNL     1      45.689 -46.216  52.038  1.00  0.00    -0.392 OA
ATOM     36  H3  UNL     1      45.400 -45.753  51.260  1.00  0.00     0.210 HD
ENDBRANCH   8  35
BRANCH   7  37
HETATM   37  O2  UNL     1      47.249 -48.818  53.121  1.00  0.00    -0.393 OA
ATOM     38  H2  UNL     1      46.390 -49.017  53.475  1.00  0.00     0.210 HD
ENDBRANCH   7  37
TORSDOF 10
ENDMDL
MODEL 3
REMARK VINA RESULT: -7.246151118      2.177      8.026
REMARK  10 active torsions:
REMARK  status: ('A' for Active; 'I' for Inactive)
REMARK    1  A    between atoms: C2_2  and  C4_4 
REMARK    2  A    between atoms: C4_4  and  C5_5 
REMARK    3  A    between atoms: C5_5  and  C6_6 
REMARK    4  A    between atoms: C10_10  and  O1_11 
REMARK    5  A    between atoms: C12_14  and  O2_15 
REMARK    6  A    between atoms: C13_17  and  O3_18 
REMARK    7  A    between atoms: C16_22  and  C18_24 
REMARK    8  A    between atoms: C18_24  and  O4_25 
REMARK    9  A    between atoms: O4_25  and  C19_26 
REMARK   10  A    between atoms: C26_33  and  O5_34 
ROOT
HETATM    1  C6  UNL     1      49.238 -39.487  48.900  1.00  0.00    -0.068 C 
HETATM    2  C7  UNL     1      50.049 -38.915  47.781  1.00  0.00     0.014 C 
HETATM    3  C8  UNL     1      50.533 -37.498  48.058  1.00  0.00     0.015 C 
HETATM    4  C9  UNL     1      49.354 -38.879  46.461  1.00  0.00     0.047 C 
HETATM    5  C10 UNL     1      48.751 -40.180  46.177  1.00  0.00     0.072 C 
HETATM    6  C11 UNL     1      47.305 -39.970  45.763  1.00  0.00     0.073 C 
HETATM    7  C12 UNL     1      46.679 -41.335  45.873  1.00  0.00     0.150 C 
HETATM    8  C13 UNL     1      47.653 -42.142  46.664  1.00  0.00     0.159 C 
HETATM    9  C14 UNL     1      48.750 -41.259  47.208  1.00  0.00     0.029 C 
HETATM   10  C15 UNL     1      50.022 -42.085  46.956  1.00  0.00     0.022 C 
HETATM   11  C16 UNL     1      48.630 -40.846  48.649  1.00  0.00     0.014 C 
HETATM   12  C17 UNL     1      47.203 -40.953  49.139  1.00  0.00     0.023 C 
ENDROOT
BRANCH  11  13
HETATM   13  C18 UNL     1      49.408 -41.881  49.456  1.00  0.00     0.182 C 
BRANCH  13  14
HETATM   14  O4  UNL     1      48.861 -42.765  50.215  1.00  0.00    -0.382 OA
BRANCH  14  15
HETATM   15  C19 UNL     1      48.510 -44.007  50.176  1.00  0.00     0.151 C 
HETATM   16  C20 UNL     1      49.743 -44.975  50.164  1.00  0.00     0.038 C 
HETATM   17  C21 UNL     1      49.560 -46.110  49.220  1.00  0.00    -0.016 C 
HETATM   18  C22 UNL     1      49.435 -45.577  47.809  1.00  0.00     0.010 C 
HETATM   19  C23 UNL     1      48.461 -47.078  49.558  1.00  0.00     0.010 C 
HETATM   20  C24 UNL     1      47.963 -46.847  50.921  1.00  0.00     0.001 A 
HETATM   21  C25 UNL     1      46.909 -45.702  50.791  1.00  0.00     0.030 A 
HETATM   22  C27 UNL     1      46.617 -46.949  51.433  1.00  0.00    -0.037 A 
HETATM   23  C26 UNL     1      47.595 -44.498  51.319  1.00  0.00     0.152 C 
HETATM   24  C28 UNL     1      46.408 -46.943  52.933  1.00  0.00     0.015 C 
HETATM   25  C29 UNL     1      45.678 -47.909  50.726  1.00  0.00     0.015 C 
BRANCH  23  26
HETATM   26  O5  UNL     1      48.380 -44.909  52.409  1.00  0.00    -0.393 OA
ATOM     27  H5  UNL     1      48.231 -45.831  52.580  1.00  0.00     0.210 HD
ENDBRANCH  23  26
ENDBRANCH  14  15
ENDBRANCH  13  14
ENDBRANCH  11  13
BRANCH   1  28
HETATM   28  C5  UNL     1      48.424 -38.508  49.657  1.00  0.00    -0.018 C 
BRANCH  28  29
HETATM   29  C4  UNL     1      48.668 -38.139  51.035  1.00  0.00     0.060 C 
BRANCH  29  30
HETATM   30  C2  UNL     1      47.908 -36.876  51.384  1.00  0.00    -0.090 C 
HETATM   31  C1  UNL     1      46.854 -36.443  50.740  1.00  0.00     0.014 C 
HETATM   32  C3  UNL     1      48.418 -36.069  52.558  1.00  0.00     0.043 C 
ENDBRANCH  29  30
ENDBRANCH  28  29
ENDBRANCH   1  28
BRANCH   5  33
HETATM   33  O1  UNL     1      49.376 -40.647  44.978  1.00  0.00    -0.389 OA
ATOM     34  H1  UNL     1      50.146 -41.128  45.258  1.00  0.00     0.210 HD
ENDBRANCH   5  33
BRANCH   8  35
HETATM   35  O3  UNL     1      47.102 -43.081  47.460  1.00  0.00    -0.392 OA
ATOM     36  H3  UNL     1      47.708 -43.510  48.054  1.00  0.00     0.210 HD
ENDBRANCH   8  35
BRANCH   7  37
HETATM   37  O2  UNL     1      46.471 -41.833  44.559  1.00  0.00    -0.393 OA
ATOM     38  H2  UNL     1      46.458 -42.782  44.601  1.00  0.00     0.210 HD
ENDBRANCH   7  37
TORSDOF 10
ENDMDL
MODEL 4
REMARK VINA RESULT: -7.137047113      2.309      8.210
REMARK  10 active torsions:
REMARK  status: ('A' for Active; 'I' for Inactive)
REMARK    1  A    between atoms: C2_2  and  C4_4 
REMARK    2  A    between atoms: C4_4  and  C5_5 
REMARK    3  A    between atoms: C5_5  and  C6_6 
REMARK    4  A    between atoms: C10_10  and  O1_11 
REMARK    5  A    between atoms: C12_14  and  O2_15 
REMARK    6  A    between atoms: C13_17  and  O3_18 
REMARK    7  A    between atoms: C16_22  and  C18_24 
REMARK    8  A    between atoms: C18_24  and  O4_25 
REMARK    9  A    between atoms: O4_25  and  C19_26 
REMARK   10  A    between atoms: C26_33  and  O5_34 
ROOT
HETATM    1  C6  UNL     1      49.195 -39.486  48.705  1.00  0.00    -0.068 C 
HETATM    2  C7  UNL     1      49.979 -38.835  47.611  1.00  0.00     0.014 C 
HETATM    3  C8  UNL     1      50.429 -37.422  47.958  1.00  0.00     0.015 C 
HETATM    4  C9  UNL     1      49.270 -38.748  46.301  1.00  0.00     0.047 C 
HETATM    5  C10 UNL     1      48.697 -40.047  45.954  1.00  0.00     0.072 C 
HETATM    6  C11 UNL     1      47.242 -39.854  45.564  1.00  0.00     0.073 C 
HETATM    7  C12 UNL     1      46.653 -41.238  45.607  1.00  0.00     0.150 C 
HETATM    8  C13 UNL     1      47.655 -42.060  46.345  1.00  0.00     0.159 C 
HETATM    9  C14 UNL     1      48.736 -41.179  46.925  1.00  0.00     0.029 C 
HETATM   10  C15 UNL     1      50.025 -41.956  46.618  1.00  0.00     0.022 C 
HETATM   11  C16 UNL     1      48.620 -40.846  48.387  1.00  0.00     0.014 C 
HETATM   12  C17 UNL     1      47.202 -41.017  48.884  1.00  0.00     0.023 C 
ENDROOT
BRANCH  11  13
HETATM   13  C18 UNL     1      49.433 -41.901  49.131  1.00  0.00     0.182 C 
BRANCH  13  14
HETATM   14  O4  UNL     1      48.917 -42.882  49.785  1.00  0.00    -0.382 OA
BRANCH  14  15
HETATM   15  C19 UNL     1      49.056 -44.161  49.904  1.00  0.00     0.151 C 
HETATM   16  C20 UNL     1      47.679 -44.911  49.928  1.00  0.00     0.038 C 
HETATM   17  C21 UNL     1      47.649 -46.002  50.939  1.00  0.00    -0.016 C 
HETATM   18  C22 UNL     1      47.826 -45.413  52.322  1.00  0.00     0.010 C 
HETATM   19  C23 UNL     1      48.580 -47.156  50.693  1.00  0.00     0.010 C 
HETATM   20  C24 UNL     1      49.142 -47.092  49.337  1.00  0.00     0.001 A 
HETATM   21  C25 UNL     1      50.368 -46.130  49.439  1.00  0.00     0.030 A 
HETATM   22  C27 UNL     1      50.465 -47.445  48.877  1.00  0.00    -0.037 A 
HETATM   23  C26 UNL     1      49.904 -44.864  48.822  1.00  0.00     0.152 C 
HETATM   24  C28 UNL     1      50.709 -47.563  47.387  1.00  0.00     0.015 C 
HETATM   25  C29 UNL     1      51.214 -48.501  49.668  1.00  0.00     0.015 C 
BRANCH  23  26
HETATM   26  O5  UNL     1      49.089 -45.205  47.731  1.00  0.00    -0.393 OA
ATOM     27  H5  UNL     1      49.592 -45.148  46.927  1.00  0.00     0.210 HD
ENDBRANCH  23  26
ENDBRANCH  14  15
ENDBRANCH  13  14
ENDBRANCH  11  13
BRANCH   1  28
HETATM   28  C5  UNL     1      48.364 -38.571  49.520  1.00  0.00    -0.018 C 
BRANCH  28  29
HETATM   29  C4  UNL     1      48.599 -38.288  50.921  1.00  0.00     0.060 C 
BRANCH  29  30
HETATM   30  C2  UNL     1      47.914 -36.997  51.319  1.00  0.00    -0.090 C 
HETATM   31  C1  UNL     1      46.840 -36.519  50.742  1.00  0.00     0.014 C 
HETATM   32  C3  UNL     1      48.528 -36.217  52.460  1.00  0.00     0.043 C 
ENDBRANCH  29  30
ENDBRANCH  28  29
ENDBRANCH   1  28
BRANCH   5  33
HETATM   33  O1  UNL     1      49.322 -40.433  44.726  1.00  0.00    -0.389 OA
ATOM     34  H1  UNL     1      49.141 -41.360  44.623  1.00  0.00     0.210 HD
ENDBRANCH   5  33
BRANCH   8  35
HETATM   35  O3  UNL     1      47.138 -43.054  47.095  1.00  0.00    -0.392 OA
ATOM     36  H3  UNL     1      47.337 -43.933  46.791  1.00  0.00     0.210 HD
ENDBRANCH   8  35
BRANCH   7  37
HETATM   37  O2  UNL     1      46.444 -41.671  44.270  1.00  0.00    -0.393 OA
ATOM     38  H2  UNL     1      45.523 -41.562  44.064  1.00  0.00     0.210 HD
ENDBRANCH   7  37
TORSDOF 10
ENDMDL
MODEL 5
REMARK VINA RESULT: -6.899876472      2.772      5.050
REMARK  10 active torsions:
REMARK  status: ('A' for Active; 'I' for Inactive)
REMARK    1  A    between atoms: C2_2  and  C4_4 
REMARK    2  A    between atoms: C4_4  and  C5_5 
REMARK    3  A    between atoms: C5_5  and  C6_6 
REMARK    4  A    between atoms: C10_10  and  O1_11 
REMARK    5  A    between atoms: C12_14  and  O2_15 
REMARK    6  A    between atoms: C13_17  and  O3_18 
REMARK    7  A    between atoms: C16_22  and  C18_24 
REMARK    8  A    between atoms: C18_24  and  O4_25 
REMARK    9  A    between atoms: O4_25  and  C19_26 
REMARK   10  A    between atoms: C26_33  and  O5_34 
ROOT
HETATM    1  C6  UNL     1      48.179 -42.895  47.224  1.00  0.00    -0.068 C 
HETATM    2  C7  UNL     1      48.558 -44.287  46.830  1.00  0.00     0.014 C 
HETATM    3  C8  UNL     1      47.928 -44.729  45.516  1.00  0.00     0.015 C 
HETATM    4  C9  UNL     1      48.223 -45.335  47.838  1.00  0.00     0.047 C 
HETATM    5  C10 UNL     1      48.690 -44.924  49.161  1.00  0.00     0.072 C 
HETATM    6  C11 UNL     1      47.555 -45.092  50.156  1.00  0.00     0.073 C 
HETATM    7  C12 UNL     1      47.989 -44.302  51.361  1.00  0.00     0.150 C 
HETATM    8  C13 UNL     1      49.120 -43.457  50.880  1.00  0.00     0.159 C 
HETATM    9  C14 UNL     1      49.254 -43.560  49.379  1.00  0.00     0.029 C 
HETATM   10  C15 UNL     1      50.771 -43.692  49.171  1.00  0.00     0.022 C 
HETATM   11  C16 UNL     1      48.677 -42.430  48.572  1.00  0.00     0.014 C 
HETATM   12  C17 UNL     1      47.631 -41.668  49.355  1.00  0.00     0.023 C 
ENDROOT
BRANCH  11  13
HETATM   13  C18 UNL     1      49.814 -41.438  48.352  1.00  0.00     0.182 C 
BRANCH  13  14
HETATM   14  O4  UNL     1      50.179 -40.556  49.215  1.00  0.00    -0.382 OA
BRANCH  14  15
HETATM   15  C19 UNL     1      49.954 -39.317  49.506  1.00  0.00     0.151 C 
HETATM   16  C20 UNL     1      48.728 -38.734  48.722  1.00  0.00     0.038 C 
HETATM   17  C21 UNL     1      48.978 -37.353  48.230  1.00  0.00    -0.016 C 
HETATM   18  C22 UNL     1      50.129 -37.368  47.248  1.00  0.00     0.010 C 
HETATM   19  C23 UNL     1      49.150 -36.297  49.286  1.00  0.00     0.010 C 
HETATM   20  C24 UNL     1      48.759 -36.811  50.607  1.00  0.00     0.001 A 
HETATM   21  C25 UNL     1      50.019 -37.557  51.152  1.00  0.00     0.030 A 
HETATM   22  C27 UNL     1      49.338 -36.542  51.901  1.00  0.00    -0.037 A 
HETATM   23  C26 UNL     1      49.700 -38.996  50.994  1.00  0.00     0.152 C 
HETATM   24  C28 UNL     1      48.577 -36.965  53.140  1.00  0.00     0.015 C 
HETATM   25  C29 UNL     1      50.036 -35.206  52.083  1.00  0.00     0.015 C 
BRANCH  23  26
HETATM   26  O5  UNL     1      48.336 -39.157  51.286  1.00  0.00    -0.393 OA
ATOM     27  H5  UNL     1      47.976 -39.857  50.753  1.00  0.00     0.210 HD
ENDBRANCH  23  26
ENDBRANCH  14  15
ENDBRANCH  13  14
ENDBRANCH  11  13
BRANCH   1  28
HETATM   28  C5  UNL     1      46.819 -42.471  46.818  1.00  0.00    -0.018 C 
BRANCH  28  29
HETATM   29  C4  UNL     1      46.515 -41.197  46.200  1.00  0.00     0.060 C 
BRANCH  29  30
HETATM   30  C2  UNL     1      47.513 -40.894  45.101  1.00  0.00    -0.090 C 
HETATM   31  C1  UNL     1      48.513 -40.057  45.218  1.00  0.00     0.014 C 
HETATM   32  C3  UNL     1      47.325 -41.613  43.784  1.00  0.00     0.043 C 
ENDBRANCH  29  30
ENDBRANCH  28  29
ENDBRANCH   1  28
BRANCH   5  33
HETATM   33  O1  UNL     1      49.637 -45.917  49.567  1.00  0.00    -0.389 OA
ATOM     34  H1  UNL     1      49.764 -46.479  48.811  1.00  0.00     0.210 HD
ENDBRANCH   5  33
BRANCH   8  35
HETATM   35  O3  UNL     1      49.224 -42.250  51.472  1.00  0.00    -0.392 OA
ATOM     36  H3  UNL     1      48.644 -41.581  51.126  1.00  0.00     0.210 HD
ENDBRANCH   8  35
BRANCH   7  37
HETATM   37  O2  UNL     1      48.364 -45.218  52.379  1.00  0.00    -0.393 OA
ATOM     38  H2  UNL     1      48.967 -45.848  52.002  1.00  0.00     0.210 HD
ENDBRANCH   7  37
TORSDOF 10
ENDMDL
