MODEL 1
REMARK VINA RESULT: -8.916618042      0.000      0.000
REMARK  10 active torsions:
REMARK  status: ('A' for Active; 'I' for Inactive)
REMARK    1  A    between atoms: O1_1  and  C1_3 
REMARK    2  A    between atoms: C1_3  and  C2_4 
REMARK    3  A    between atoms: C5_7  and  C6_8 
REMARK    4  A    between atoms: C8_10  and  O2_11 
REMARK    5  A    between atoms: C11_15  and  C12_16 
REMARK    6  A    between atoms: C16_20  and  C17_21 
REMARK    7  A    between atoms: C17_21  and  O3_22 
REMARK    8  A    between atoms: C17_21  and  N1_24 
REMARK    9  A    between atoms: N1_24  and  C18_26 
REMARK   10  A    between atoms: C20_28  and  C21_29 
ROOT
HETATM    1  C12 UNL     1      49.599 -44.078  48.377  1.00  0.00    -0.024 A 
HETATM    2  C13 UNL     1      48.509 -43.710  47.645  1.00  0.00     0.012 A 
HETATM    3  C14 UNL     1      47.625 -42.702  48.042  1.00  0.00     0.002 A 
HETATM    4  C15 UNL     1      47.848 -42.045  49.217  1.00  0.00     0.011 A 
HETATM    5  C16 UNL     1      48.938 -42.395  49.974  1.00  0.00    -0.009 A 
HETATM    6  C28 UNL     1      49.807 -43.391  49.576  1.00  0.00     0.024 A 
ENDROOT
BRANCH   5   7
HETATM    7  C17 UNL     1      49.132 -41.643  51.270  1.00  0.00     0.253 C 
BRANCH   7   8
HETATM    8  O3  UNL     1      47.850 -41.538  51.817  1.00  0.00    -0.372 OA
ATOM      9  H3  UNL     1      47.855 -40.715  52.292  1.00  0.00     0.212 HD
ENDBRANCH   7   8
BRANCH   7  10
HETATM   10  N1  UNL     1      49.716 -40.409  51.026  1.00  0.00    -0.346 N 
ATOM     11  H1  UNL     1      50.678 -40.379  51.364  1.00  0.00     0.164 HD
BRANCH  10  12
HETATM   12  C18 UNL     1      49.377 -39.312  50.497  1.00  0.00     0.103 A 
HETATM   13  C19 UNL     1      49.649 -38.892  49.212  1.00  0.00     0.060 A 
HETATM   14  C20 UNL     1      49.244 -37.652  48.715  1.00  0.00    -0.021 A 
HETATM   15  C26 UNL     1      48.541 -36.818  49.556  1.00  0.00     0.029 A 
HETATM   16  C27 UNL     1      48.269 -37.249  50.852  1.00  0.00     0.090 A 
HETATM   17  N3  UNL     1      48.671 -38.438  51.297  1.00  0.00    -0.352 N 
ATOM     18  H3  UNL     1      48.450 -38.711  52.255  1.00  0.00     0.166 HD
BRANCH  14  19
HETATM   19  C21 UNL     1      49.554 -37.249  47.352  1.00  0.00    -0.023 A 
HETATM   20  C22 UNL     1      49.607 -38.197  46.352  1.00  0.00     0.029 A 
HETATM   21  C23 UNL     1      49.899 -37.843  45.041  1.00  0.00     0.088 A 
HETATM   22  N2  UNL     1      50.131 -36.538  44.772  1.00  0.00    -0.375 N 
HETATM   23  C24 UNL     1      50.088 -35.588  45.715  1.00  0.00     0.088 A 
ATOM     24  H2  UNL     1      50.345 -36.266  43.813  1.00  0.00     0.164 HD
HETATM   25  C25 UNL     1      49.800 -35.932  47.013  1.00  0.00     0.029 A 
ENDBRANCH  14  19
ENDBRANCH  10  12
ENDBRANCH   7  10
ENDBRANCH   5   7
BRANCH   1  26
HETATM   26  C11 UNL     1      50.486 -45.126  47.943  1.00  0.00    -0.015 A 
HETATM   27  C6  UNL     1      50.337 -46.399  48.426  1.00  0.00    -0.011 A 
HETATM   28  C7  UNL     1      51.216 -47.391  47.975  1.00  0.00     0.049 A 
HETATM   29  C8  UNL     1      52.214 -47.127  47.068  1.00  0.00     0.066 A 
HETATM   30  C9  UNL     1      52.370 -45.852  46.578  1.00  0.00     0.037 A 
HETATM   31  C10 UNL     1      51.512 -44.872  47.017  1.00  0.00     0.016 A 
BRANCH  27  32
HETATM   32  C5  UNL     1      49.317 -46.725  49.376  1.00  0.00    -0.009 A 
HETATM   33  C4  UNL     1      48.036 -46.983  48.972  1.00  0.00     0.015 A 
HETATM   34  C3  UNL     1      47.064 -47.305  49.931  1.00  0.00     0.028 A 
HETATM   35  C2  UNL     1      47.414 -47.357  51.260  1.00  0.00     0.032 A 
HETATM   36  N4  UNL     1      48.680 -47.100  51.629  1.00  0.00    -0.367 N 
HETATM   37  C29 UNL     1      49.609 -46.791  50.711  1.00  0.00     0.100 A 
ATOM     38  H4  UNL     1      48.938 -47.139  52.615  1.00  0.00     0.165 HD
BRANCH  35  39
HETATM   39  C1  UNL     1      46.439 -47.694  52.330  1.00  0.00     0.220 C 
BRANCH  39  40
HETATM   40  O1  UNL     1      46.412 -46.695  53.303  1.00  0.00    -0.395 OA
ATOM     41  H1  UNL     1      45.824 -46.932  54.009  1.00  0.00     0.209 HD
ENDBRANCH  39  40
ENDBRANCH  35  39
ENDBRANCH  27  32
BRANCH  29  42
HETATM   42  O2  UNL     1      53.046 -48.165  46.669  1.00  0.00    -0.361 OA
ATOM     43  H2  UNL     1      53.906 -48.241  47.066  1.00  0.00     0.217 HD
ENDBRANCH  29  42
ENDBRANCH   1  26
TORSDOF 10
ENDMDL
MODEL 2
REMARK VINA RESULT: -8.388052673      2.096      3.761
REMARK  10 active torsions:
REMARK  status: ('A' for Active; 'I' for Inactive)
REMARK    1  A    between atoms: O1_1  and  C1_3 
REMARK    2  A    between atoms: C1_3  and  C2_4 
REMARK    3  A    between atoms: C5_7  and  C6_8 
REMARK    4  A    between atoms: C8_10  and  O2_11 
REMARK    5  A    between atoms: C11_15  and  C12_16 
REMARK    6  A    between atoms: C16_20  and  C17_21 
REMARK    7  A    between atoms: C17_21  and  O3_22 
REMARK    8  A    between atoms: C17_21  and  N1_24 
REMARK    9  A    between atoms: N1_24  and  C18_26 
REMARK   10  A    between atoms: C20_28  and  C21_29 
ROOT
HETATM    1  C12 UNL     1      49.754 -44.659  48.948  1.00  0.00    -0.024 A 
HETATM    2  C13 UNL     1      48.628 -45.383  49.205  1.00  0.00     0.012 A 
HETATM    3  C14 UNL     1      47.662 -44.990  50.137  1.00  0.00     0.002 A 
HETATM    4  C15 UNL     1      47.841 -43.830  50.833  1.00  0.00     0.011 A 
HETATM    5  C16 UNL     1      48.967 -43.082  50.594  1.00  0.00    -0.009 A 
HETATM    6  C28 UNL     1      49.916 -43.475  49.672  1.00  0.00     0.024 A 
ENDROOT
BRANCH   5   7
HETATM    7  C17 UNL     1      49.120 -41.813  51.399  1.00  0.00     0.253 C 
BRANCH   7   8
HETATM    8  O3  UNL     1      47.824 -41.496  51.816  1.00  0.00    -0.372 OA
ATOM      9  H3  UNL     1      47.355 -42.322  51.800  1.00  0.00     0.212 HD
ENDBRANCH   7   8
BRANCH   7  10
HETATM   10  N1  UNL     1      49.693 -40.818  50.622  1.00  0.00    -0.346 N 
ATOM     11  H1  UNL     1      50.612 -41.097  50.277  1.00  0.00     0.164 HD
BRANCH  10  12
HETATM   12  C18 UNL     1      49.383 -39.657  50.225  1.00  0.00     0.103 A 
HETATM   13  C19 UNL     1      49.647 -39.106  48.989  1.00  0.00     0.060 A 
HETATM   14  C20 UNL     1      49.277 -37.806  48.642  1.00  0.00    -0.021 A 
HETATM   15  C26 UNL     1      48.619 -37.048  49.585  1.00  0.00     0.029 A 
HETATM   16  C27 UNL     1      48.355 -37.612  50.831  1.00  0.00     0.090 A 
HETATM   17  N3  UNL     1      48.722 -38.856  51.132  1.00  0.00    -0.352 N 
ATOM     18  H3  UNL     1      48.509 -39.226  52.058  1.00  0.00     0.166 HD
BRANCH  14  19
HETATM   19  C21 UNL     1      49.578 -37.264  47.325  1.00  0.00    -0.023 A 
HETATM   20  C22 UNL     1      49.551 -38.090  46.221  1.00  0.00     0.029 A 
HETATM   21  C23 UNL     1      49.833 -37.601  44.952  1.00  0.00     0.088 A 
HETATM   22  N2  UNL     1      50.133 -36.288  44.829  1.00  0.00    -0.375 N 
HETATM   23  C24 UNL     1      50.168 -35.454  45.876  1.00  0.00     0.088 A 
ATOM     24  H2  UNL     1      50.340 -35.918  43.901  1.00  0.00     0.164 HD
HETATM   25  C25 UNL     1      49.892 -35.931  47.134  1.00  0.00     0.029 A 
ENDBRANCH  14  19
ENDBRANCH  10  12
ENDBRANCH   7  10
ENDBRANCH   5   7
BRANCH   1  26
HETATM   26  C11 UNL     1      50.734 -45.096  47.986  1.00  0.00    -0.015 A 
HETATM   27  C6  UNL     1      50.680 -44.645  46.694  1.00  0.00    -0.011 A 
HETATM   28  C7  UNL     1      51.654 -45.089  45.791  1.00  0.00     0.049 A 
HETATM   29  C8  UNL     1      52.653 -45.957  46.161  1.00  0.00     0.066 A 
HETATM   30  C9  UNL     1      52.713 -46.414  47.456  1.00  0.00     0.037 A 
HETATM   31  C10 UNL     1      51.761 -45.984  48.348  1.00  0.00     0.016 A 
BRANCH  27  32
HETATM   32  C5  UNL     1      49.657 -43.744  46.257  1.00  0.00    -0.009 A 
HETATM   33  C4  UNL     1      49.811 -42.391  46.381  1.00  0.00     0.015 A 
HETATM   34  C3  UNL     1      48.788 -41.539  45.935  1.00  0.00     0.028 A 
HETATM   35  C2  UNL     1      47.650 -42.078  45.382  1.00  0.00     0.032 A 
HETATM   36  N4  UNL     1      47.525 -43.411  45.272  1.00  0.00    -0.367 N 
HETATM   37  C29 UNL     1      48.503 -44.225  45.699  1.00  0.00     0.100 A 
ATOM     38  H4  UNL     1      46.681 -43.808  44.861  1.00  0.00     0.165 HD
BRANCH  35  39
HETATM   39  C1  UNL     1      46.529 -41.238  44.886  1.00  0.00     0.220 C 
BRANCH  39  40
HETATM   40  O1  UNL     1      46.587 -39.961  45.445  1.00  0.00    -0.395 OA
ATOM     41  H1  UNL     1      47.488 -39.699  45.587  1.00  0.00     0.209 HD
ENDBRANCH  39  40
ENDBRANCH  35  39
ENDBRANCH  27  32
BRANCH  29  42
HETATM   42  O2  UNL     1      53.583 -46.351  45.208  1.00  0.00    -0.361 OA
ATOM     43  H2  UNL     1      53.444 -47.170  44.745  1.00  0.00     0.217 HD
ENDBRANCH  29  42
ENDBRANCH   1  26
TORSDOF 10
ENDMDL
MODEL 3
REMARK VINA RESULT: -8.365615172      2.477      4.472
REMARK  10 active torsions:
REMARK  status: ('A' for Active; 'I' for Inactive)
REMARK    1  A    between atoms: O1_1  and  C1_3 
REMARK    2  A    between atoms: C1_3  and  C2_4 
REMARK    3  A    between atoms: C5_7  and  C6_8 
REMARK    4  A    between atoms: C8_10  and  O2_11 
REMARK    5  A    between atoms: C11_15  and  C12_16 
REMARK    6  A    between atoms: C16_20  and  C17_21 
REMARK    7  A    between atoms: C17_21  and  O3_22 
REMARK    8  A    between atoms: C17_21  and  N1_24 
REMARK    9  A    between atoms: N1_24  and  C18_26 
REMARK   10  A    between atoms: C20_28  and  C21_29 
ROOT
HETATM    1  C12 UNL     1      50.157 -45.790  49.167  1.00  0.00    -0.024 A 
HETATM    2  C13 UNL     1      49.439 -46.872  49.582  1.00  0.00     0.012 A 
HETATM    3  C14 UNL     1      48.401 -46.790  50.516  1.00  0.00     0.002 A 
HETATM    4  C15 UNL     1      48.079 -45.576  51.048  1.00  0.00     0.011 A 
HETATM    5  C16 UNL     1      48.786 -44.469  50.648  1.00  0.00    -0.009 A 
HETATM    6  C28 UNL     1      49.809 -44.557  49.726  1.00  0.00     0.024 A 
ENDROOT
BRANCH   5   7
HETATM    7  C17 UNL     1      48.394 -43.153  51.277  1.00  0.00     0.253 C 
BRANCH   7   8
HETATM    8  O3  UNL     1      47.154 -42.842  50.713  1.00  0.00    -0.372 OA
ATOM      9  H3  UNL     1      47.206 -41.917  50.505  1.00  0.00     0.212 HD
ENDBRANCH   7   8
BRANCH   7  10
HETATM   10  N1  UNL     1      49.359 -42.191  51.018  1.00  0.00    -0.346 N 
ATOM     11  H1  UNL     1      50.283 -42.500  51.319  1.00  0.00     0.164 HD
BRANCH  10  12
HETATM   12  C18 UNL     1      49.401 -41.034  50.509  1.00  0.00     0.103 A 
HETATM   13  C19 UNL     1      48.854 -39.880  51.027  1.00  0.00     0.060 A 
HETATM   14  C20 UNL     1      48.940 -38.643  50.386  1.00  0.00    -0.021 A 
HETATM   15  C26 UNL     1      49.604 -38.585  49.181  1.00  0.00     0.029 A 
HETATM   16  C27 UNL     1      50.156 -39.755  48.664  1.00  0.00     0.090 A 
HETATM   17  N3  UNL     1      50.055 -40.920  49.300  1.00  0.00    -0.352 N 
ATOM     18  H3  UNL     1      50.474 -41.752  48.882  1.00  0.00     0.166 HD
BRANCH  14  19
HETATM   19  C21 UNL     1      48.345 -37.450  50.968  1.00  0.00    -0.023 A 
HETATM   20  C22 UNL     1      49.043 -36.727  51.913  1.00  0.00     0.029 A 
HETATM   21  C23 UNL     1      48.502 -35.584  52.486  1.00  0.00     0.088 A 
HETATM   22  N2  UNL     1      47.269 -35.197  52.089  1.00  0.00    -0.375 N 
HETATM   23  C24 UNL     1      46.560 -35.871  51.175  1.00  0.00     0.088 A 
ATOM     24  H2  UNL     1      46.862 -34.357  52.503  1.00  0.00     0.164 HD
HETATM   25  C25 UNL     1      47.089 -37.003  50.605  1.00  0.00     0.029 A 
ENDBRANCH  14  19
ENDBRANCH  10  12
ENDBRANCH   7  10
ENDBRANCH   5   7
BRANCH   1  26
HETATM   26  C11 UNL     1      51.226 -45.910  48.209  1.00  0.00    -0.015 A 
HETATM   27  C6  UNL     1      51.135 -45.285  46.993  1.00  0.00    -0.011 A 
HETATM   28  C7  UNL     1      52.198 -45.422  46.092  1.00  0.00     0.049 A 
HETATM   29  C8  UNL     1      53.320 -46.158  46.389  1.00  0.00     0.066 A 
HETATM   30  C9  UNL     1      53.418 -46.788  47.607  1.00  0.00     0.037 A 
HETATM   31  C10 UNL     1      52.379 -46.659  48.497  1.00  0.00     0.016 A 
BRANCH  27  32
HETATM   32  C5  UNL     1      49.986 -44.511  46.633  1.00  0.00    -0.009 A 
HETATM   33  C4  UNL     1      48.796 -45.115  46.334  1.00  0.00     0.015 A 
HETATM   34  C3  UNL     1      47.689 -44.323  45.992  1.00  0.00     0.028 A 
HETATM   35  C2  UNL     1      47.819 -42.954  45.963  1.00  0.00     0.032 A 
HETATM   36  N4  UNL     1      49.000 -42.387  46.262  1.00  0.00    -0.367 N 
HETATM   37  C29 UNL     1      50.058 -43.145  46.588  1.00  0.00     0.100 A 
ATOM     38  H4  UNL     1      49.094 -41.371  46.240  1.00  0.00     0.165 HD
BRANCH  35  39
HETATM   39  C1  UNL     1      46.690 -42.052  45.612  1.00  0.00     0.220 C 
BRANCH  39  40
HETATM   40  O1  UNL     1      46.609 -40.992  46.515  1.00  0.00    -0.395 OA
ATOM     41  H1  UNL     1      45.761 -40.568  46.456  1.00  0.00     0.209 HD
ENDBRANCH  39  40
ENDBRANCH  35  39
ENDBRANCH  27  32
BRANCH  29  42
HETATM   42  O2  UNL     1      54.332 -46.246  45.443  1.00  0.00    -0.361 OA
ATOM     43  H2  UNL     1      54.647 -47.106  45.188  1.00  0.00     0.217 HD
ENDBRANCH  29  42
ENDBRANCH   1  26
TORSDOF 10
ENDMDL
MODEL 4
REMARK VINA RESULT: -8.230051109      2.503      4.527
REMARK  10 active torsions:
REMARK  status: ('A' for Active; 'I' for Inactive)
REMARK    1  A    between atoms: O1_1  and  C1_3 
REMARK    2  A    between atoms: C1_3  and  C2_4 
REMARK    3  A    between atoms: C5_7  and  C6_8 
REMARK    4  A    between atoms: C8_10  and  O2_11 
REMARK    5  A    between atoms: C11_15  and  C12_16 
REMARK    6  A    between atoms: C16_20  and  C17_21 
REMARK    7  A    between atoms: C17_21  and  O3_22 
REMARK    8  A    between atoms: C17_21  and  N1_24 
REMARK    9  A    between atoms: N1_24  and  C18_26 
REMARK   10  A    between atoms: C20_28  and  C21_29 
ROOT
HETATM    1  C12 UNL     1      50.190 -45.800  49.073  1.00  0.00    -0.024 A 
HETATM    2  C13 UNL     1      49.426 -46.880  49.403  1.00  0.00     0.012 A 
HETATM    3  C14 UNL     1      48.340 -46.811  50.280  1.00  0.00     0.002 A 
HETATM    4  C15 UNL     1      48.015 -45.612  50.844  1.00  0.00     0.011 A 
HETATM    5  C16 UNL     1      48.767 -44.507  50.530  1.00  0.00    -0.009 A 
HETATM    6  C28 UNL     1      49.838 -44.583  49.663  1.00  0.00     0.024 A 
ENDROOT
BRANCH   5   7
HETATM    7  C17 UNL     1      48.369 -43.209  51.191  1.00  0.00     0.253 C 
BRANCH   7   8
HETATM    8  O3  UNL     1      47.125 -42.893  50.639  1.00  0.00    -0.372 OA
ATOM      9  H3  UNL     1      46.944 -42.009  50.936  1.00  0.00     0.212 HD
ENDBRANCH   7   8
BRANCH   7  10
HETATM   10  N1  UNL     1      49.327 -42.235  50.951  1.00  0.00    -0.346 N 
ATOM     11  H1  UNL     1      50.255 -42.546  51.240  1.00  0.00     0.164 HD
BRANCH  10  12
HETATM   12  C18 UNL     1      49.361 -41.066  50.469  1.00  0.00     0.103 A 
HETATM   13  C19 UNL     1      48.803 -39.929  51.014  1.00  0.00     0.060 A 
HETATM   14  C20 UNL     1      48.879 -38.677  50.403  1.00  0.00    -0.021 A 
HETATM   15  C26 UNL     1      49.545 -38.584  49.201  1.00  0.00     0.029 A 
HETATM   16  C27 UNL     1      50.107 -39.737  48.657  1.00  0.00     0.090 A 
HETATM   17  N3  UNL     1      50.016 -40.918  49.264  1.00  0.00    -0.352 N 
ATOM     18  H3  UNL     1      50.442 -41.736  48.827  1.00  0.00     0.166 HD
BRANCH  14  19
HETATM   19  C21 UNL     1      48.274 -37.503  51.013  1.00  0.00    -0.023 A 
HETATM   20  C22 UNL     1      47.066 -37.032  50.543  1.00  0.00     0.029 A 
HETATM   21  C23 UNL     1      46.462 -35.915  51.106  1.00  0.00     0.088 A 
HETATM   22  N2  UNL     1      47.094 -35.301  52.132  1.00  0.00    -0.375 N 
HETATM   23  C24 UNL     1      48.267 -35.727  52.617  1.00  0.00     0.088 A 
ATOM     24  H2  UNL     1      46.660 -34.480  52.554  1.00  0.00     0.164 HD
HETATM   25  C25 UNL     1      48.869 -36.831  52.064  1.00  0.00     0.029 A 
ENDBRANCH  14  19
ENDBRANCH  10  12
ENDBRANCH   7  10
ENDBRANCH   5   7
BRANCH   1  26
HETATM   26  C11 UNL     1      51.308 -45.907  48.171  1.00  0.00    -0.015 A 
HETATM   27  C6  UNL     1      51.256 -45.319  46.936  1.00  0.00    -0.011 A 
HETATM   28  C7  UNL     1      52.366 -45.441  46.091  1.00  0.00     0.049 A 
HETATM   29  C8  UNL     1      53.496 -46.129  46.463  1.00  0.00     0.066 A 
HETATM   30  C9  UNL     1      53.555 -46.722  47.701  1.00  0.00     0.037 A 
HETATM   31  C10 UNL     1      52.470 -46.608  48.536  1.00  0.00     0.016 A 
BRANCH  27  32
HETATM   32  C5  UNL     1      50.100 -44.595  46.499  1.00  0.00    -0.009 A 
HETATM   33  C4  UNL     1      50.090 -43.228  46.485  1.00  0.00     0.015 A 
HETATM   34  C3  UNL     1      48.940 -42.554  46.044  1.00  0.00     0.028 A 
HETATM   35  C2  UNL     1      47.845 -43.278  45.633  1.00  0.00     0.032 A 
HETATM   36  N4  UNL     1      47.883 -44.621  45.657  1.00  0.00    -0.367 N 
HETATM   37  C29 UNL     1      48.983 -45.265  46.079  1.00  0.00     0.100 A 
ATOM     38  H4  UNL     1      47.070 -45.156  45.352  1.00  0.00     0.165 HD
BRANCH  35  39
HETATM   39  C1  UNL     1      46.596 -42.632  45.151  1.00  0.00     0.220 C 
BRANCH  39  40
HETATM   40  O1  UNL     1      46.284 -41.521  45.934  1.00  0.00    -0.395 OA
ATOM     41  H1  UNL     1      45.344 -41.441  46.041  1.00  0.00     0.209 HD
ENDBRANCH  39  40
ENDBRANCH  35  39
ENDBRANCH  27  32
BRANCH  29  42
HETATM   42  O2  UNL     1      54.556 -46.205  45.569  1.00  0.00    -0.361 OA
ATOM     43  H2  UNL     1      55.431 -46.000  45.879  1.00  0.00     0.217 HD
ENDBRANCH  29  42
ENDBRANCH   1  26
TORSDOF 10
ENDMDL
MODEL 5
REMARK VINA RESULT: -8.186418363      2.425      5.225
REMARK  10 active torsions:
REMARK  status: ('A' for Active; 'I' for Inactive)
REMARK    1  A    between atoms: O1_1  and  C1_3 
REMARK    2  A    between atoms: C1_3  and  C2_4 
REMARK    3  A    between atoms: C5_7  and  C6_8 
REMARK    4  A    between atoms: C8_10  and  O2_11 
REMARK    5  A    between atoms: C11_15  and  C12_16 
REMARK    6  A    between atoms: C16_20  and  C17_21 
REMARK    7  A    between atoms: C17_21  and  O3_22 
REMARK    8  A    between atoms: C17_21  and  N1_24 
REMARK    9  A    between atoms: N1_24  and  C18_26 
REMARK   10  A    between atoms: C20_28  and  C21_29 
ROOT
HETATM    1  C12 UNL     1      48.805 -44.350  47.467  1.00  0.00    -0.024 A 
HETATM    2  C13 UNL     1      48.893 -45.186  46.393  1.00  0.00     0.012 A 
HETATM    3  C14 UNL     1      49.233 -44.749  45.109  1.00  0.00     0.002 A 
HETATM    4  C15 UNL     1      49.492 -43.426  44.903  1.00  0.00     0.011 A 
HETATM    5  C16 UNL     1      49.411 -42.561  45.966  1.00  0.00    -0.009 A 
HETATM    6  C28 UNL     1      49.075 -42.999  47.232  1.00  0.00     0.024 A 
ENDROOT
BRANCH   5   7
HETATM    7  C17 UNL     1      49.697 -41.106  45.679  1.00  0.00     0.253 C 
BRANCH   7   8
HETATM    8  O3  UNL     1      50.906 -41.111  44.979  1.00  0.00    -0.372 OA
ATOM      9  H3  UNL     1      50.677 -41.383  44.098  1.00  0.00     0.212 HD
ENDBRANCH   7   8
BRANCH   7  10
HETATM   10  N1  UNL     1      49.763 -40.388  46.863  1.00  0.00    -0.346 N 
ATOM     11  H1  UNL     1      49.987 -40.992  47.654  1.00  0.00     0.164 HD
BRANCH  10  12
HETATM   12  C18 UNL     1      49.621 -39.185  47.227  1.00  0.00     0.103 A 
HETATM   13  C19 UNL     1      49.283 -38.734  48.485  1.00  0.00     0.060 A 
HETATM   14  C20 UNL     1      49.135 -37.380  48.793  1.00  0.00    -0.021 A 
HETATM   15  C26 UNL     1      49.337 -36.463  47.786  1.00  0.00     0.029 A 
HETATM   16  C27 UNL     1      49.679 -36.926  46.518  1.00  0.00     0.090 A 
HETATM   17  N3  UNL     1      49.812 -38.224  46.255  1.00  0.00    -0.352 N 
ATOM     18  H3  UNL     1      50.062 -38.517  45.311  1.00  0.00     0.166 HD
BRANCH  14  19
HETATM   19  C21 UNL     1      48.775 -36.949  50.135  1.00  0.00    -0.023 A 
HETATM   20  C22 UNL     1      47.593 -36.269  50.343  1.00  0.00     0.029 A 
HETATM   21  C23 UNL     1      47.222 -35.845  51.613  1.00  0.00     0.088 A 
HETATM   22  N2  UNL     1      48.055 -36.120  52.643  1.00  0.00    -0.375 N 
HETATM   23  C24 UNL     1      49.210 -36.778  52.482  1.00  0.00     0.088 A 
ATOM     24  H2  UNL     1      47.792 -35.815  53.580  1.00  0.00     0.164 HD
HETATM   25  C25 UNL     1      49.583 -37.199  51.229  1.00  0.00     0.029 A 
ENDBRANCH  14  19
ENDBRANCH  10  12
ENDBRANCH   7  10
ENDBRANCH   5   7
BRANCH   1  26
HETATM   26  C11 UNL     1      48.445 -44.832  48.776  1.00  0.00    -0.015 A 
HETATM   27  C6  UNL     1      49.321 -45.603  49.493  1.00  0.00    -0.011 A 
HETATM   28  C7  UNL     1      48.935 -46.045  50.763  1.00  0.00     0.049 A 
HETATM   29  C8  UNL     1      47.712 -45.732  51.308  1.00  0.00     0.066 A 
HETATM   30  C9  UNL     1      46.827 -44.959  50.594  1.00  0.00     0.037 A 
HETATM   31  C10 UNL     1      47.198 -44.520  49.346  1.00  0.00     0.016 A 
BRANCH  27  32
HETATM   32  C5  UNL     1      50.604 -45.961  48.969  1.00  0.00    -0.009 A 
HETATM   33  C4  UNL     1      50.874 -47.247  48.587  1.00  0.00     0.015 A 
HETATM   34  C3  UNL     1      52.142 -47.559  48.072  1.00  0.00     0.028 A 
HETATM   35  C2  UNL     1      53.090 -46.569  47.958  1.00  0.00     0.032 A 
HETATM   36  N4  UNL     1      52.797 -45.314  48.340  1.00  0.00    -0.367 N 
HETATM   37  C29 UNL     1      51.585 -45.016  48.833  1.00  0.00     0.100 A 
ATOM     38  H4  UNL     1      53.502 -44.582  48.255  1.00  0.00     0.165 HD
BRANCH  35  39
HETATM   39  C1  UNL     1      54.451 -46.825  47.419  1.00  0.00     0.220 C 
BRANCH  39  40
HETATM   40  O1  UNL     1      55.409 -46.119  48.146  1.00  0.00    -0.395 OA
ATOM     41  H1  UNL     1      56.199 -46.002  47.632  1.00  0.00     0.209 HD
ENDBRANCH  39  40
ENDBRANCH  35  39
ENDBRANCH  27  32
BRANCH  29  42
HETATM   42  O2  UNL     1      47.402 -46.209  52.574  1.00  0.00    -0.361 OA
ATOM     43  H2  UNL     1      47.159 -45.586  53.250  1.00  0.00     0.217 HD
ENDBRANCH  29  42
ENDBRANCH   1  26
TORSDOF 10
ENDMDL
