MODEL 1
REMARK VINA RESULT: -7.722218752      0.000      0.000
REMARK  13 active torsions:
REMARK  status: ('A' for Active; 'I' for Inactive)
REMARK    1  A    between atoms: C2_2  and  C4_4 
REMARK    2  A    between atoms: C6_6  and  C7_7 
REMARK    3  A    between atoms: C8_8  and  C9_9 
REMARK    4  A    between atoms: C9_9  and  C10_10 
REMARK    5  A    between atoms: C10_10  and  O1_11 
REMARK    6  A    between atoms: C10_10  and  C11_13 
REMARK    7  A    between atoms: C10_10  and  C17_21 
REMARK    8  A    between atoms: C11_13  and  C12_14 
REMARK    9  A    between atoms: C12_14  and  C13_15 
REMARK   10  A    between atoms: C13_15  and  C14_16 
REMARK   11  A    between atoms: C14_16  and  O2_19 
REMARK   12  A    between atoms: C19_23  and  O3_24 
REMARK   13  A    between atoms: C28_35  and  O5_36 
ROOT
HETATM    1  C10 UNL     1      51.416 -33.800  45.017  1.00  0.00     0.094 C 
ENDROOT
BRANCH   1   2
HETATM    2  C9  UNL     1      49.961 -33.870  45.425  1.00  0.00     0.134 C 
BRANCH   2   3
HETATM    3  C8  UNL     1      49.702 -35.011  46.261  1.00  0.00    -0.103 C 
HETATM    4  C7  UNL     1      49.439 -35.983  46.966  1.00  0.00    -0.102 C 
BRANCH   4   5
HETATM    5  C6  UNL     1      49.099 -37.142  47.804  1.00  0.00     0.066 C 
HETATM    6  C5  UNL     1      48.672 -36.620  49.133  1.00  0.00     0.029 C 
HETATM    7  C4  UNL     1      48.533 -37.733  50.187  1.00  0.00    -0.010 C 
HETATM    8  C28 UNL     1      47.899 -38.877  49.477  1.00  0.00     0.131 C 
HETATM    9  C29 UNL     1      49.888 -38.088  50.721  1.00  0.00     0.017 C 
HETATM   10  C27 UNL     1      48.898 -39.831  48.874  1.00  0.00     0.020 C 
HETATM   11  C24 UNL     1      50.222 -39.264  48.577  1.00  0.00    -0.003 C 
HETATM   12  C26 UNL     1      49.558 -40.502  50.096  1.00  0.00     0.012 C 
HETATM   13  C23 UNL     1      50.334 -37.954  47.963  1.00  0.00     0.022 C 
HETATM   14  C25 UNL     1      50.498 -39.296  50.075  1.00  0.00    -0.009 C 
BRANCH   7  15
HETATM   15  C2  UNL     1      47.689 -37.113  51.273  1.00  0.00    -0.012 C 
HETATM   16  C1  UNL     1      46.661 -36.137  50.785  1.00  0.00     0.010 C 
HETATM   17  C3  UNL     1      48.515 -36.454  52.346  1.00  0.00     0.010 C 
ENDBRANCH   7  15
BRANCH   8  18
HETATM   18  O5  UNL     1      47.169 -39.618  50.407  1.00  0.00    -0.394 OA
ATOM     19  H5  UNL     1      46.894 -39.032  51.103  1.00  0.00     0.210 HD
ENDBRANCH   8  18
ENDBRANCH   4   5
ENDBRANCH   2   3
ENDBRANCH   1   2
BRANCH   1  20
HETATM   20  O1  UNL     1      51.804 -35.185  45.080  1.00  0.00    -0.386 OA
ATOM     21  H1  UNL     1      51.769 -35.353  46.014  1.00  0.00     0.210 HD
ENDBRANCH   1  20
BRANCH   1  22
HETATM   22  C11 UNL     1      52.189 -33.078  46.063  1.00  0.00     0.041 C 
BRANCH  22  23
HETATM   23  C12 UNL     1      51.474 -31.972  46.762  1.00  0.00     0.006 C 
BRANCH  23  24
HETATM   24  C13 UNL     1      52.082 -30.630  46.639  1.00  0.00     0.037 C 
BRANCH  24  25
HETATM   25  C14 UNL     1      51.246 -29.694  45.773  1.00  0.00     0.051 C 
HETATM   26  C15 UNL     1      51.207 -28.359  46.490  1.00  0.00     0.045 C 
HETATM   27  C16 UNL     1      49.851 -30.192  45.578  1.00  0.00     0.045 C 
BRANCH  25  28
HETATM   28  O2  UNL     1      51.821 -29.482  44.531  1.00  0.00    -0.391 OA
ATOM     29  H2  UNL     1      51.316 -29.879  43.832  1.00  0.00     0.210 HD
ENDBRANCH  25  28
ENDBRANCH  24  25
ENDBRANCH  23  24
ENDBRANCH  22  23
ENDBRANCH   1  22
BRANCH   1  30
HETATM   30  C17 UNL     1      51.685 -33.397  43.626  1.00  0.00     0.160 C 
HETATM   31  C18 UNL     1      52.198 -34.340  42.639  1.00  0.00     0.069 C 
HETATM   32  C19 UNL     1      53.304 -33.591  41.927  1.00  0.00     0.154 C 
HETATM   33  C20 UNL     1      53.201 -32.209  42.491  1.00  0.00     0.080 C 
HETATM   34  C21 UNL     1      54.597 -31.741  42.862  1.00  0.00     0.048 C 
HETATM   35  C22 UNL     1      52.669 -31.214  41.474  1.00  0.00     0.048 C 
HETATM   36  O4  UNL     1      52.435 -32.219  43.620  1.00  0.00    -0.370 OA
BRANCH  32  37
HETATM   37  O3  UNL     1      54.549 -34.180  42.084  1.00  0.00    -0.392 OA
ATOM     38  H3  UNL     1      54.911 -34.507  41.269  1.00  0.00     0.210 HD
ENDBRANCH  32  37
ENDBRANCH   1  30
TORSDOF 13
ENDMDL
MODEL 2
REMARK VINA RESULT: -7.598412046      5.750      8.741
REMARK  13 active torsions:
REMARK  status: ('A' for Active; 'I' for Inactive)
REMARK    1  A    between atoms: C2_2  and  C4_4 
REMARK    2  A    between atoms: C6_6  and  C7_7 
REMARK    3  A    between atoms: C8_8  and  C9_9 
REMARK    4  A    between atoms: C9_9  and  C10_10 
REMARK    5  A    between atoms: C10_10  and  O1_11 
REMARK    6  A    between atoms: C10_10  and  C11_13 
REMARK    7  A    between atoms: C10_10  and  C17_21 
REMARK    8  A    between atoms: C11_13  and  C12_14 
REMARK    9  A    between atoms: C12_14  and  C13_15 
REMARK   10  A    between atoms: C13_15  and  C14_16 
REMARK   11  A    between atoms: C14_16  and  O2_19 
REMARK   12  A    between atoms: C19_23  and  O3_24 
REMARK   13  A    between atoms: C28_35  and  O5_36 
ROOT
HETATM    1  C10 UNL     1      49.582 -39.594  49.246  1.00  0.00     0.094 C 
ENDROOT
BRANCH   1   2
HETATM    2  C9  UNL     1      48.940 -39.947  50.570  1.00  0.00     0.134 C 
BRANCH   2   3
HETATM    3  C8  UNL     1      48.821 -41.370  50.735  1.00  0.00    -0.103 C 
HETATM    4  C7  UNL     1      48.726 -42.592  50.833  1.00  0.00    -0.102 C 
BRANCH   4   5
HETATM    5  C6  UNL     1      48.615 -44.055  50.925  1.00  0.00     0.066 C 
HETATM    6  C5  UNL     1      49.467 -44.634  49.850  1.00  0.00     0.029 C 
HETATM    7  C4  UNL     1      49.244 -46.147  49.670  1.00  0.00    -0.010 C 
HETATM    8  C28 UNL     1      49.117 -46.697  51.047  1.00  0.00     0.131 C 
HETATM    9  C29 UNL     1      48.003 -46.376  48.860  1.00  0.00     0.017 C 
HETATM   10  C27 UNL     1      47.696 -46.736  51.544  1.00  0.00     0.020 C 
HETATM   11  C24 UNL     1      46.773 -45.779  50.915  1.00  0.00    -0.003 C 
HETATM   12  C26 UNL     1      47.024 -47.818  50.673  1.00  0.00     0.012 C 
HETATM   13  C23 UNL     1      47.193 -44.410  50.678  1.00  0.00     0.022 C 
HETATM   14  C25 UNL     1      46.787 -46.676  49.684  1.00  0.00    -0.009 C 
BRANCH   7  15
HETATM   15  C2  UNL     1      50.459 -46.614  48.908  1.00  0.00    -0.012 C 
HETATM   16  C1  UNL     1      51.406 -45.522  48.511  1.00  0.00     0.010 C 
HETATM   17  C3  UNL     1      50.105 -47.418  47.685  1.00  0.00     0.010 C 
ENDBRANCH   7  15
BRANCH   8  18
HETATM   18  O5  UNL     1      49.557 -48.021  51.029  1.00  0.00    -0.394 OA
ATOM     19  H5  UNL     1      50.383 -48.066  51.496  1.00  0.00     0.210 HD
ENDBRANCH   8  18
ENDBRANCH   4   5
ENDBRANCH   2   3
ENDBRANCH   1   2
BRANCH   1  20
HETATM   20  O1  UNL     1      50.958 -39.941  49.487  1.00  0.00    -0.386 OA
ATOM     21  H1  UNL     1      51.026 -40.780  49.047  1.00  0.00     0.210 HD
ENDBRANCH   1  20
BRANCH   1  22
HETATM   22  C11 UNL     1      49.527 -38.120  49.047  1.00  0.00     0.041 C 
BRANCH  22  23
HETATM   23  C12 UNL     1      48.430 -37.402  49.757  1.00  0.00     0.006 C 
BRANCH  23  24
HETATM   24  C13 UNL     1      48.796 -36.108  50.369  1.00  0.00     0.037 C 
BRANCH  24  25
HETATM   25  C14 UNL     1      48.362 -36.015  51.828  1.00  0.00     0.051 C 
HETATM   26  C15 UNL     1      46.879 -35.699  51.820  1.00  0.00     0.045 C 
HETATM   27  C16 UNL     1      49.092 -34.944  52.572  1.00  0.00     0.045 C 
BRANCH  25  28
HETATM   28  O2  UNL     1      48.528 -37.215  52.498  1.00  0.00    -0.391 OA
ATOM     29  H2  UNL     1      47.774 -37.784  52.402  1.00  0.00     0.210 HD
ENDBRANCH  25  28
ENDBRANCH  24  25
ENDBRANCH  23  24
ENDBRANCH  22  23
ENDBRANCH   1  22
BRANCH   1  30
HETATM   30  C17 UNL     1      49.185 -40.413  48.088  1.00  0.00     0.160 C 
HETATM   31  C18 UNL     1      50.150 -41.227  47.356  1.00  0.00     0.069 C 
HETATM   32  C19 UNL     1      49.851 -40.961  45.897  1.00  0.00     0.154 C 
HETATM   33  C20 UNL     1      48.613 -40.122  45.947  1.00  0.00     0.080 C 
HETATM   34  C21 UNL     1      48.799 -38.943  45.008  1.00  0.00     0.048 C 
HETATM   35  C22 UNL     1      47.390 -40.876  45.457  1.00  0.00     0.048 C 
HETATM   36  O4  UNL     1      48.424 -39.640  47.210  1.00  0.00    -0.370 OA
BRANCH  32  37
HETATM   37  O3  UNL     1      50.911 -40.375  45.223  1.00  0.00    -0.392 OA
ATOM     38  H3  UNL     1      50.758 -40.293  44.289  1.00  0.00     0.210 HD
ENDBRANCH  32  37
ENDBRANCH   1  30
TORSDOF 13
ENDMDL
MODEL 3
REMARK VINA RESULT: -7.498787064      1.792      4.050
REMARK  13 active torsions:
REMARK  status: ('A' for Active; 'I' for Inactive)
REMARK    1  A    between atoms: C2_2  and  C4_4 
REMARK    2  A    between atoms: C6_6  and  C7_7 
REMARK    3  A    between atoms: C8_8  and  C9_9 
REMARK    4  A    between atoms: C9_9  and  C10_10 
REMARK    5  A    between atoms: C10_10  and  O1_11 
REMARK    6  A    between atoms: C10_10  and  C11_13 
REMARK    7  A    between atoms: C10_10  and  C17_21 
REMARK    8  A    between atoms: C11_13  and  C12_14 
REMARK    9  A    between atoms: C12_14  and  C13_15 
REMARK   10  A    between atoms: C13_15  and  C14_16 
REMARK   11  A    between atoms: C14_16  and  O2_19 
REMARK   12  A    between atoms: C19_23  and  O3_24 
REMARK   13  A    between atoms: C28_35  and  O5_36 
ROOT
HETATM    1  C10 UNL     1      51.245 -33.612  44.969  1.00  0.00     0.094 C 
ENDROOT
BRANCH   1   2
HETATM    2  C9  UNL     1      49.829 -33.667  45.500  1.00  0.00     0.134 C 
BRANCH   2   3
HETATM    3  C8  UNL     1      49.605 -34.854  46.280  1.00  0.00    -0.103 C 
HETATM    4  C7  UNL     1      49.372 -35.858  46.950  1.00  0.00    -0.102 C 
BRANCH   4   5
HETATM    5  C6  UNL     1      49.069 -37.051  47.755  1.00  0.00     0.066 C 
HETATM    6  C5  UNL     1      48.665 -36.582  49.110  1.00  0.00     0.029 C 
HETATM    7  C4  UNL     1      48.567 -37.733  50.128  1.00  0.00    -0.010 C 
HETATM    8  C28 UNL     1      47.934 -38.861  49.392  1.00  0.00     0.131 C 
HETATM    9  C29 UNL     1      49.939 -38.084  50.619  1.00  0.00     0.017 C 
HETATM   10  C27 UNL     1      48.933 -39.777  48.735  1.00  0.00     0.020 C 
HETATM   11  C24 UNL     1      50.242 -39.180  48.428  1.00  0.00    -0.003 C 
HETATM   12  C26 UNL     1      49.632 -40.479  49.918  1.00  0.00     0.012 C 
HETATM   13  C23 UNL     1      50.320 -37.847  47.857  1.00  0.00     0.022 C 
HETATM   14  C25 UNL     1      50.552 -39.258  49.917  1.00  0.00    -0.009 C 
BRANCH   7  15
HETATM   15  C2  UNL     1      47.738 -37.164  51.253  1.00  0.00    -0.012 C 
HETATM   16  C1  UNL     1      46.641 -36.240  50.816  1.00  0.00     0.010 C 
HETATM   17  C3  UNL     1      48.573 -36.469  52.295  1.00  0.00     0.010 C 
ENDBRANCH   7  15
BRANCH   8  18
HETATM   18  O5  UNL     1      47.237 -39.645  50.312  1.00  0.00    -0.394 OA
ATOM     19  H5  UNL     1      47.823 -39.850  51.031  1.00  0.00     0.210 HD
ENDBRANCH   8  18
ENDBRANCH   4   5
ENDBRANCH   2   3
ENDBRANCH   1   2
BRANCH   1  20
HETATM   20  O1  UNL     1      51.097 -32.744  43.831  1.00  0.00    -0.386 OA
ATOM     21  H1  UNL     1      51.976 -32.396  43.736  1.00  0.00     0.210 HD
ENDBRANCH   1  20
BRANCH   1  22
HETATM   22  C11 UNL     1      51.632 -34.953  44.454  1.00  0.00     0.041 C 
BRANCH  22  23
HETATM   23  C12 UNL     1      51.314 -35.224  43.022  1.00  0.00     0.006 C 
BRANCH  23  24
HETATM   24  C13 UNL     1      50.062 -35.967  42.769  1.00  0.00     0.037 C 
BRANCH  24  25
HETATM   25  C14 UNL     1      50.310 -37.452  42.526  1.00  0.00     0.051 C 
HETATM   26  C15 UNL     1      49.217 -37.927  41.589  1.00  0.00     0.045 C 
HETATM   27  C16 UNL     1      50.262 -38.252  43.787  1.00  0.00     0.045 C 
BRANCH  25  28
HETATM   28  O2  UNL     1      51.523 -37.681  41.898  1.00  0.00    -0.391 OA
ATOM     29  H2  UNL     1      52.249 -37.672  42.511  1.00  0.00     0.210 HD
ENDBRANCH  25  28
ENDBRANCH  24  25
ENDBRANCH  23  24
ENDBRANCH  22  23
ENDBRANCH   1  22
BRANCH   1  30
HETATM   30  C17 UNL     1      52.238 -32.942  45.826  1.00  0.00     0.160 C 
HETATM   31  C18 UNL     1      51.985 -31.631  46.415  1.00  0.00     0.069 C 
HETATM   32  C19 UNL     1      53.260 -30.850  46.182  1.00  0.00     0.154 C 
HETATM   33  C20 UNL     1      54.189 -31.873  45.608  1.00  0.00     0.080 C 
HETATM   34  C21 UNL     1      54.874 -31.266  44.396  1.00  0.00     0.048 C 
HETATM   35  C22 UNL     1      55.291 -32.255  46.579  1.00  0.00     0.048 C 
HETATM   36  O4  UNL     1      53.486 -32.969  45.201  1.00  0.00    -0.370 OA
BRANCH  32  37
HETATM   37  O3  UNL     1      53.076 -29.734  45.382  1.00  0.00    -0.392 OA
ATOM     38  H3  UNL     1      53.379 -28.930  45.788  1.00  0.00     0.210 HD
ENDBRANCH  32  37
ENDBRANCH   1  30
TORSDOF 13
ENDMDL
MODEL 4
REMARK VINA RESULT: -7.497549407      4.314      8.606
REMARK  13 active torsions:
REMARK  status: ('A' for Active; 'I' for Inactive)
REMARK    1  A    between atoms: C2_2  and  C4_4 
REMARK    2  A    between atoms: C6_6  and  C7_7 
REMARK    3  A    between atoms: C8_8  and  C9_9 
REMARK    4  A    between atoms: C9_9  and  C10_10 
REMARK    5  A    between atoms: C10_10  and  O1_11 
REMARK    6  A    between atoms: C10_10  and  C11_13 
REMARK    7  A    between atoms: C10_10  and  C17_21 
REMARK    8  A    between atoms: C11_13  and  C12_14 
REMARK    9  A    between atoms: C12_14  and  C13_15 
REMARK   10  A    between atoms: C13_15  and  C14_16 
REMARK   11  A    between atoms: C14_16  and  O2_19 
REMARK   12  A    between atoms: C19_23  and  O3_24 
REMARK   13  A    between atoms: C28_35  and  O5_36 
ROOT
HETATM    1  C10 UNL     1      49.514 -39.544  47.931  1.00  0.00     0.094 C 
ENDROOT
BRANCH   1   2
HETATM    2  C9  UNL     1      50.165 -40.852  47.535  1.00  0.00     0.134 C 
BRANCH   2   3
HETATM    3  C8  UNL     1      49.732 -41.932  48.380  1.00  0.00    -0.103 C 
HETATM    4  C7  UNL     1      49.394 -42.879  49.086  1.00  0.00    -0.102 C 
BRANCH   4   5
HETATM    5  C6  UNL     1      49.008 -44.027  49.920  1.00  0.00     0.066 C 
HETATM    6  C5  UNL     1      49.631 -45.241  49.322  1.00  0.00     0.029 C 
HETATM    7  C4  UNL     1      49.101 -46.545  49.946  1.00  0.00    -0.010 C 
HETATM    8  C28 UNL     1      48.994 -46.272  51.405  1.00  0.00     0.131 C 
HETATM    9  C29 UNL     1      47.772 -46.884  49.342  1.00  0.00     0.017 C 
HETATM   10  C27 UNL     1      47.643 -45.748  51.815  1.00  0.00     0.020 C 
HETATM   11  C24 UNL     1      46.872 -45.075  50.758  1.00  0.00    -0.003 C 
HETATM   12  C26 UNL     1      46.698 -46.950  51.614  1.00  0.00     0.012 C 
HETATM   13  C23 UNL     1      47.528 -44.146  49.857  1.00  0.00     0.022 C 
HETATM   14  C25 UNL     1      46.600 -46.454  50.171  1.00  0.00    -0.009 C 
BRANCH   7  15
HETATM   15  C2  UNL     1      50.129 -47.582  49.567  1.00  0.00    -0.012 C 
HETATM   16  C1  UNL     1      51.453 -47.024  49.143  1.00  0.00     0.010 C 
HETATM   17  C3  UNL     1      49.636 -48.526  48.502  1.00  0.00     0.010 C 
ENDBRANCH   7  15
BRANCH   8  18
HETATM   18  O5  UNL     1      49.164 -47.478  52.087  1.00  0.00    -0.394 OA
ATOM     19  H5  UNL     1      49.862 -47.963  51.663  1.00  0.00     0.210 HD
ENDBRANCH   8  18
ENDBRANCH   4   5
ENDBRANCH   2   3
ENDBRANCH   1   2
BRANCH   1  20
HETATM   20  O1  UNL     1      48.160 -39.744  47.486  1.00  0.00    -0.386 OA
ATOM     21  H1  UNL     1      47.664 -39.466  48.247  1.00  0.00     0.210 HD
ENDBRANCH   1  20
BRANCH   1  22
HETATM   22  C11 UNL     1      50.088 -38.440  47.115  1.00  0.00     0.041 C 
BRANCH  22  23
HETATM   23  C12 UNL     1      49.110 -37.593  46.374  1.00  0.00     0.006 C 
BRANCH  23  24
HETATM   24  C13 UNL     1      49.014 -36.184  46.810  1.00  0.00     0.037 C 
BRANCH  24  25
HETATM   25  C14 UNL     1      49.409 -35.210  45.705  1.00  0.00     0.051 C 
HETATM   26  C15 UNL     1      49.173 -35.926  44.390  1.00  0.00     0.045 C 
HETATM   27  C16 UNL     1      50.843 -34.799  45.794  1.00  0.00     0.045 C 
BRANCH  25  28
HETATM   28  O2  UNL     1      48.619 -34.073  45.708  1.00  0.00    -0.391 OA
ATOM     29  H2  UNL     1      48.376 -33.805  44.829  1.00  0.00     0.210 HD
ENDBRANCH  25  28
ENDBRANCH  24  25
ENDBRANCH  23  24
ENDBRANCH  22  23
ENDBRANCH   1  22
BRANCH   1  30
HETATM   30  C17 UNL     1      49.401 -39.283  49.376  1.00  0.00     0.160 C 
HETATM   31  C18 UNL     1      48.158 -39.519  50.104  1.00  0.00     0.069 C 
HETATM   32  C19 UNL     1      47.977 -38.289  50.967  1.00  0.00     0.154 C 
HETATM   33  C20 UNL     1      49.248 -37.529  50.753  1.00  0.00     0.080 C 
HETATM   34  C21 UNL     1      48.894 -36.075  50.496  1.00  0.00     0.048 C 
HETATM   35  C22 UNL     1      50.139 -37.545  51.983  1.00  0.00     0.048 C 
HETATM   36  O4  UNL     1      49.905 -38.012  49.660  1.00  0.00    -0.370 OA
BRANCH  32  37
HETATM   37  O3  UNL     1      46.828 -37.577  50.664  1.00  0.00    -0.392 OA
ATOM     38  H3  UNL     1      46.376 -37.253  51.435  1.00  0.00     0.210 HD
ENDBRANCH  32  37
ENDBRANCH   1  30
TORSDOF 13
ENDMDL
MODEL 5
REMARK VINA RESULT: -7.492377880      6.112      9.123
REMARK  13 active torsions:
REMARK  status: ('A' for Active; 'I' for Inactive)
REMARK    1  A    between atoms: C2_2  and  C4_4 
REMARK    2  A    between atoms: C6_6  and  C7_7 
REMARK    3  A    between atoms: C8_8  and  C9_9 
REMARK    4  A    between atoms: C9_9  and  C10_10 
REMARK    5  A    between atoms: C10_10  and  O1_11 
REMARK    6  A    between atoms: C10_10  and  C11_13 
REMARK    7  A    between atoms: C10_10  and  C17_21 
REMARK    8  A    between atoms: C11_13  and  C12_14 
REMARK    9  A    between atoms: C12_14  and  C13_15 
REMARK   10  A    between atoms: C13_15  and  C14_16 
REMARK   11  A    between atoms: C14_16  and  O2_19 
REMARK   12  A    between atoms: C19_23  and  O3_24 
REMARK   13  A    between atoms: C28_35  and  O5_36 
ROOT
HETATM    1  C10 UNL     1      49.658 -39.529  49.219  1.00  0.00     0.094 C 
ENDROOT
BRANCH   1   2
HETATM    2  C9  UNL     1      48.807 -39.987  50.384  1.00  0.00     0.134 C 
BRANCH   2   3
HETATM    3  C8  UNL     1      48.809 -41.420  50.507  1.00  0.00    -0.103 C 
HETATM    4  C7  UNL     1      48.772 -42.643  50.630  1.00  0.00    -0.102 C 
BRANCH   4   5
HETATM    5  C6  UNL     1      48.705 -44.103  50.790  1.00  0.00     0.066 C 
HETATM    6  C5  UNL     1      49.625 -44.703  49.784  1.00  0.00     0.029 C 
HETATM    7  C4  UNL     1      49.460 -46.230  49.670  1.00  0.00    -0.010 C 
HETATM    8  C28 UNL     1      49.288 -46.716  51.066  1.00  0.00     0.131 C 
HETATM    9  C29 UNL     1      48.266 -46.541  48.818  1.00  0.00     0.017 C 
HETATM   10  C27 UNL     1      47.847 -46.781  51.500  1.00  0.00     0.020 C 
HETATM   11  C24 UNL     1      46.923 -45.888  50.783  1.00  0.00    -0.003 C 
HETATM   12  C26 UNL     1      47.252 -47.926  50.655  1.00  0.00     0.012 C 
HETATM   13  C23 UNL     1      47.309 -44.518  50.497  1.00  0.00     0.022 C 
HETATM   14  C25 UNL     1      47.024 -46.843  49.601  1.00  0.00    -0.009 C 
BRANCH   7  15
HETATM   15  C2  UNL     1      50.724 -46.690  48.988  1.00  0.00    -0.012 C 
HETATM   16  C1  UNL     1      51.706 -45.599  48.689  1.00  0.00     0.010 C 
HETATM   17  C3  UNL     1      50.454 -47.461  47.723  1.00  0.00     0.010 C 
ENDBRANCH   7  15
BRANCH   8  18
HETATM   18  O5  UNL     1      49.772 -48.023  51.135  1.00  0.00    -0.394 OA
ATOM     19  H5  UNL     1      50.597 -48.010  51.605  1.00  0.00     0.210 HD
ENDBRANCH   8  18
ENDBRANCH   4   5
ENDBRANCH   2   3
ENDBRANCH   1   2
BRANCH   1  20
HETATM   20  O1  UNL     1      50.892 -40.227  49.466  1.00  0.00    -0.386 OA
ATOM     21  H1  UNL     1      50.953 -40.789  48.702  1.00  0.00     0.210 HD
ENDBRANCH   1  20
BRANCH   1  22
HETATM   22  C11 UNL     1      49.939 -38.074  49.353  1.00  0.00     0.041 C 
BRANCH  22  23
HETATM   23  C12 UNL     1      48.803 -37.156  49.054  1.00  0.00     0.006 C 
BRANCH  23  24
HETATM   24  C13 UNL     1      48.584 -36.062  50.023  1.00  0.00     0.037 C 
BRANCH  24  25
HETATM   25  C14 UNL     1      47.605 -36.452  51.125  1.00  0.00     0.051 C 
HETATM   26  C15 UNL     1      46.716 -35.247  51.362  1.00  0.00     0.045 C 
HETATM   27  C16 UNL     1      48.297 -36.815  52.399  1.00  0.00     0.045 C 
BRANCH  25  28
HETATM   28  O2  UNL     1      46.788 -37.504  50.746  1.00  0.00    -0.391 OA
ATOM     29  H2  UNL     1      45.867 -37.291  50.839  1.00  0.00     0.210 HD
ENDBRANCH  25  28
ENDBRANCH  24  25
ENDBRANCH  23  24
ENDBRANCH  22  23
ENDBRANCH   1  22
BRANCH   1  30
HETATM   30  C17 UNL     1      49.232 -39.980  47.883  1.00  0.00     0.160 C 
HETATM   31  C18 UNL     1      47.887 -40.490  47.637  1.00  0.00     0.069 C 
HETATM   32  C19 UNL     1      48.093 -41.735  46.801  1.00  0.00     0.154 C 
HETATM   33  C20 UNL     1      49.562 -41.719  46.518  1.00  0.00     0.080 C 
HETATM   34  C21 UNL     1      50.111 -43.111  46.776  1.00  0.00     0.048 C 
HETATM   35  C22 UNL     1      49.861 -41.401  45.064  1.00  0.00     0.048 C 
HETATM   36  O4  UNL     1      50.192 -40.846  47.356  1.00  0.00    -0.370 OA
BRANCH  32  37
HETATM   37  O3  UNL     1      47.644 -42.889  47.424  1.00  0.00    -0.392 OA
ATOM     38  H3  UNL     1      47.258 -43.512  46.820  1.00  0.00     0.210 HD
ENDBRANCH  32  37
ENDBRANCH   1  30
TORSDOF 13
ENDMDL
