MODEL 1
REMARK VINA RESULT: -9.421912960      0.000      0.000
REMARK  7 active torsions:
REMARK  status: ('A' for Active; 'I' for Inactive)
REMARK    1  A    between atoms: N1_1  and  C1_4 
REMARK    2  A    between atoms: C3_9  and  C4_10 
REMARK    3  A    between atoms: C4_10  and  O1_11 
REMARK    4  A    between atoms: C4_10  and  O2_13 
REMARK    5  A    between atoms: C5_15  and  N4_16 
REMARK       I    between atoms: N4_16  and  C6_18 
REMARK    6  A    between atoms: C6_18  and  C7_20 
REMARK    7  A    between atoms: C7_20  and  C8_22 
ROOT
HETATM    1  C1  UNL     1      27.121  15.681  -4.011  1.00  0.00     0.678 A 
HETATM    2  N2  UNL     1      26.364  16.042  -2.947  1.00  0.00    -0.178 N 
ATOM      3  H2  UNL     1      25.412  15.689  -2.849  1.00  0.00     0.185 HD
HETATM    4  C2  UNL     1      26.878  16.867  -2.023  1.00  0.00     0.146 A 
HETATM    5  N3  UNL     1      26.082  17.246  -0.906  1.00  0.00    -0.081 NA
HETATM    6  C3  UNL     1      28.186  17.333  -2.182  1.00  0.00     0.082 A 
HETATM    7  C5  UNL     1      28.951  16.963  -3.264  1.00  0.00     0.138 A 
HETATM    8  N6  UNL     1      28.392  16.138  -4.160  1.00  0.00    -0.176 N 
ATOM      9  H6  UNL     1      28.933  15.847  -4.975  1.00  0.00     0.186 HD
ENDROOT
BRANCH   7  10
HETATM   10  N4  UNL     1      30.143  17.424  -3.355  1.00  0.00    -0.305 N 
HETATM   11  C6  UNL     1      30.559  18.381  -4.308  1.00  0.00     0.302 C 
HETATM   12  O3  UNL     1      30.437  18.121  -5.521  1.00  0.00    -0.264 OA
ATOM     13  H4  UNL     1      30.840  17.076  -2.696  1.00  0.00     0.170 HD
BRANCH  11  14
HETATM   14  C7  UNL     1      31.122  19.661  -3.915  1.00  0.00     0.303 C 
HETATM   15  O4  UNL     1      30.653  20.759  -4.327  1.00  0.00    -0.277 OA
BRANCH  14  16
HETATM   16  C8  UNL     1      32.270  19.701  -3.015  1.00  0.00     0.310 C 
HETATM   17  N5  UNL     1      32.105  19.647  -1.607  1.00  0.00    -0.054 NA
HETATM   18  O5  UNL     1      33.439  19.785  -3.461  1.00  0.00    -0.267 OA
ENDBRANCH  14  16
ENDBRANCH  11  14
ENDBRANCH   7  10
BRANCH   6  19
HETATM   19  C4  UNL     1      28.757  18.239  -1.171  1.00  0.00     0.295 C 
BRANCH  19  20
HETATM   20  O1  UNL     1      30.000  17.773  -0.725  1.00  0.00    -0.367 OA
ATOM     21  H1  UNL     1      29.946  17.468   0.173  1.00  0.00     0.213 HD
ENDBRANCH  19  20
BRANCH  19  22
HETATM   22  O2  UNL     1      28.954  19.522  -1.695  1.00  0.00    -0.367 OA
ATOM     23  H2  UNL     1      29.595  19.512  -2.396  1.00  0.00     0.213 HD
ENDBRANCH  19  22
ENDBRANCH   6  19
BRANCH   1  24
HETATM   24  N1  UNL     1      26.570  14.888  -4.863  1.00  0.00    -0.234 N 
ATOM     25  H12 UNL     1      25.560  14.848  -4.996  1.00  0.00     0.174 HD
ATOM     26  H11 UNL     1      27.200  14.295  -5.404  1.00  0.00     0.174 HD
ENDBRANCH   1  24
TORSDOF 7
ENDMDL
MODEL 2
REMARK VINA RESULT: -9.300617636      1.498      1.504
REMARK  7 active torsions:
REMARK  status: ('A' for Active; 'I' for Inactive)
REMARK    1  A    between atoms: N1_1  and  C1_4 
REMARK    2  A    between atoms: C3_9  and  C4_10 
REMARK    3  A    between atoms: C4_10  and  O1_11 
REMARK    4  A    between atoms: C4_10  and  O2_13 
REMARK    5  A    between atoms: C5_15  and  N4_16 
REMARK       I    between atoms: N4_16  and  C6_18 
REMARK    6  A    between atoms: C6_18  and  C7_20 
REMARK    7  A    between atoms: C7_20  and  C8_22 
ROOT
HETATM    1  C1  UNL     1      27.870  14.860  -2.828  1.00  0.00     0.678 A 
HETATM    2  N2  UNL     1      27.467  15.016  -1.545  1.00  0.00    -0.178 N 
ATOM      3  H2  UNL     1      26.679  14.479  -1.183  1.00  0.00     0.185 HD
HETATM    4  C2  UNL     1      28.115  15.883  -0.752  1.00  0.00     0.146 A 
HETATM    5  N3  UNL     1      27.691  16.047   0.597  1.00  0.00    -0.081 NA
HETATM    6  C3  UNL     1      29.193  16.603  -1.274  1.00  0.00     0.082 A 
HETATM    7  C5  UNL     1      29.599  16.442  -2.578  1.00  0.00     0.138 A 
HETATM    8  N6  UNL     1      28.919  15.564  -3.329  1.00  0.00    -0.176 N 
ATOM      9  H6  UNL     1      29.195  15.422  -4.302  1.00  0.00     0.186 HD
ENDROOT
BRANCH   7  10
HETATM   10  N4  UNL     1      30.594  17.131  -2.999  1.00  0.00    -0.305 N 
HETATM   11  C6  UNL     1      30.523  18.079  -4.044  1.00  0.00     0.302 C 
HETATM   12  O3  UNL     1      30.147  17.709  -5.174  1.00  0.00    -0.264 OA
ATOM     13  H4  UNL     1      31.498  16.985  -2.549  1.00  0.00     0.170 HD
BRANCH  11  14
HETATM   14  C7  UNL     1      30.874  19.473  -3.841  1.00  0.00     0.303 C 
HETATM   15  O4  UNL     1      30.220  20.417  -4.367  1.00  0.00    -0.277 OA
BRANCH  14  16
HETATM   16  C8  UNL     1      32.018  19.817  -3.004  1.00  0.00     0.310 C 
HETATM   17  N5  UNL     1      33.337  19.828  -3.525  1.00  0.00    -0.054 NA
HETATM   18  O5  UNL     1      31.868  20.115  -1.794  1.00  0.00    -0.267 OA
ENDBRANCH  14  16
ENDBRANCH  11  14
ENDBRANCH   7  10
BRANCH   6  19
HETATM   19  C4  UNL     1      29.909  17.557  -0.409  1.00  0.00     0.295 C 
BRANCH  19  20
HETATM   20  O1  UNL     1      31.294  17.459  -0.594  1.00  0.00    -0.367 OA
ATOM     21  H1  UNL     1      31.544  16.572  -0.822  1.00  0.00     0.213 HD
ENDBRANCH  19  20
BRANCH  19  22
HETATM   22  O2  UNL     1      29.541  18.877  -0.697  1.00  0.00    -0.367 OA
ATOM     23  H2  UNL     1      30.249  19.480  -0.508  1.00  0.00     0.213 HD
ENDBRANCH  19  22
ENDBRANCH   6  19
BRANCH   1  24
HETATM   24  N1  UNL     1      27.208  14.014  -3.538  1.00  0.00    -0.234 N 
ATOM     25  H12 UNL     1      27.208  13.014  -3.335  1.00  0.00     0.174 HD
ATOM     26  H11 UNL     1      26.677  14.395  -4.321  1.00  0.00     0.174 HD
ENDBRANCH   1  24
TORSDOF 7
ENDMDL
MODEL 3
REMARK VINA RESULT: -8.666100186      2.050      2.601
REMARK  7 active torsions:
REMARK  status: ('A' for Active; 'I' for Inactive)
REMARK    1  A    between atoms: N1_1  and  C1_4 
REMARK    2  A    between atoms: C3_9  and  C4_10 
REMARK    3  A    between atoms: C4_10  and  O1_11 
REMARK    4  A    between atoms: C4_10  and  O2_13 
REMARK    5  A    between atoms: C5_15  and  N4_16 
REMARK       I    between atoms: N4_16  and  C6_18 
REMARK    6  A    between atoms: C6_18  and  C7_20 
REMARK    7  A    between atoms: C7_20  and  C8_22 
ROOT
HETATM    1  C1  UNL     1      28.561  16.040  -4.847  1.00  0.00     0.678 A 
HETATM    2  N2  UNL     1      27.473  15.385  -4.376  1.00  0.00    -0.178 N 
ATOM      3  H2  UNL     1      26.947  14.756  -4.983  1.00  0.00     0.185 HD
HETATM    4  C2  UNL     1      27.094  15.569  -3.103  1.00  0.00     0.146 A 
HETATM    5  N3  UNL     1      25.951  14.880  -2.609  1.00  0.00    -0.081 NA
HETATM    6  C3  UNL     1      27.835  16.434  -2.293  1.00  0.00     0.082 A 
HETATM    7  C5  UNL     1      28.939  17.097  -2.775  1.00  0.00     0.138 A 
HETATM    8  N6  UNL     1      29.277  16.880  -4.054  1.00  0.00    -0.176 N 
ATOM      9  H6  UNL     1      30.091  17.358  -4.442  1.00  0.00     0.186 HD
ENDROOT
BRANCH   7  10
HETATM   10  N4  UNL     1      29.577  17.878  -1.985  1.00  0.00    -0.305 N 
HETATM   11  C6  UNL     1      30.964  17.792  -1.725  1.00  0.00     0.302 C 
HETATM   12  O3  UNL     1      31.427  16.737  -1.251  1.00  0.00    -0.264 OA
ATOM     13  H4  UNL     1      29.049  18.610  -1.511  1.00  0.00     0.170 HD
BRANCH  11  14
HETATM   14  C7  UNL     1      31.865  18.899  -1.995  1.00  0.00     0.303 C 
HETATM   15  O4  UNL     1      32.131  19.778  -1.129  1.00  0.00    -0.277 OA
BRANCH  14  16
HETATM   16  C8  UNL     1      32.495  19.016  -3.306  1.00  0.00     0.310 C 
HETATM   17  N5  UNL     1      31.961  18.356  -4.442  1.00  0.00    -0.054 NA
HETATM   18  O5  UNL     1      33.530  19.707  -3.467  1.00  0.00    -0.267 OA
ENDBRANCH  14  16
ENDBRANCH  11  14
ENDBRANCH   7  10
BRANCH   6  19
HETATM   19  C4  UNL     1      27.424  16.642  -0.893  1.00  0.00     0.295 C 
BRANCH  19  20
HETATM   20  O1  UNL     1      26.083  17.037  -0.818  1.00  0.00    -0.367 OA
ATOM     21  H1  UNL     1      26.002  17.980  -0.898  1.00  0.00     0.213 HD
ENDBRANCH  19  20
BRANCH  19  22
HETATM   22  O2  UNL     1      27.557  15.465  -0.147  1.00  0.00    -0.367 OA
ATOM     23  H2  UNL     1      27.290  15.598   0.754  1.00  0.00     0.213 HD
ENDBRANCH  19  22
ENDBRANCH   6  19
BRANCH   1  24
HETATM   24  N1  UNL     1      28.874  15.821  -6.077  1.00  0.00    -0.234 N 
ATOM     25  H12 UNL     1      28.471  15.052  -6.613  1.00  0.00     0.174 HD
ATOM     26  H11 UNL     1      29.551  16.460  -6.494  1.00  0.00     0.174 HD
ENDBRANCH   1  24
TORSDOF 7
ENDMDL
MODEL 4
REMARK VINA RESULT: -8.410577094      1.200      1.620
REMARK  7 active torsions:
REMARK  status: ('A' for Active; 'I' for Inactive)
REMARK    1  A    between atoms: N1_1  and  C1_4 
REMARK    2  A    between atoms: C3_9  and  C4_10 
REMARK    3  A    between atoms: C4_10  and  O1_11 
REMARK    4  A    between atoms: C4_10  and  O2_13 
REMARK    5  A    between atoms: C5_15  and  N4_16 
REMARK       I    between atoms: N4_16  and  C6_18 
REMARK    6  A    between atoms: C6_18  and  C7_20 
REMARK    7  A    between atoms: C7_20  and  C8_22 
ROOT
HETATM    1  C1  UNL     1      27.971  16.017  -3.905  1.00  0.00     0.678 A 
HETATM    2  N2  UNL     1      27.150  16.304  -2.868  1.00  0.00    -0.178 N 
ATOM      3  H2  UNL     1      26.179  15.990  -2.877  1.00  0.00     0.185 HD
HETATM    4  C2  UNL     1      27.623  17.006  -1.828  1.00  0.00     0.146 A 
HETATM    5  N3  UNL     1      26.759  17.307  -0.738  1.00  0.00    -0.081 NA
HETATM    6  C3  UNL     1      28.958  17.421  -1.842  1.00  0.00     0.082 A 
HETATM    7  C5  UNL     1      29.789  17.127  -2.897  1.00  0.00     0.138 A 
HETATM    8  N6  UNL     1      29.268  16.425  -3.913  1.00  0.00    -0.176 N 
ATOM      9  H6  UNL     1      29.858  16.192  -4.712  1.00  0.00     0.186 HD
ENDROOT
BRANCH   7  10
HETATM   10  N4  UNL     1      31.002  17.537  -2.853  1.00  0.00    -0.305 N 
HETATM   11  C6  UNL     1      31.594  18.386  -3.815  1.00  0.00     0.302 C 
HETATM   12  O3  UNL     1      31.635  18.018  -5.005  1.00  0.00    -0.264 OA
ATOM     13  H4  UNL     1      31.580  17.228  -2.071  1.00  0.00     0.170 HD
BRANCH  11  14
HETATM   14  C7  UNL     1      32.155  19.677  -3.457  1.00  0.00     0.303 C 
HETATM   15  O4  UNL     1      33.350  19.809  -3.070  1.00  0.00    -0.277 OA
BRANCH  14  16
HETATM   16  C8  UNL     1      31.327  20.875  -3.541  1.00  0.00     0.310 C 
HETATM   17  N5  UNL     1      31.877  22.127  -3.917  1.00  0.00    -0.054 NA
HETATM   18  O5  UNL     1      30.100  20.833  -3.283  1.00  0.00    -0.267 OA
ENDBRANCH  14  16
ENDBRANCH  11  14
ENDBRANCH   7  10
BRANCH   6  19
HETATM   19  C4  UNL     1      29.485  18.192  -0.702  1.00  0.00     0.295 C 
BRANCH  19  20
HETATM   20  O1  UNL     1      30.805  17.824  -0.416  1.00  0.00    -0.367 OA
ATOM     21  H1  UNL     1      31.051  18.094   0.460  1.00  0.00     0.213 HD
ENDBRANCH  19  20
BRANCH  19  22
HETATM   22  O2  UNL     1      29.482  19.565  -0.975  1.00  0.00    -0.367 OA
ATOM     23  H2  UNL     1      29.430  19.729  -1.909  1.00  0.00     0.213 HD
ENDBRANCH  19  22
ENDBRANCH   6  19
BRANCH   1  24
HETATM   24  N1  UNL     1      27.457  15.341  -4.874  1.00  0.00    -0.234 N 
ATOM     25  H12 UNL     1      27.763  14.395  -5.101  1.00  0.00     0.174 HD
ATOM     26  H11 UNL     1      26.722  15.803  -5.410  1.00  0.00     0.174 HD
ENDBRANCH   1  24
TORSDOF 7
ENDMDL
MODEL 5
REMARK VINA RESULT: -8.366289176      1.697      2.054
REMARK  7 active torsions:
REMARK  status: ('A' for Active; 'I' for Inactive)
REMARK    1  A    between atoms: N1_1  and  C1_4 
REMARK    2  A    between atoms: C3_9  and  C4_10 
REMARK    3  A    between atoms: C4_10  and  O1_11 
REMARK    4  A    between atoms: C4_10  and  O2_13 
REMARK    5  A    between atoms: C5_15  and  N4_16 
REMARK       I    between atoms: N4_16  and  C6_18 
REMARK    6  A    between atoms: C6_18  and  C7_20 
REMARK    7  A    between atoms: C7_20  and  C8_22 
ROOT
HETATM    1  C1  UNL     1      28.096  15.930  -3.379  1.00  0.00     0.678 A 
HETATM    2  N2  UNL     1      27.688  15.818  -2.092  1.00  0.00    -0.178 N 
ATOM      3  H2  UNL     1      26.758  15.457  -1.876  1.00  0.00     0.185 HD
HETATM    4  C2  UNL     1      28.517  16.187  -1.104  1.00  0.00     0.146 A 
HETATM    5  N3  UNL     1      28.087  16.069   0.247  1.00  0.00    -0.081 NA
HETATM    6  C3  UNL     1      29.785  16.675  -1.430  1.00  0.00     0.082 A 
HETATM    7  C5  UNL     1      30.196  16.786  -2.738  1.00  0.00     0.138 A 
HETATM    8  N6  UNL     1      29.330  16.407  -3.689  1.00  0.00    -0.176 N 
ATOM      9  H6  UNL     1      29.604  16.478  -4.669  1.00  0.00     0.186 HD
ENDROOT
BRANCH   7  10
HETATM   10  N4  UNL     1      31.369  17.243  -2.974  1.00  0.00    -0.305 N 
HETATM   11  C6  UNL     1      31.649  18.309  -3.858  1.00  0.00     0.302 C 
HETATM   12  O3  UNL     1      31.318  18.206  -5.055  1.00  0.00    -0.264 OA
ATOM     13  H4  UNL     1      32.155  16.806  -2.491  1.00  0.00     0.170 HD
BRANCH  11  14
HETATM   14  C7  UNL     1      32.311  19.522  -3.412  1.00  0.00     0.303 C 
HETATM   15  O4  UNL     1      33.559  19.582  -3.232  1.00  0.00    -0.277 OA
BRANCH  14  16
HETATM   16  C8  UNL     1      31.524  20.725  -3.157  1.00  0.00     0.310 C 
HETATM   17  N5  UNL     1      31.774  21.932  -3.860  1.00  0.00    -0.054 NA
HETATM   18  O5  UNL     1      30.602  20.726  -2.307  1.00  0.00    -0.267 OA
ENDBRANCH  14  16
ENDBRANCH  11  14
ENDBRANCH   7  10
BRANCH   6  19
HETATM   19  C4  UNL     1      30.701  17.081  -0.350  1.00  0.00     0.295 C 
BRANCH  19  20
HETATM   20  O1  UNL     1      31.893  16.349  -0.403  1.00  0.00    -0.367 OA
ATOM     21  H1  UNL     1      32.247  16.213   0.468  1.00  0.00     0.213 HD
ENDBRANCH  19  20
BRANCH  19  22
HETATM   22  O2  UNL     1      31.036  18.436  -0.454  1.00  0.00    -0.367 OA
ATOM     23  H2  UNL     1      30.484  18.879  -1.087  1.00  0.00     0.213 HD
ENDBRANCH  19  22
ENDBRANCH   6  19
BRANCH   1  24
HETATM   24  N1  UNL     1      27.254  15.561  -4.281  1.00  0.00    -0.234 N 
ATOM     25  H12 UNL     1      27.298  15.906  -5.240  1.00  0.00     0.174 HD
ATOM     26  H11 UNL     1      26.534  14.900  -3.989  1.00  0.00     0.174 HD
ENDBRANCH   1  24
TORSDOF 7
ENDMDL
