MODEL 1
REMARK VINA RESULT: -9.478680193      0.000      0.000
REMARK  7 active torsions:
REMARK  status: ('A' for Active; 'I' for Inactive)
REMARK    1  A    between atoms: N1_1  and  C1_4 
REMARK    2  A    between atoms: C3_10  and  C4_11 
REMARK    3  A    between atoms: C4_11  and  N4_12 
REMARK    4  A    between atoms: C4_11  and  C5_16 
REMARK    5  A    between atoms: C5_16  and  O1_17 
REMARK    6  A    between atoms: C5_16  and  C6_19 
REMARK    7  A    between atoms: N6_22  and  N7_23 
ROOT
HETATM    1  C1  UNL     1      26.413  14.980  -4.086  1.00  0.00     0.678 A 
HETATM    2  N2  UNL     1      27.583  15.362  -4.619  1.00  0.00    -0.174 N 
ATOM      3  H2  UNL     1      27.940  15.141  -5.548  1.00  0.00     0.186 HD
HETATM    4  C2  UNL     1      28.190  16.101  -3.663  1.00  0.00     0.155 A 
HETATM    5  N3  UNL     1      29.360  16.729  -3.636  1.00  0.00    -0.326 N 
ATOM      6  H3  UNL     1      29.954  16.677  -4.464  1.00  0.00     0.169 HD
HETATM    7  C3  UNL     1      29.820  17.449  -2.550  1.00  0.00     0.142 A 
HETATM    8  N6  UNL     1      29.055  17.529  -1.457  1.00  0.00    -0.210 N 
HETATM    9  C7  UNL     1      27.850  16.888  -1.468  1.00  0.00     0.298 A 
HETATM   10  O3  UNL     1      27.135  16.974  -0.416  1.00  0.00    -0.263 OA
HETATM   11  C8  UNL     1      27.395  16.174  -2.544  1.00  0.00     0.163 A 
HETATM   12  N8  UNL     1      26.290  15.466  -2.830  1.00  0.00    -0.183 N 
ATOM     13  H8  UNL     1      25.495  15.321  -2.207  1.00  0.00     0.184 HD
ENDROOT
BRANCH   7  14
HETATM   14  C4  UNL     1      31.118  18.084  -2.722  1.00  0.00     0.289 C 
BRANCH  14  15
HETATM   15  N4  UNL     1      31.601  17.736  -4.069  1.00  0.00    -0.065 N 
ATOM     16  H43 UNL     1      30.966  17.117  -4.573  1.00  0.00     0.275 HD
ATOM     17  H42 UNL     1      31.566  18.521  -4.720  1.00  0.00     0.275 HD
ATOM     18  H41 UNL     1      32.538  17.346  -3.965  1.00  0.00     0.275 HD
ENDBRANCH  14  15
BRANCH  14  19
HETATM   19  C5  UNL     1      31.320  19.486  -2.334  1.00  0.00     0.245 C 
BRANCH  19  20
HETATM   20  O1  UNL     1      31.863  19.544  -1.051  1.00  0.00    -0.384 OA
ATOM     21  H1  UNL     1      32.028  20.449  -0.816  1.00  0.00     0.210 HD
ENDBRANCH  19  20
BRANCH  19  22
HETATM   22  C6  UNL     1      32.306  20.200  -3.223  1.00  0.00     0.262 C 
HETATM   23  N5  UNL     1      31.910  21.413  -3.797  1.00  0.00    -0.060 NA
HETATM   24  O2  UNL     1      33.450  19.783  -3.480  1.00  0.00    -0.274 OA
ENDBRANCH  19  22
ENDBRANCH  14  19
ENDBRANCH   7  14
BRANCH   8  25
HETATM   25  N7  UNL     1      29.438  18.260  -0.336  1.00  0.00    -0.334 N 
ATOM     26  H72 UNL     1      30.356  18.103   0.081  1.00  0.00     0.177 HD
ATOM     27  H71 UNL     1      28.821  18.941   0.105  1.00  0.00     0.177 HD
ENDBRANCH   8  25
BRANCH   1  28
HETATM   28  N1  UNL     1      25.540  14.249  -4.701  1.00  0.00    -0.234 N 
ATOM     29  H12 UNL     1      25.659  13.830  -5.624  1.00  0.00     0.174 HD
ATOM     30  H11 UNL     1      24.624  14.011  -4.321  1.00  0.00     0.174 HD
ENDBRANCH   1  28
TORSDOF 7
ENDMDL
MODEL 2
REMARK VINA RESULT: -9.289655502      2.015      5.739
REMARK  7 active torsions:
REMARK  status: ('A' for Active; 'I' for Inactive)
REMARK    1  A    between atoms: N1_1  and  C1_4 
REMARK    2  A    between atoms: C3_10  and  C4_11 
REMARK    3  A    between atoms: C4_11  and  N4_12 
REMARK    4  A    between atoms: C4_11  and  C5_16 
REMARK    5  A    between atoms: C5_16  and  O1_17 
REMARK    6  A    between atoms: C5_16  and  C6_19 
REMARK    7  A    between atoms: N6_22  and  N7_23 
ROOT
HETATM    1  C1  UNL     1      30.801  21.296  -3.827  1.00  0.00     0.678 A 
HETATM    2  N2  UNL     1      30.354  20.293  -4.598  1.00  0.00    -0.174 N 
ATOM      3  H2  UNL     1      30.355  20.250  -5.617  1.00  0.00     0.186 HD
HETATM    4  C2  UNL     1      29.903  19.352  -3.739  1.00  0.00     0.155 A 
HETATM    5  N3  UNL     1      29.356  18.158  -3.938  1.00  0.00    -0.326 N 
ATOM      6  H3  UNL     1      29.229  17.841  -4.900  1.00  0.00     0.169 HD
HETATM    7  C3  UNL     1      28.949  17.320  -2.917  1.00  0.00     0.142 A 
HETATM    8  N6  UNL     1      29.108  17.718  -1.651  1.00  0.00    -0.210 N 
HETATM    9  C7  UNL     1      29.668  18.944  -1.430  1.00  0.00     0.298 A 
HETATM   10  O3  UNL     1      29.811  19.308  -0.216  1.00  0.00    -0.263 OA
HETATM   11  C8  UNL     1      30.071  19.774  -2.442  1.00  0.00     0.163 A 
HETATM   12  N8  UNL     1      30.633  20.991  -2.520  1.00  0.00    -0.183 N 
ATOM     13  H8  UNL     1      30.890  21.583  -1.730  1.00  0.00     0.184 HD
ENDROOT
BRANCH   7  14
HETATM   14  C4  UNL     1      28.392  16.043  -3.338  1.00  0.00     0.289 C 
BRANCH  14  15
HETATM   15  N4  UNL     1      29.276  14.986  -2.815  1.00  0.00    -0.065 N 
ATOM     16  H43 UNL     1      28.772  14.144  -2.539  1.00  0.00     0.275 HD
ATOM     17  H42 UNL     1      29.860  14.561  -3.536  1.00  0.00     0.275 HD
ATOM     18  H41 UNL     1      29.818  15.394  -2.053  1.00  0.00     0.275 HD
ENDBRANCH  14  15
BRANCH  14  19
HETATM   19  C5  UNL     1      26.955  15.773  -3.197  1.00  0.00     0.245 C 
BRANCH  19  20
HETATM   20  O1  UNL     1      26.257  16.978  -3.125  1.00  0.00    -0.384 OA
ATOM     21  H1  UNL     1      25.719  17.082  -3.901  1.00  0.00     0.210 HD
ENDBRANCH  19  20
BRANCH  19  22
HETATM   22  C6  UNL     1      26.381  15.044  -4.384  1.00  0.00     0.262 C 
HETATM   23  N5  UNL     1      26.843  15.399  -5.656  1.00  0.00    -0.060 NA
HETATM   24  O2  UNL     1      25.523  14.145  -4.309  1.00  0.00    -0.274 OA
ENDBRANCH  19  22
ENDBRANCH  14  19
ENDBRANCH   7  14
BRANCH   8  25
HETATM   25  N7  UNL     1      28.751  16.918  -0.571  1.00  0.00    -0.334 N 
ATOM     26  H72 UNL     1      29.221  16.024  -0.426  1.00  0.00     0.177 HD
ATOM     27  H71 UNL     1      28.011  17.181   0.080  1.00  0.00     0.177 HD
ENDBRANCH   8  25
BRANCH   1  28
HETATM   28  N1  UNL     1      31.315  22.391  -4.287  1.00  0.00    -0.234 N 
ATOM     29  H12 UNL     1      32.154  22.849  -3.932  1.00  0.00     0.174 HD
ATOM     30  H11 UNL     1      30.926  22.922  -5.066  1.00  0.00     0.174 HD
ENDBRANCH   1  28
TORSDOF 7
ENDMDL
MODEL 3
REMARK VINA RESULT: -9.270474443      1.125      1.125
REMARK  7 active torsions:
REMARK  status: ('A' for Active; 'I' for Inactive)
REMARK    1  A    between atoms: N1_1  and  C1_4 
REMARK    2  A    between atoms: C3_10  and  C4_11 
REMARK    3  A    between atoms: C4_11  and  N4_12 
REMARK    4  A    between atoms: C4_11  and  C5_16 
REMARK    5  A    between atoms: C5_16  and  O1_17 
REMARK    6  A    between atoms: C5_16  and  C6_19 
REMARK    7  A    between atoms: N6_22  and  N7_23 
ROOT
HETATM    1  C1  UNL     1      26.437  14.743  -3.503  1.00  0.00     0.678 A 
HETATM    2  N2  UNL     1      27.268  15.441  -4.292  1.00  0.00    -0.174 N 
ATOM      3  H2  UNL     1      27.257  15.490  -5.311  1.00  0.00     0.186 HD
HETATM    4  C2  UNL     1      28.122  16.067  -3.451  1.00  0.00     0.155 A 
HETATM    5  N3  UNL     1      29.145  16.885  -3.672  1.00  0.00    -0.326 N 
ATOM      6  H3  UNL     1      29.375  17.119  -4.638  1.00  0.00     0.169 HD
HETATM    7  C3  UNL     1      29.917  17.437  -2.667  1.00  0.00     0.142 A 
HETATM    8  N6  UNL     1      29.631  17.142  -1.396  1.00  0.00    -0.210 N 
HETATM    9  C7  UNL     1      28.582  16.302  -1.152  1.00  0.00     0.298 A 
HETATM   10  O3  UNL     1      28.325  16.031   0.067  1.00  0.00    -0.263 OA
HETATM   11  C8  UNL     1      27.818  15.754  -2.148  1.00  0.00     0.163 A 
HETATM   12  N8  UNL     1      26.763  14.926  -2.203  1.00  0.00    -0.183 N 
ATOM     13  H8  UNL     1      26.288  14.507  -1.404  1.00  0.00     0.184 HD
ENDROOT
BRANCH   7  14
HETATM   14  C4  UNL     1      30.981  18.326  -3.110  1.00  0.00     0.289 C 
BRANCH  14  15
HETATM   15  N4  UNL     1      31.612  17.703  -4.286  1.00  0.00    -0.065 N 
ATOM     16  H43 UNL     1      32.338  17.030  -4.040  1.00  0.00     0.275 HD
ATOM     17  H42 UNL     1      30.992  17.057  -4.776  1.00  0.00     0.275 HD
ATOM     18  H41 UNL     1      31.953  18.458  -4.883  1.00  0.00     0.275 HD
ENDBRANCH  14  15
BRANCH  14  19
HETATM   19  C5  UNL     1      30.744  19.771  -3.227  1.00  0.00     0.245 C 
BRANCH  19  20
HETATM   20  O1  UNL     1      30.249  20.264  -2.020  1.00  0.00    -0.384 OA
ATOM     21  H1  UNL     1      29.539  20.871  -2.190  1.00  0.00     0.210 HD
ENDBRANCH  19  20
BRANCH  19  22
HETATM   22  C6  UNL     1      32.007  20.549  -3.493  1.00  0.00     0.262 C 
HETATM   23  N5  UNL     1      33.230  19.895  -3.302  1.00  0.00    -0.060 NA
HETATM   24  O2  UNL     1      32.036  21.733  -3.873  1.00  0.00    -0.274 OA
ENDBRANCH  19  22
ENDBRANCH  14  19
ENDBRANCH   7  14
BRANCH   8  25
HETATM   25  N7  UNL     1      30.344  17.683  -0.330  1.00  0.00    -0.334 N 
ATOM     26  H72 UNL     1      31.349  17.831  -0.418  1.00  0.00     0.177 HD
ATOM     27  H71 UNL     1      29.900  17.920   0.556  1.00  0.00     0.177 HD
ENDBRANCH   8  25
BRANCH   1  28
HETATM   28  N1  UNL     1      25.469  14.005  -3.943  1.00  0.00    -0.234 N 
ATOM     29  H12 UNL     1      25.356  13.683  -4.904  1.00  0.00     0.174 HD
ATOM     30  H11 UNL     1      24.703  13.662  -3.363  1.00  0.00     0.174 HD
ENDBRANCH   1  28
TORSDOF 7
ENDMDL
MODEL 4
REMARK VINA RESULT: -9.168689458      1.097      1.188
REMARK  7 active torsions:
REMARK  status: ('A' for Active; 'I' for Inactive)
REMARK    1  A    between atoms: N1_1  and  C1_4 
REMARK    2  A    between atoms: C3_10  and  C4_11 
REMARK    3  A    between atoms: C4_11  and  N4_12 
REMARK    4  A    between atoms: C4_11  and  C5_16 
REMARK    5  A    between atoms: C5_16  and  O1_17 
REMARK    6  A    between atoms: C5_16  and  C6_19 
REMARK    7  A    between atoms: N6_22  and  N7_23 
ROOT
HETATM    1  C1  UNL     1      26.344  14.943  -4.044  1.00  0.00     0.678 A 
HETATM    2  N2  UNL     1      27.609  15.115  -4.458  1.00  0.00    -0.174 N 
ATOM      3  H2  UNL     1      28.034  14.752  -5.310  1.00  0.00     0.186 HD
HETATM    4  C2  UNL     1      28.200  15.870  -3.505  1.00  0.00     0.155 A 
HETATM    5  N3  UNL     1      29.435  16.344  -3.386  1.00  0.00    -0.326 N 
ATOM      6  H3  UNL     1      30.105  16.129  -4.125  1.00  0.00     0.169 HD
HETATM    7  C3  UNL     1      29.864  17.112  -2.321  1.00  0.00     0.142 A 
HETATM    8  N6  UNL     1      28.999  17.405  -1.345  1.00  0.00    -0.210 N 
HETATM    9  C7  UNL     1      27.726  16.924  -1.451  1.00  0.00     0.298 A 
HETATM   10  O3  UNL     1      26.915  17.212  -0.510  1.00  0.00    -0.263 OA
HETATM   11  C8  UNL     1      27.301  16.162  -2.506  1.00  0.00     0.163 A 
HETATM   12  N8  UNL     1      26.148  15.573  -2.864  1.00  0.00    -0.183 N 
ATOM     13  H8  UNL     1      25.275  15.597  -2.336  1.00  0.00     0.184 HD
ENDROOT
BRANCH   7  14
HETATM   14  C4  UNL     1      31.249  17.555  -2.384  1.00  0.00     0.289 C 
BRANCH  14  15
HETATM   15  N4  UNL     1      32.090  16.424  -1.957  1.00  0.00    -0.065 N 
ATOM     16  H43 UNL     1      31.567  15.702  -1.463  1.00  0.00     0.275 HD
ATOM     17  H42 UNL     1      32.409  15.848  -2.736  1.00  0.00     0.275 HD
ATOM     18  H41 UNL     1      32.858  16.809  -1.405  1.00  0.00     0.275 HD
ENDBRANCH  14  15
BRANCH  14  19
HETATM   19  C5  UNL     1      31.745  18.288  -3.557  1.00  0.00     0.245 C 
BRANCH  19  20
HETATM   20  O1  UNL     1      30.667  18.752  -4.310  1.00  0.00    -0.384 OA
ATOM     21  H1  UNL     1      30.574  18.223  -5.093  1.00  0.00     0.210 HD
ENDBRANCH  19  20
BRANCH  19  22
HETATM   22  C6  UNL     1      32.536  19.516  -3.185  1.00  0.00     0.262 C 
HETATM   23  N5  UNL     1      31.906  20.484  -2.394  1.00  0.00    -0.060 NA
HETATM   24  O2  UNL     1      33.711  19.726  -3.532  1.00  0.00    -0.274 OA
ENDBRANCH  19  22
ENDBRANCH  14  19
ENDBRANCH   7  14
BRANCH   8  25
HETATM   25  N7  UNL     1      29.350  18.198  -0.257  1.00  0.00    -0.334 N 
ATOM     26  H72 UNL     1      30.015  17.846   0.432  1.00  0.00     0.177 HD
ATOM     27  H71 UNL     1      28.947  19.122  -0.105  1.00  0.00     0.177 HD
ENDBRANCH   8  25
BRANCH   1  28
HETATM   28  N1  UNL     1      25.454  14.267  -4.696  1.00  0.00    -0.234 N 
ATOM     29  H12 UNL     1      25.628  13.418  -5.234  1.00  0.00     0.174 HD
ATOM     30  H11 UNL     1      24.466  14.517  -4.742  1.00  0.00     0.174 HD
ENDBRANCH   1  28
TORSDOF 7
ENDMDL
MODEL 5
REMARK VINA RESULT: -9.157694964      1.950      2.705
REMARK  7 active torsions:
REMARK  status: ('A' for Active; 'I' for Inactive)
REMARK    1  A    between atoms: N1_1  and  C1_4 
REMARK    2  A    between atoms: C3_10  and  C4_11 
REMARK    3  A    between atoms: C4_11  and  N4_12 
REMARK    4  A    between atoms: C4_11  and  C5_16 
REMARK    5  A    between atoms: C5_16  and  O1_17 
REMARK    6  A    between atoms: C5_16  and  C6_19 
REMARK    7  A    between atoms: N6_22  and  N7_23 
ROOT
HETATM    1  C1  UNL     1      26.638  14.781  -2.961  1.00  0.00     0.678 A 
HETATM    2  N2  UNL     1      27.100  15.645  -2.045  1.00  0.00    -0.174 N 
ATOM      3  H2  UNL     1      26.817  15.720  -1.068  1.00  0.00     0.186 HD
HETATM    4  C2  UNL     1      28.019  16.397  -2.691  1.00  0.00     0.155 A 
HETATM    5  N3  UNL     1      28.790  17.400  -2.286  1.00  0.00    -0.326 N 
ATOM      6  H3  UNL     1      28.715  17.701  -1.314  1.00  0.00     0.169 HD
HETATM    7  C3  UNL     1      29.686  18.059  -3.105  1.00  0.00     0.142 A 
HETATM    8  N6  UNL     1      29.797  17.678  -4.381  1.00  0.00    -0.210 N 
HETATM    9  C7  UNL     1      29.012  16.649  -4.814  1.00  0.00     0.298 A 
HETATM   10  O3  UNL     1      29.130  16.300  -6.035  1.00  0.00    -0.263 OA
HETATM   11  C8  UNL     1      28.123  15.997  -4.002  1.00  0.00     0.163 A 
HETATM   12  N8  UNL     1      27.251  14.985  -4.149  1.00  0.00    -0.183 N 
ATOM     13  H8  UNL     1      27.080  14.463  -5.008  1.00  0.00     0.184 HD
ENDROOT
BRANCH   7  14
HETATM   14  C4  UNL     1      30.456  19.118  -2.469  1.00  0.00     0.289 C 
BRANCH  14  15
HETATM   15  N4  UNL     1      29.534  19.867  -1.597  1.00  0.00    -0.065 N 
ATOM     16  H43 UNL     1      28.552  19.679  -1.799  1.00  0.00     0.275 HD
ATOM     17  H42 UNL     1      29.537  19.533  -0.633  1.00  0.00     0.275 HD
ATOM     18  H41 UNL     1      29.775  20.855  -1.677  1.00  0.00     0.275 HD
ENDBRANCH  14  15
BRANCH  14  19
HETATM   19  C5  UNL     1      31.771  18.834  -1.880  1.00  0.00     0.245 C 
BRANCH  19  20
HETATM   20  O1  UNL     1      31.727  17.616  -1.201  1.00  0.00    -0.384 OA
ATOM     21  H1  UNL     1      32.434  17.058  -1.502  1.00  0.00     0.210 HD
ENDBRANCH  19  20
BRANCH  19  22
HETATM   22  C6  UNL     1      32.853  18.679  -2.918  1.00  0.00     0.262 C 
HETATM   23  N5  UNL     1      33.318  19.835  -3.555  1.00  0.00    -0.060 NA
HETATM   24  O2  UNL     1      33.360  17.592  -3.247  1.00  0.00    -0.274 OA
ENDBRANCH  19  22
ENDBRANCH  14  19
ENDBRANCH   7  14
BRANCH   8  25
HETATM   25  N7  UNL     1      30.699  18.274  -5.257  1.00  0.00    -0.334 N 
ATOM     26  H72 UNL     1      31.700  18.219  -5.068  1.00  0.00     0.177 HD
ATOM     27  H71 UNL     1      30.395  18.790  -6.083  1.00  0.00     0.177 HD
ENDBRANCH   8  25
BRANCH   1  28
HETATM   28  N1  UNL     1      25.734  13.886  -2.723  1.00  0.00    -0.234 N 
ATOM     29  H12 UNL     1      24.941  13.666  -3.325  1.00  0.00     0.174 HD
ATOM     30  H11 UNL     1      25.718  13.296  -1.890  1.00  0.00     0.174 HD
ENDBRANCH   1  28
TORSDOF 7
ENDMDL
