MODEL 1
REMARK VINA RESULT: -8.470584879      0.000      0.000
REMARK  9 active torsions:
REMARK  status: ('A' for Active; 'I' for Inactive)
REMARK    1  A    between atoms: N5_15  and  C7_16 
REMARK    2  A    between atoms: N6_19  and  C10_20 
REMARK    3  A    between atoms: C10_20  and  O1_21 
REMARK    4  A    between atoms: C10_20  and  N7_23 
REMARK    5  A    between atoms: N7_23  and  C11_26 
REMARK    6  A    between atoms: C11_26  and  C12_27 
REMARK    7  A    between atoms: C12_27  and  O2_28 
REMARK    8  A    between atoms: C12_27  and  N8_30 
REMARK    9  A    between atoms: N8_30  and  O3_31 
ROOT
HETATM    1  C7  UNL     1      24.856  11.333   8.715  1.00  0.00     0.045 C 
HETATM    2  C8  UNL     1      25.994  10.708   8.878  1.00  0.00     0.030 C 
HETATM    3  C9  UNL     1      25.870   9.519   9.767  1.00  0.00     0.308 C 
HETATM    4  N6  UNL     1      24.555   9.644  10.313  1.00  0.00     0.153 N 
HETATM    5  C13 UNL     1      23.842  10.578   9.516  1.00  0.00     0.335 C 
ENDROOT
BRANCH   1   6
HETATM    6  N5  UNL     1      24.568  12.501   7.946  1.00  0.00    -0.294 N 
HETATM    7  C4  UNL     1      25.279  13.633   7.825  1.00  0.00     0.145 A 
HETATM    8  N3  UNL     1      26.439  14.041   8.353  1.00  0.00    -0.336 N 
HETATM    9  C5  UNL     1      24.640  14.522   6.975  1.00  0.00     0.122 A 
HETATM   10  C3  UNL     1      26.979  15.247   8.087  1.00  0.00     0.183 A 
ATOM     11  H3  UNL     1      26.936  13.413   8.984  1.00  0.00     0.168 HD
HETATM   12  N2  UNL     1      26.337  16.077   7.264  1.00  0.00    -0.337 N 
HETATM   13  C2  UNL     1      25.156  15.764   6.677  1.00  0.00     0.132 A 
ATOM     14  H2  UNL     1      26.752  16.988   7.069  1.00  0.00     0.168 HD
HETATM   15  N1  UNL     1      24.579  16.596   5.895  1.00  0.00    -0.379 N 
HETATM   16  C1  UNL     1      25.184  17.876   5.632  1.00  0.00     0.147 C 
ATOM     17  H1  UNL     1      23.692  16.352   5.457  1.00  0.00     0.160 HD
HETATM   18  N4  UNL     1      23.520  13.893   6.586  1.00  0.00    -0.346 N 
HETATM   19  C6  UNL     1      23.486  12.693   7.167  1.00  0.00     0.191 A 
ATOM     20  H4  UNL     1      22.815  14.269   5.953  1.00  0.00     0.167 HD
ENDBRANCH   1   6
BRANCH   4  21
HETATM   21  C10 UNL     1      23.925   8.380  10.492  1.00  0.00     0.560 C 
BRANCH  21  22
HETATM   22  O1  UNL     1      24.800   7.351  10.205  1.00  0.00    -0.347 OA
ATOM     23  H1  UNL     1      24.335   6.598   9.858  1.00  0.00     0.214 HD
ENDBRANCH  21  22
BRANCH  21  24
HETATM   24  N7  UNL     1      22.713   8.221   9.728  1.00  0.00    -0.017 N 
ATOM     25  H72 UNL     1      21.902   8.169  10.346  1.00  0.00     0.282 HD
ATOM     26  H71 UNL     1      22.489   9.080   9.224  1.00  0.00     0.282 HD
BRANCH  24  27
HETATM   27  C11 UNL     1      22.740   7.106   8.837  1.00  0.00     0.288 C 
BRANCH  27  28
HETATM   28  C12 UNL     1      21.466   6.295   9.099  1.00  0.00     0.264 C 
BRANCH  28  29
HETATM   29  O2  UNL     1      21.662   5.526  10.230  1.00  0.00    -0.376 OA
ATOM     30  H2  UNL     1      21.699   4.612   9.970  1.00  0.00     0.211 HD
ENDBRANCH  28  29
BRANCH  28  31
HETATM   31  N8  UNL     1      21.187   5.440   7.962  1.00  0.00    -0.070 NA
BRANCH  31  32
HETATM   32  O3  UNL     1      20.569   4.299   8.326  1.00  0.00    -0.294 OA
ATOM     33  H3  UNL     1      21.016   3.530   7.995  1.00  0.00     0.238 HD
ENDBRANCH  31  32
ENDBRANCH  28  31
ENDBRANCH  27  28
ENDBRANCH  24  27
ENDBRANCH  21  24
ENDBRANCH   4  21
TORSDOF 9
ENDMDL
MODEL 2
REMARK VINA RESULT: -8.122212573      4.913      9.039
REMARK  9 active torsions:
REMARK  status: ('A' for Active; 'I' for Inactive)
REMARK    1  A    between atoms: N5_15  and  C7_16 
REMARK    2  A    between atoms: N6_19  and  C10_20 
REMARK    3  A    between atoms: C10_20  and  O1_21 
REMARK    4  A    between atoms: C10_20  and  N7_23 
REMARK    5  A    between atoms: N7_23  and  C11_26 
REMARK    6  A    between atoms: C11_26  and  C12_27 
REMARK    7  A    between atoms: C12_27  and  O2_28 
REMARK    8  A    between atoms: C12_27  and  N8_30 
REMARK    9  A    between atoms: N8_30  and  O3_31 
ROOT
HETATM    1  C7  UNL     1      25.024  14.384   8.164  1.00  0.00     0.045 C 
HETATM    2  C8  UNL     1      25.952  15.037   8.814  1.00  0.00     0.030 C 
HETATM    3  C9  UNL     1      26.445  16.227   8.063  1.00  0.00     0.308 C 
HETATM    4  N6  UNL     1      25.861  16.071   6.768  1.00  0.00     0.153 N 
HETATM    5  C13 UNL     1      24.816  15.116   6.876  1.00  0.00     0.335 C 
ENDROOT
BRANCH   1   6
HETATM    6  N5  UNL     1      24.312  13.206   8.544  1.00  0.00    -0.294 N 
HETATM    7  C4  UNL     1      24.778  11.965   8.755  1.00  0.00     0.145 A 
HETATM    8  N3  UNL     1      26.002  11.427   8.686  1.00  0.00    -0.336 N 
HETATM    9  C5  UNL     1      23.747  11.110   9.112  1.00  0.00     0.122 A 
HETATM   10  C3  UNL     1      26.245  10.127   8.946  1.00  0.00     0.183 A 
ATOM     11  H3  UNL     1      26.784  12.027   8.425  1.00  0.00     0.168 HD
HETATM   12  N2  UNL     1      25.228   9.334   9.286  1.00  0.00    -0.337 N 
HETATM   13  C2  UNL     1      23.951   9.776   9.385  1.00  0.00     0.132 A 
ATOM     14  H2  UNL     1      25.420   8.351   9.480  1.00  0.00     0.168 HD
HETATM   15  N1  UNL     1      23.010   8.974   9.715  1.00  0.00    -0.379 N 
HETATM   16  C1  UNL     1      23.305   7.591   9.986  1.00  0.00     0.147 C 
ATOM     17  H1  UNL     1      22.052   9.314   9.787  1.00  0.00     0.160 HD
HETATM   18  N4  UNL     1      22.642  11.872   9.110  1.00  0.00    -0.346 N 
HETATM   19  C6  UNL     1      22.988  13.116   8.772  1.00  0.00     0.191 A 
ATOM     20  H4  UNL     1      21.699  11.555   9.330  1.00  0.00     0.167 HD
ENDBRANCH   1   6
BRANCH   4  21
HETATM   21  C10 UNL     1      25.498  17.320   6.190  1.00  0.00     0.560 C 
BRANCH  21  22
HETATM   22  O1  UNL     1      25.162  18.235   7.168  1.00  0.00    -0.347 OA
ATOM     23  H1  UNL     1      25.700  19.015   7.101  1.00  0.00     0.214 HD
ENDBRANCH  21  22
BRANCH  21  24
HETATM   24  N7  UNL     1      24.435  17.225   5.221  1.00  0.00    -0.017 N 
ATOM     25  H72 UNL     1      24.119  16.259   5.126  1.00  0.00     0.282 HD
ATOM     26  H71 UNL     1      23.580  17.650   5.580  1.00  0.00     0.282 HD
BRANCH  24  27
HETATM   27  C11 UNL     1      24.772  17.772   3.946  1.00  0.00     0.288 C 
BRANCH  27  28
HETATM   28  C12 UNL     1      23.870  18.994   3.732  1.00  0.00     0.264 C 
BRANCH  28  29
HETATM   29  O2  UNL     1      23.982  19.395   2.415  1.00  0.00    -0.376 OA
ATOM     30  H2  UNL     1      23.413  18.848   1.885  1.00  0.00     0.211 HD
ENDBRANCH  28  29
BRANCH  28  31
HETATM   31  N8  UNL     1      24.286  20.068   4.613  1.00  0.00    -0.070 NA
BRANCH  31  32
HETATM   32  O3  UNL     1      23.522  20.136   5.722  1.00  0.00    -0.294 OA
ATOM     33  H3  UNL     1      23.945  20.629   6.415  1.00  0.00     0.238 HD
ENDBRANCH  31  32
ENDBRANCH  28  31
ENDBRANCH  27  28
ENDBRANCH  24  27
ENDBRANCH  21  24
ENDBRANCH   4  21
TORSDOF 9
ENDMDL
MODEL 3
REMARK VINA RESULT: -7.760618587      7.727     10.286
REMARK  9 active torsions:
REMARK  status: ('A' for Active; 'I' for Inactive)
REMARK    1  A    between atoms: N5_15  and  C7_16 
REMARK    2  A    between atoms: N6_19  and  C10_20 
REMARK    3  A    between atoms: C10_20  and  O1_21 
REMARK    4  A    between atoms: C10_20  and  N7_23 
REMARK    5  A    between atoms: N7_23  and  C11_26 
REMARK    6  A    between atoms: C11_26  and  C12_27 
REMARK    7  A    between atoms: C12_27  and  O2_28 
REMARK    8  A    between atoms: C12_27  and  N8_30 
REMARK    9  A    between atoms: N8_30  and  O3_31 
ROOT
HETATM    1  C7  UNL     1      29.061  16.562   8.320  1.00  0.00     0.045 C 
HETATM    2  C8  UNL     1      27.916  16.716   7.707  1.00  0.00     0.030 C 
HETATM    3  C9  UNL     1      26.772  16.840   8.654  1.00  0.00     0.308 C 
HETATM    4  N6  UNL     1      27.346  16.503   9.919  1.00  0.00     0.153 N 
HETATM    5  C13 UNL     1      28.758  16.573   9.786  1.00  0.00     0.335 C 
ENDROOT
BRANCH   1   6
HETATM    6  N5  UNL     1      30.369  16.409   7.769  1.00  0.00    -0.294 N 
HETATM    7  C4  UNL     1      31.126  17.308   7.120  1.00  0.00     0.145 A 
HETATM    8  N3  UNL     1      30.930  18.588   6.780  1.00  0.00    -0.336 N 
HETATM    9  C5  UNL     1      32.338  16.748   6.750  1.00  0.00     0.122 A 
HETATM   10  C3  UNL     1      31.849  19.315   6.115  1.00  0.00     0.183 A 
ATOM     11  H3  UNL     1      30.049  19.031   7.036  1.00  0.00     0.168 HD
HETATM   12  N2  UNL     1      33.006  18.744   5.774  1.00  0.00    -0.337 N 
HETATM   13  C2  UNL     1      33.304  17.455   6.069  1.00  0.00     0.132 A 
ATOM     14  H2  UNL     1      33.695  19.302   5.269  1.00  0.00     0.168 HD
HETATM   15  N1  UNL     1      34.428  16.954   5.720  1.00  0.00    -0.379 N 
HETATM   16  C1  UNL     1      35.387  17.759   5.009  1.00  0.00     0.147 C 
ATOM     17  H1  UNL     1      34.645  15.984   5.945  1.00  0.00     0.160 HD
HETATM   18  N4  UNL     1      32.292  15.483   7.195  1.00  0.00    -0.346 N 
HETATM   19  C6  UNL     1      31.118  15.291   7.800  1.00  0.00     0.191 A 
ATOM     20  H4  UNL     1      33.029  14.786   7.089  1.00  0.00     0.167 HD
ENDBRANCH   1   6
BRANCH   4  21
HETATM   21  C10 UNL     1      26.789  17.267  10.982  1.00  0.00     0.560 C 
BRANCH  21  22
HETATM   22  O1  UNL     1      25.449  16.975  11.148  1.00  0.00    -0.347 OA
ATOM     23  H1  UNL     1      24.999  17.687  11.588  1.00  0.00     0.214 HD
ENDBRANCH  21  22
BRANCH  21  24
HETATM   24  N7  UNL     1      26.966  18.690  10.831  1.00  0.00    -0.017 N 
ATOM     25  H72 UNL     1      27.326  18.912   9.903  1.00  0.00     0.282 HD
ATOM     26  H71 UNL     1      26.063  19.162  10.781  1.00  0.00     0.282 HD
BRANCH  24  27
HETATM   27  C11 UNL     1      27.786  19.275  11.843  1.00  0.00     0.288 C 
BRANCH  27  28
HETATM   28  C12 UNL     1      26.937  20.345  12.540  1.00  0.00     0.264 C 
BRANCH  28  29
HETATM   29  O2  UNL     1      27.638  20.816  13.634  1.00  0.00    -0.376 OA
ATOM     30  H2  UNL     1      27.067  21.386  14.135  1.00  0.00     0.211 HD
ENDBRANCH  28  29
BRANCH  28  31
HETATM   31  N8  UNL     1      25.679  19.768  12.971  1.00  0.00    -0.070 NA
BRANCH  31  32
HETATM   32  O3  UNL     1      25.567  19.744  14.314  1.00  0.00    -0.294 OA
ATOM     33  H3  UNL     1      24.921  19.112  14.606  1.00  0.00     0.238 HD
ENDBRANCH  31  32
ENDBRANCH  28  31
ENDBRANCH  27  28
ENDBRANCH  24  27
ENDBRANCH  21  24
ENDBRANCH   4  21
TORSDOF 9
ENDMDL
MODEL 4
REMARK VINA RESULT: -7.744833649      4.337      8.417
REMARK  9 active torsions:
REMARK  status: ('A' for Active; 'I' for Inactive)
REMARK    1  A    between atoms: N5_15  and  C7_16 
REMARK    2  A    between atoms: N6_19  and  C10_20 
REMARK    3  A    between atoms: C10_20  and  O1_21 
REMARK    4  A    between atoms: C10_20  and  N7_23 
REMARK    5  A    between atoms: N7_23  and  C11_26 
REMARK    6  A    between atoms: C11_26  and  C12_27 
REMARK    7  A    between atoms: C12_27  and  O2_28 
REMARK    8  A    between atoms: C12_27  and  N8_30 
REMARK    9  A    between atoms: N8_30  and  O3_31 
ROOT
HETATM    1  C7  UNL     1      24.975  14.405   8.173  1.00  0.00     0.045 C 
HETATM    2  C8  UNL     1      25.896  15.081   8.810  1.00  0.00     0.030 C 
HETATM    3  C9  UNL     1      26.366  16.268   8.042  1.00  0.00     0.308 C 
HETATM    4  N6  UNL     1      25.781  16.086   6.751  1.00  0.00     0.153 N 
HETATM    5  C13 UNL     1      24.751  15.116   6.876  1.00  0.00     0.335 C 
ENDROOT
BRANCH   1   6
HETATM    6  N5  UNL     1      24.284  13.221   8.572  1.00  0.00    -0.294 N 
HETATM    7  C4  UNL     1      24.766  11.984   8.770  1.00  0.00     0.145 A 
HETATM    8  N3  UNL     1      25.992  11.457   8.669  1.00  0.00    -0.336 N 
HETATM    9  C5  UNL     1      23.752  11.121   9.154  1.00  0.00     0.122 A 
HETATM   10  C3  UNL     1      26.253  10.159   8.922  1.00  0.00     0.183 A 
ATOM     11  H3  UNL     1      26.762  12.063   8.387  1.00  0.00     0.168 HD
HETATM   12  N2  UNL     1      25.252   9.357   9.289  1.00  0.00    -0.337 N 
HETATM   13  C2  UNL     1      23.974   9.788   9.422  1.00  0.00     0.132 A 
ATOM     14  H2  UNL     1      25.458   8.375   9.478  1.00  0.00     0.168 HD
HETATM   15  N1  UNL     1      23.050   8.978   9.776  1.00  0.00    -0.379 N 
HETATM   16  C1  UNL     1      23.363   7.597  10.039  1.00  0.00     0.147 C 
ATOM     17  H1  UNL     1      22.091   9.310   9.874  1.00  0.00     0.160 HD
HETATM   18  N4  UNL     1      22.641  11.873   9.181  1.00  0.00    -0.346 N 
HETATM   19  C6  UNL     1      22.967  13.120   8.834  1.00  0.00     0.191 A 
ATOM     20  H4  UNL     1      21.706  11.548   9.425  1.00  0.00     0.167 HD
ENDBRANCH   1   6
BRANCH   4  21
HETATM   21  C10 UNL     1      25.395  17.321   6.157  1.00  0.00     0.560 C 
BRANCH  21  22
HETATM   22  O1  UNL     1      25.112  18.264   7.126  1.00  0.00    -0.347 OA
ATOM     23  H1  UNL     1      25.449  19.117   6.876  1.00  0.00     0.214 HD
ENDBRANCH  21  22
BRANCH  21  24
HETATM   24  N7  UNL     1      24.285  17.206   5.245  1.00  0.00    -0.017 N 
ATOM     25  H72 UNL     1      23.934  16.249   5.223  1.00  0.00     0.282 HD
ATOM     26  H71 UNL     1      23.462  17.682   5.616  1.00  0.00     0.282 HD
BRANCH  24  27
HETATM   27  C11 UNL     1      24.580  17.665   3.925  1.00  0.00     0.288 C 
BRANCH  27  28
HETATM   28  C12 UNL     1      25.819  16.894   3.452  1.00  0.00     0.264 C 
BRANCH  28  29
HETATM   29  O2  UNL     1      26.551  17.715   2.616  1.00  0.00    -0.376 OA
ATOM     30  H2  UNL     1      25.978  18.399   2.288  1.00  0.00     0.211 HD
ENDBRANCH  28  29
BRANCH  28  31
HETATM   31  N8  UNL     1      25.409  15.701   2.739  1.00  0.00    -0.070 NA
BRANCH  31  32
HETATM   32  O3  UNL     1      24.586  14.929   3.475  1.00  0.00    -0.294 OA
ATOM     33  H3  UNL     1      24.940  14.058   3.611  1.00  0.00     0.238 HD
ENDBRANCH  31  32
ENDBRANCH  28  31
ENDBRANCH  27  28
ENDBRANCH  24  27
ENDBRANCH  21  24
ENDBRANCH   4  21
TORSDOF 9
ENDMDL
MODEL 5
REMARK VINA RESULT: -7.724405355      5.085      9.193
REMARK  9 active torsions:
REMARK  status: ('A' for Active; 'I' for Inactive)
REMARK    1  A    between atoms: N5_15  and  C7_16 
REMARK    2  A    between atoms: N6_19  and  C10_20 
REMARK    3  A    between atoms: C10_20  and  O1_21 
REMARK    4  A    between atoms: C10_20  and  N7_23 
REMARK    5  A    between atoms: N7_23  and  C11_26 
REMARK    6  A    between atoms: C11_26  and  C12_27 
REMARK    7  A    between atoms: C12_27  and  O2_28 
REMARK    8  A    between atoms: C12_27  and  N8_30 
REMARK    9  A    between atoms: N8_30  and  O3_31 
ROOT
HETATM    1  C7  UNL     1      25.646  14.597   8.535  1.00  0.00     0.045 C 
HETATM    2  C8  UNL     1      26.466  14.831   7.543  1.00  0.00     0.030 C 
HETATM    3  C9  UNL     1      27.227  16.100   7.719  1.00  0.00     0.308 C 
HETATM    4  N6  UNL     1      26.585  16.725   8.832  1.00  0.00     0.153 N 
HETATM    5  C13 UNL     1      25.802  15.739   9.489  1.00  0.00     0.335 C 
ENDROOT
BRANCH   1   6
HETATM    6  N5  UNL     1      24.755  13.499   8.732  1.00  0.00    -0.294 N 
HETATM    7  C4  UNL     1      25.036  12.193   8.866  1.00  0.00     0.145 A 
HETATM    8  N3  UNL     1      26.183  11.502   8.862  1.00  0.00    -0.336 N 
HETATM    9  C5  UNL     1      23.873  11.459   9.041  1.00  0.00     0.122 A 
HETATM   10  C3  UNL     1      26.230  10.165   9.018  1.00  0.00     0.183 A 
ATOM     11  H3  UNL     1      27.057  12.010   8.734  1.00  0.00     0.168 HD
HETATM   12  N2  UNL     1      25.091   9.491   9.184  1.00  0.00    -0.337 N 
HETATM   13  C2  UNL     1      23.877  10.092   9.204  1.00  0.00     0.132 A 
ATOM     14  H2  UNL     1      25.136   8.478   9.300  1.00  0.00     0.168 HD
HETATM   15  N1  UNL     1      22.813   9.400   9.366  1.00  0.00    -0.379 N 
HETATM   16  C1  UNL     1      22.900   7.972   9.530  1.00  0.00     0.147 C 
ATOM     17  H1  UNL     1      21.903   9.860   9.380  1.00  0.00     0.160 HD
HETATM   18  N4  UNL     1      22.880  12.361   9.008  1.00  0.00    -0.346 N 
HETATM   19  C6  UNL     1      23.413  13.571   8.824  1.00  0.00     0.191 A 
ATOM     20  H4  UNL     1      21.886  12.157   9.106  1.00  0.00     0.167 HD
ENDBRANCH   1   6
BRANCH   4  21
HETATM   21  C10 UNL     1      27.507  17.429   9.657  1.00  0.00     0.560 C 
BRANCH  21  22
HETATM   22  O1  UNL     1      28.276  16.551  10.395  1.00  0.00    -0.347 OA
ATOM     23  H1  UNL     1      27.965  16.499  11.292  1.00  0.00     0.214 HD
ENDBRANCH  21  22
BRANCH  21  24
HETATM   24  N7  UNL     1      26.886  18.393  10.532  1.00  0.00    -0.017 N 
ATOM     25  H72 UNL     1      26.683  19.257  10.030  1.00  0.00     0.282 HD
ATOM     26  H71 UNL     1      25.936  18.106  10.768  1.00  0.00     0.282 HD
BRANCH  24  27
HETATM   27  C11 UNL     1      27.640  18.661  11.714  1.00  0.00     0.288 C 
BRANCH  27  28
HETATM   28  C12 UNL     1      27.055  19.934  12.337  1.00  0.00     0.264 C 
BRANCH  28  29
HETATM   29  O2  UNL     1      27.857  20.310  13.397  1.00  0.00    -0.376 OA
ATOM     30  H2  UNL     1      27.298  20.596  14.110  1.00  0.00     0.211 HD
ENDBRANCH  28  29
BRANCH  28  31
HETATM   31  N8  UNL     1      25.708  19.675  12.804  1.00  0.00    -0.070 NA
BRANCH  31  32
HETATM   32  O3  UNL     1      25.584  19.878  14.131  1.00  0.00    -0.294 OA
ATOM     33  H3  UNL     1      25.293  20.760  14.331  1.00  0.00     0.238 HD
ENDBRANCH  31  32
ENDBRANCH  28  31
ENDBRANCH  27  28
ENDBRANCH  24  27
ENDBRANCH  21  24
ENDBRANCH   4  21
TORSDOF 9
ENDMDL
