MODEL 1
REMARK VINA RESULT: -7.715588826      0.000      0.000
REMARK  9 active torsions:
REMARK  status: ('A' for Active; 'I' for Inactive)
REMARK    1  A    between atoms: C4_10  and  C5_11 
REMARK    2  A    between atoms: N6_13  and  O1_15 
REMARK    3  A    between atoms: C7_18  and  C8_19 
REMARK    4  A    between atoms: C8_19  and  O2_20 
REMARK    5  A    between atoms: C8_19  and  C9_22 
REMARK    6  A    between atoms: C9_22  and  N7_23 
REMARK    7  A    between atoms: C9_22  and  C10_27 
REMARK    8  A    between atoms: C10_27  and  O3_28 
REMARK    9  A    between atoms: C10_27  and  C11_30 
ROOT
HETATM    1  N1  UNL     1      29.318  18.283   7.219  1.00  0.00    -0.190 NA
HETATM    2  C1  UNL     1      28.375  17.759   6.869  1.00  0.00     0.120 C 
HETATM    3  C2  UNL     1      27.187  17.141   6.399  1.00  0.00     0.144 A 
HETATM    4  N2  UNL     1      26.569  17.432   5.220  1.00  0.00    -0.340 N 
ATOM      5  H2  UNL     1      26.915  18.111   4.543  1.00  0.00     0.167 HD
HETATM    6  C3  UNL     1      25.473  16.727   5.069  1.00  0.00     0.208 A 
HETATM    7  N3  UNL     1      25.367  15.953   6.177  1.00  0.00    -0.248 N 
HETATM    8  N4  UNL     1      24.424  15.088   6.493  1.00  0.00    -0.289 N 
ATOM      9  H4  UNL     1      23.660  14.947   5.832  1.00  0.00     0.188 HD
HETATM   10  C4  UNL     1      24.411  14.391   7.625  1.00  0.00     0.092 A 
HETATM   11  C6  UNL     1      25.464  14.598   8.513  1.00  0.00     0.047 A 
HETATM   12  C7  UNL     1      26.471  15.485   8.230  1.00  0.00     0.007 A 
HETATM   13  C12 UNL     1      26.422  16.192   7.017  1.00  0.00     0.104 A 
ENDROOT
BRANCH  12  14
HETATM   14  C8  UNL     1      27.615  15.721   9.103  1.00  0.00     0.187 C 
BRANCH  14  15
HETATM   15  O2  UNL     1      28.074  14.481   9.577  1.00  0.00    -0.389 OA
ATOM     16  H2  UNL     1      27.572  14.251  10.350  1.00  0.00     0.210 HD
ENDBRANCH  14  15
BRANCH  14  17
HETATM   17  C9  UNL     1      27.352  16.514  10.352  1.00  0.00     0.253 C 
BRANCH  17  18
HETATM   18  N7  UNL     1      28.660  16.942  10.938  1.00  0.00    -0.069 N 
ATOM     19  H73 UNL     1      28.544  17.570  11.733  1.00  0.00     0.275 HD
ATOM     20  H72 UNL     1      29.136  16.183  11.424  1.00  0.00     0.275 HD
ATOM     21  H71 UNL     1      29.234  17.351  10.199  1.00  0.00     0.275 HD
ENDBRANCH  17  18
BRANCH  17  22
HETATM   22  C10 UNL     1      26.671  17.840  10.022  1.00  0.00     0.240 C 
BRANCH  22  23
HETATM   23  O3  UNL     1      27.681  18.866  10.132  1.00  0.00    -0.384 OA
ATOM     24  H3  UNL     1      27.637  19.381   9.335  1.00  0.00     0.210 HD
ENDBRANCH  22  23
BRANCH  22  25
HETATM   25  C11 UNL     1      25.583  18.217  10.915  1.00  0.00     0.262 C 
HETATM   26  N8  UNL     1      25.041  19.505  11.120  1.00  0.00    -0.060 NA
HETATM   27  O4  UNL     1      25.025  17.299  11.619  1.00  0.00    -0.274 OA
ENDBRANCH  22  25
ENDBRANCH  17  22
ENDBRANCH  14  17
ENDBRANCH  12  14
BRANCH  10  28
HETATM   28  C5  UNL     1      23.354  13.449   7.936  1.00  0.00     0.164 C 
HETATM   29  N5  UNL     1      23.684  12.095   8.168  1.00  0.00    -0.078 NA
HETATM   30  N6  UNL     1      22.144  13.828   8.003  1.00  0.00    -0.253 N 
ATOM     31  H6  UNL     1      21.414  13.150   8.224  1.00  0.00     0.195 HD
BRANCH  30  32
HETATM   32  O1  UNL     1      21.810  15.135   7.782  1.00  0.00    -0.288 OA
ATOM     33  H1  UNL     1      21.644  15.449   6.901  1.00  0.00     0.244 HD
ENDBRANCH  30  32
ENDBRANCH  10  28
TORSDOF 9
ENDMDL
MODEL 2
REMARK VINA RESULT: -7.606824474      2.447      6.307
REMARK  9 active torsions:
REMARK  status: ('A' for Active; 'I' for Inactive)
REMARK    1  A    between atoms: C4_10  and  C5_11 
REMARK    2  A    between atoms: N6_13  and  O1_15 
REMARK    3  A    between atoms: C7_18  and  C8_19 
REMARK    4  A    between atoms: C8_19  and  O2_20 
REMARK    5  A    between atoms: C8_19  and  C9_22 
REMARK    6  A    between atoms: C9_22  and  N7_23 
REMARK    7  A    between atoms: C9_22  and  C10_27 
REMARK    8  A    between atoms: C10_27  and  O3_28 
REMARK    9  A    between atoms: C10_27  and  C11_30 
ROOT
HETATM    1  N1  UNL     1      23.932  19.398  10.227  1.00  0.00    -0.190 NA
HETATM    2  C1  UNL     1      25.023  19.221  10.481  1.00  0.00     0.120 C 
HETATM    3  C2  UNL     1      26.388  19.040  10.823  1.00  0.00     0.144 A 
HETATM    4  N2  UNL     1      27.023  19.664  11.855  1.00  0.00    -0.340 N 
ATOM      5  H2  UNL     1      26.570  20.309  12.502  1.00  0.00     0.167 HD
HETATM    6  C3  UNL     1      28.290  19.329  11.908  1.00  0.00     0.208 A 
HETATM    7  N3  UNL     1      28.494  18.463  10.885  1.00  0.00    -0.248 N 
HETATM    8  N4  UNL     1      29.610  17.864  10.520  1.00  0.00    -0.289 N 
ATOM      9  H4  UNL     1      30.453  18.043  11.066  1.00  0.00     0.188 HD
HETATM   10  C4  UNL     1      29.700  17.041   9.480  1.00  0.00     0.092 A 
HETATM   11  C6  UNL     1      28.538  16.809   8.749  1.00  0.00     0.047 A 
HETATM   12  C7  UNL     1      27.351  17.405   9.089  1.00  0.00     0.007 A 
HETATM   13  C12 UNL     1      27.325  18.267  10.198  1.00  0.00     0.104 A 
ENDROOT
BRANCH  12  14
HETATM   14  C8  UNL     1      26.095  17.177   8.383  1.00  0.00     0.187 C 
BRANCH  14  15
HETATM   15  O2  UNL     1      25.408  16.135   9.028  1.00  0.00    -0.389 OA
ATOM     16  H2  UNL     1      25.201  16.415   9.912  1.00  0.00     0.210 HD
ENDBRANCH  14  15
BRANCH  14  17
HETATM   17  C9  UNL     1      26.203  16.715   6.957  1.00  0.00     0.253 C 
BRANCH  17  18
HETATM   18  N7  UNL     1      25.437  15.439   6.803  1.00  0.00    -0.069 N 
ATOM     19  H73 UNL     1      25.653  14.764   7.537  1.00  0.00     0.275 HD
ATOM     20  H72 UNL     1      24.444  15.555   7.003  1.00  0.00     0.275 HD
ATOM     21  H71 UNL     1      25.604  15.066   5.868  1.00  0.00     0.275 HD
ENDBRANCH  17  18
BRANCH  17  22
HETATM   22  C10 UNL     1      25.471  17.672   6.019  1.00  0.00     0.240 C 
BRANCH  22  23
HETATM   23  O3  UNL     1      24.087  17.263   6.002  1.00  0.00    -0.384 OA
ATOM     24  H3  UNL     1      23.623  17.888   5.457  1.00  0.00     0.210 HD
ENDBRANCH  22  23
BRANCH  22  25
HETATM   25  C11 UNL     1      25.934  17.659   4.636  1.00  0.00     0.262 C 
HETATM   26  N8  UNL     1      26.497  18.727   3.904  1.00  0.00    -0.060 NA
HETATM   27  O4  UNL     1      25.831  16.567   3.969  1.00  0.00    -0.274 OA
ENDBRANCH  22  25
ENDBRANCH  17  22
ENDBRANCH  14  17
ENDBRANCH  12  14
BRANCH  10  28
HETATM   28  C5  UNL     1      30.948  16.403   9.110  1.00  0.00     0.164 C 
HETATM   29  N5  UNL     1      31.773  17.014   8.139  1.00  0.00    -0.078 NA
HETATM   30  N6  UNL     1      31.304  15.307   9.646  1.00  0.00    -0.253 N 
ATOM     31  H6  UNL     1      32.185  14.873   9.372  1.00  0.00     0.195 HD
BRANCH  30  32
HETATM   32  O1  UNL     1      30.515  14.705  10.586  1.00  0.00    -0.288 OA
ATOM     33  H1  UNL     1      29.625  14.447  10.378  1.00  0.00     0.244 HD
ENDBRANCH  30  32
ENDBRANCH  10  28
TORSDOF 9
ENDMDL
MODEL 3
REMARK VINA RESULT: -7.490560639      3.664      6.788
REMARK  9 active torsions:
REMARK  status: ('A' for Active; 'I' for Inactive)
REMARK    1  A    between atoms: C4_10  and  C5_11 
REMARK    2  A    between atoms: N6_13  and  O1_15 
REMARK    3  A    between atoms: C7_18  and  C8_19 
REMARK    4  A    between atoms: C8_19  and  O2_20 
REMARK    5  A    between atoms: C8_19  and  C9_22 
REMARK    6  A    between atoms: C9_22  and  N7_23 
REMARK    7  A    between atoms: C9_22  and  C10_27 
REMARK    8  A    between atoms: C10_27  and  O3_28 
REMARK    9  A    between atoms: C10_27  and  C11_30 
ROOT
HETATM    1  N1  UNL     1      26.119  15.979   9.979  1.00  0.00    -0.190 NA
HETATM    2  C1  UNL     1      27.198  16.113   9.655  1.00  0.00     0.120 C 
HETATM    3  C2  UNL     1      28.552  16.233   9.249  1.00  0.00     0.144 A 
HETATM    4  N2  UNL     1      29.288  15.237   8.682  1.00  0.00    -0.340 N 
ATOM      5  H2  UNL     1      28.929  14.306   8.470  1.00  0.00     0.167 HD
HETATM    6  C3  UNL     1      30.518  15.628   8.445  1.00  0.00     0.208 A 
HETATM    7  N3  UNL     1      30.592  16.914   8.866  1.00  0.00    -0.248 N 
HETATM    8  N4  UNL     1      31.629  17.729   8.852  1.00  0.00    -0.289 N 
ATOM      9  H4  UNL     1      32.508  17.383   8.466  1.00  0.00     0.188 HD
HETATM   10  C4  UNL     1      31.593  18.976   9.312  1.00  0.00     0.092 A 
HETATM   11  C6  UNL     1      30.384  19.429   9.834  1.00  0.00     0.047 A 
HETATM   12  C7  UNL     1      29.276  18.621   9.869  1.00  0.00     0.007 A 
HETATM   13  C12 UNL     1      29.382  17.312   9.369  1.00  0.00     0.104 A 
ENDROOT
BRANCH  12  14
HETATM   14  C8  UNL     1      27.975  19.048  10.371  1.00  0.00     0.187 C 
BRANCH  14  15
HETATM   15  O2  UNL     1      27.966  20.450  10.446  1.00  0.00    -0.389 OA
ATOM     16  H2  UNL     1      27.527  20.705  11.249  1.00  0.00     0.210 HD
ENDBRANCH  14  15
BRANCH  14  17
HETATM   17  C9  UNL     1      27.616  18.606  11.762  1.00  0.00     0.253 C 
BRANCH  17  18
HETATM   18  N7  UNL     1      28.481  19.338  12.739  1.00  0.00    -0.069 N 
ATOM     19  H73 UNL     1      29.313  19.734  12.303  1.00  0.00     0.275 HD
ATOM     20  H72 UNL     1      28.058  20.211  13.055  1.00  0.00     0.275 HD
ATOM     21  H71 UNL     1      28.706  18.713  13.513  1.00  0.00     0.275 HD
ENDBRANCH  17  18
BRANCH  17  22
HETATM   22  C10 UNL     1      26.209  19.066  12.134  1.00  0.00     0.240 C 
BRANCH  22  23
HETATM   23  O3  UNL     1      25.625  19.627  10.939  1.00  0.00    -0.384 OA
ATOM     24  H3  UNL     1      25.034  18.970  10.588  1.00  0.00     0.210 HD
ENDBRANCH  22  23
BRANCH  22  25
HETATM   25  C11 UNL     1      26.145  20.097  13.162  1.00  0.00     0.262 C 
HETATM   26  N8  UNL     1      26.528  21.452  13.052  1.00  0.00    -0.060 NA
HETATM   27  O4  UNL     1      25.696  19.776  14.322  1.00  0.00    -0.274 OA
ENDBRANCH  22  25
ENDBRANCH  17  22
ENDBRANCH  14  17
ENDBRANCH  12  14
BRANCH  10  28
HETATM   28  C5  UNL     1      32.755  19.841   9.280  1.00  0.00     0.164 C 
HETATM   29  N5  UNL     1      32.776  20.934   8.384  1.00  0.00    -0.078 NA
HETATM   30  N6  UNL     1      33.748  19.628  10.044  1.00  0.00    -0.253 N 
ATOM     31  H6  UNL     1      34.557  20.248  10.006  1.00  0.00     0.195 HD
BRANCH  30  32
HETATM   32  O1  UNL     1      33.741  18.575  10.916  1.00  0.00    -0.288 OA
ATOM     33  H1  UNL     1      32.991  18.416  11.476  1.00  0.00     0.244 HD
ENDBRANCH  30  32
ENDBRANCH  10  28
TORSDOF 9
ENDMDL
MODEL 4
REMARK VINA RESULT: -7.352649407      2.588      6.509
REMARK  9 active torsions:
REMARK  status: ('A' for Active; 'I' for Inactive)
REMARK    1  A    between atoms: C4_10  and  C5_11 
REMARK    2  A    between atoms: N6_13  and  O1_15 
REMARK    3  A    between atoms: C7_18  and  C8_19 
REMARK    4  A    between atoms: C8_19  and  O2_20 
REMARK    5  A    between atoms: C8_19  and  C9_22 
REMARK    6  A    between atoms: C9_22  and  N7_23 
REMARK    7  A    between atoms: C9_22  and  C10_27 
REMARK    8  A    between atoms: C10_27  and  O3_28 
REMARK    9  A    between atoms: C10_27  and  C11_30 
ROOT
HETATM    1  N1  UNL     1      23.866  19.325  10.342  1.00  0.00    -0.190 NA
HETATM    2  C1  UNL     1      24.956  19.184  10.620  1.00  0.00     0.120 C 
HETATM    3  C2  UNL     1      26.318  19.048  10.995  1.00  0.00     0.144 A 
HETATM    4  N2  UNL     1      26.889  19.629  12.087  1.00  0.00    -0.340 N 
ATOM      5  H2  UNL     1      26.384  20.204  12.761  1.00  0.00     0.167 HD
HETATM    6  C3  UNL     1      28.169  19.354  12.160  1.00  0.00     0.208 A 
HETATM    7  N3  UNL     1      28.448  18.572  11.088  1.00  0.00    -0.248 N 
HETATM    8  N4  UNL     1      29.605  18.056  10.721  1.00  0.00    -0.289 N 
ATOM      9  H4  UNL     1      30.420  18.239  11.306  1.00  0.00     0.188 HD
HETATM   10  C4  UNL     1      29.768  17.313   9.631  1.00  0.00     0.092 A 
HETATM   11  C6  UNL     1      28.642  17.075   8.846  1.00  0.00     0.047 A 
HETATM   12  C7  UNL     1      27.416  17.587   9.186  1.00  0.00     0.007 A 
HETATM   13  C12 UNL     1      27.313  18.368  10.350  1.00  0.00     0.104 A 
ENDROOT
BRANCH  12  14
HETATM   14  C8  UNL     1      26.195  17.346   8.425  1.00  0.00     0.187 C 
BRANCH  14  15
HETATM   15  O2  UNL     1      25.495  16.292   9.034  1.00  0.00    -0.389 OA
ATOM     16  H2  UNL     1      25.972  16.024   9.811  1.00  0.00     0.210 HD
ENDBRANCH  14  15
BRANCH  14  17
HETATM   17  C9  UNL     1      26.371  16.894   7.003  1.00  0.00     0.253 C 
BRANCH  17  18
HETATM   18  N7  UNL     1      25.821  15.510   6.864  1.00  0.00    -0.069 N 
ATOM     19  H73 UNL     1      24.801  15.496   6.858  1.00  0.00     0.275 HD
ATOM     20  H72 UNL     1      25.973  15.122   5.933  1.00  0.00     0.275 HD
ATOM     21  H71 UNL     1      26.214  14.923   7.599  1.00  0.00     0.275 HD
ENDBRANCH  17  18
BRANCH  17  22
HETATM   22  C10 UNL     1      25.493  17.712   6.059  1.00  0.00     0.240 C 
BRANCH  22  23
HETATM   23  O3  UNL     1      24.172  17.131   6.111  1.00  0.00    -0.384 OA
ATOM     24  H3  UNL     1      23.829  17.151   5.225  1.00  0.00     0.210 HD
ENDBRANCH  22  23
BRANCH  22  25
HETATM   25  C11 UNL     1      25.906  17.701   4.661  1.00  0.00     0.262 C 
HETATM   26  N8  UNL     1      26.406  18.779   3.900  1.00  0.00    -0.060 NA
HETATM   27  O4  UNL     1      25.818  16.598   4.008  1.00  0.00    -0.274 OA
ENDBRANCH  22  25
ENDBRANCH  17  22
ENDBRANCH  14  17
ENDBRANCH  12  14
BRANCH  10  28
HETATM   28  C5  UNL     1      31.057  16.764   9.260  1.00  0.00     0.164 C 
HETATM   29  N5  UNL     1      31.127  15.442   8.767  1.00  0.00    -0.078 NA
HETATM   30  N6  UNL     1      32.117  17.456   9.373  1.00  0.00    -0.253 N 
ATOM     31  H6  UNL     1      33.015  17.052   9.107  1.00  0.00     0.195 HD
BRANCH  30  32
HETATM   32  O1  UNL     1      32.064  18.737   9.849  1.00  0.00    -0.288 OA
ATOM     33  H1  UNL     1      31.229  19.173   9.970  1.00  0.00     0.244 HD
ENDBRANCH  30  32
ENDBRANCH  10  28
TORSDOF 9
ENDMDL
MODEL 5
REMARK VINA RESULT: -7.189696119      2.277      3.181
REMARK  9 active torsions:
REMARK  status: ('A' for Active; 'I' for Inactive)
REMARK    1  A    between atoms: C4_10  and  C5_11 
REMARK    2  A    between atoms: N6_13  and  O1_15 
REMARK    3  A    between atoms: C7_18  and  C8_19 
REMARK    4  A    between atoms: C8_19  and  O2_20 
REMARK    5  A    between atoms: C8_19  and  C9_22 
REMARK    6  A    between atoms: C9_22  and  N7_23 
REMARK    7  A    between atoms: C9_22  and  C10_27 
REMARK    8  A    between atoms: C10_27  and  O3_28 
REMARK    9  A    between atoms: C10_27  and  C11_30 
ROOT
HETATM    1  N1  UNL     1      30.425  19.653  10.249  1.00  0.00    -0.190 NA
HETATM    2  C1  UNL     1      29.964  18.886   9.552  1.00  0.00     0.120 C 
HETATM    3  C2  UNL     1      29.412  17.946   8.643  1.00  0.00     0.144 A 
HETATM    4  N2  UNL     1      29.947  17.626   7.431  1.00  0.00    -0.340 N 
ATOM      5  H2  UNL     1      30.815  18.016   7.065  1.00  0.00     0.167 HD
HETATM    6  C3  UNL     1      29.201  16.753   6.797  1.00  0.00     0.208 A 
HETATM    7  N3  UNL     1      28.150  16.492   7.612  1.00  0.00    -0.248 N 
HETATM    8  N4  UNL     1      27.123  15.691   7.405  1.00  0.00    -0.289 N 
ATOM      9  H4  UNL     1      27.089  15.170   6.529  1.00  0.00     0.188 HD
HETATM   10  C4  UNL     1      26.131  15.524   8.274  1.00  0.00     0.092 A 
HETATM   11  C6  UNL     1      26.198  16.243   9.464  1.00  0.00     0.047 A 
HETATM   12  C7  UNL     1      27.245  17.088   9.728  1.00  0.00     0.007 A 
HETATM   13  C12 UNL     1      28.260  17.221   8.766  1.00  0.00     0.104 A 
ENDROOT
BRANCH  12  14
HETATM   14  C8  UNL     1      27.388  17.843  10.968  1.00  0.00     0.187 C 
BRANCH  14  15
HETATM   15  O2  UNL     1      26.687  17.168  11.981  1.00  0.00    -0.389 OA
ATOM     16  H2  UNL     1      25.874  17.632  12.143  1.00  0.00     0.210 HD
ENDBRANCH  14  15
BRANCH  14  17
HETATM   17  C9  UNL     1      26.805  19.228  10.980  1.00  0.00     0.253 C 
BRANCH  17  18
HETATM   18  N7  UNL     1      25.361  19.140  11.362  1.00  0.00    -0.069 N 
ATOM     19  H73 UNL     1      25.075  19.898  11.982  1.00  0.00     0.275 HD
ATOM     20  H72 UNL     1      24.739  19.352  10.582  1.00  0.00     0.275 HD
ATOM     21  H71 UNL     1      25.181  18.219  11.763  1.00  0.00     0.275 HD
ENDBRANCH  17  18
BRANCH  17  22
HETATM   22  C10 UNL     1      27.409  20.063  12.106  1.00  0.00     0.240 C 
BRANCH  22  23
HETATM   23  O3  UNL     1      28.434  19.254  12.722  1.00  0.00    -0.384 OA
ATOM     24  H3  UNL     1      27.991  18.630  13.285  1.00  0.00     0.210 HD
ENDBRANCH  22  23
BRANCH  22  25
HETATM   25  C11 UNL     1      26.479  20.445  13.162  1.00  0.00     0.262 C 
HETATM   26  N8  UNL     1      25.862  19.607  14.115  1.00  0.00    -0.060 NA
HETATM   27  O4  UNL     1      26.155  21.684  13.271  1.00  0.00    -0.274 OA
ENDBRANCH  22  25
ENDBRANCH  17  22
ENDBRANCH  14  17
ENDBRANCH  12  14
BRANCH  10  28
HETATM   28  C5  UNL     1      25.019  14.633   8.009  1.00  0.00     0.164 C 
HETATM   29  N5  UNL     1      24.633  13.699   8.996  1.00  0.00    -0.078 NA
HETATM   30  N6  UNL     1      24.391  14.685   6.906  1.00  0.00    -0.253 N 
ATOM     31  H6  UNL     1      23.611  14.050   6.737  1.00  0.00     0.195 HD
BRANCH  30  32
HETATM   32  O1  UNL     1      24.752  15.584   5.941  1.00  0.00    -0.288 OA
ATOM     33  H1  UNL     1      24.137  15.841   5.265  1.00  0.00     0.244 HD
ENDBRANCH  30  32
ENDBRANCH  10  28
TORSDOF 9
ENDMDL
