MODEL 1
REMARK VINA RESULT: -8.606451500      0.000      0.000
REMARK  8 active torsions:
REMARK  status: ('A' for Active; 'I' for Inactive)
REMARK    1  A    between atoms: C2_2  and  N1_3 
REMARK    2  A    between atoms: C2_2  and  N2_7 
REMARK    3  A    between atoms: C2_2  and  S1_30 
REMARK       I    between atoms: N2_7  and  C3_9 
REMARK    4  A    between atoms: C3_9  and  C4_11 
REMARK    5  A    between atoms: C4_11  and  O2_12 
REMARK    6  A    between atoms: C4_11  and  C5_14 
REMARK    7  A    between atoms: N5_18  and  C6_19 
REMARK    8  A    between atoms: S1_30  and  N10_32 
ROOT
HETATM    1  C4  UNL     1      23.908  14.073   7.740  1.00  0.00     0.279 C 
ENDROOT
BRANCH   1   2
HETATM    2  C3  UNL     1      25.281  14.530   7.927  1.00  0.00     0.256 C 
HETATM    3  N2  UNL     1      25.546  15.549   8.878  1.00  0.00    -0.315 N 
ATOM      4  H2  UNL     1      24.783  15.954   9.422  1.00  0.00     0.166 HD
HETATM    5  O1  UNL     1      26.187  14.006   7.237  1.00  0.00    -0.270 OA
BRANCH   3   6
HETATM    6  C2  UNL     1      26.909  16.014   9.076  1.00  0.00     0.277 C 
HETATM    7  C1  UNL     1      27.242  16.918   7.915  1.00  0.00     0.087 C 
BRANCH   6   8
HETATM    8  N1  UNL     1      27.775  14.855   9.038  1.00  0.00    -0.040 N 
ATOM      9  H13 UNL     1      27.864  14.407   9.949  1.00  0.00     0.278 HD
ATOM     10  H12 UNL     1      27.355  14.073   8.534  1.00  0.00     0.278 HD
ATOM     11  H11 UNL     1      28.678  15.126   8.648  1.00  0.00     0.278 HD
ENDBRANCH   6   8
BRANCH   6  12
HETATM   12  S1  UNL     1      27.104  16.901  10.577  1.00  0.00     0.069 S 
HETATM   13  C8  UNL     1      27.383  18.618  10.328  1.00  0.00     0.141 C 
HETATM   14  O4  UNL     1      25.861  16.735  11.394  1.00  0.00    -0.246 OA
BRANCH  12  15
HETATM   15  N10 UNL     1      28.318  16.282  11.352  1.00  0.00    -0.357 N 
ATOM     16 2H10 UNL     1      28.999  15.633  10.957  1.00  0.00     0.165 HD
ATOM     17 1H10 UNL     1      28.301  16.643  12.306  1.00  0.00     0.165 HD
ENDBRANCH  12  15
ENDBRANCH   6  12
ENDBRANCH   3   6
ENDBRANCH   1   2
BRANCH   1  18
HETATM   18  O2  UNL     1      23.591  13.795   6.417  1.00  0.00    -0.378 OA
ATOM     19  H2  UNL     1      22.960  13.093   6.318  1.00  0.00     0.211 HD
ENDBRANCH   1  18
BRANCH   1  20
HETATM   20  C5  UNL     1      23.671  12.819   8.524  1.00  0.00     0.149 A 
HETATM   21  N3  UNL     1      22.636  12.541   9.337  1.00  0.00    -0.267 N 
HETATM   22  N4  UNL     1      22.814  11.327   9.829  1.00  0.00     0.018 NA
ATOM     23  H3  UNL     1      21.850  13.159   9.539  1.00  0.00     0.185 HD
HETATM   24  N5  UNL     1      23.948  10.792   9.361  1.00  0.00    -0.002 N 
HETATM   25  N9  UNL     1      24.451  11.725   8.565  1.00  0.00    -0.251 N 
ATOM     26  H9  UNL     1      25.323  11.624   8.046  1.00  0.00     0.191 HD
BRANCH  24  27
HETATM   27  C6  UNL     1      24.465   9.506   9.670  1.00  0.00     0.736 A 
HETATM   28  N6  UNL     1      25.752   9.171   9.820  1.00  0.00    -0.136 N 
HETATM   29  C7  UNL     1      25.854   7.847  10.112  1.00  0.00     0.353 A 
ATOM     30  H6  UNL     1      26.539   9.814   9.729  1.00  0.00     0.189 HD
HETATM   31  O3  UNL     1      26.923   7.189  10.320  1.00  0.00    -0.245 OA
HETATM   32  N7  UNL     1      24.606   7.375  10.138  1.00  0.00    -0.236 N 
HETATM   33  N8  UNL     1      23.768   8.378   9.870  1.00  0.00    -0.125 N 
ATOM     34  H7  UNL     1      24.339   6.410  10.330  1.00  0.00     0.192 HD
ATOM     35  H8  UNL     1      22.752   8.299   9.825  1.00  0.00     0.206 HD
ENDBRANCH  24  27
ENDBRANCH   1  20
TORSDOF 8
ENDMDL
MODEL 2
REMARK VINA RESULT: -8.599734976      1.250      1.307
REMARK  8 active torsions:
REMARK  status: ('A' for Active; 'I' for Inactive)
REMARK    1  A    between atoms: C2_2  and  N1_3 
REMARK    2  A    between atoms: C2_2  and  N2_7 
REMARK    3  A    between atoms: C2_2  and  S1_30 
REMARK       I    between atoms: N2_7  and  C3_9 
REMARK    4  A    between atoms: C3_9  and  C4_11 
REMARK    5  A    between atoms: C4_11  and  O2_12 
REMARK    6  A    between atoms: C4_11  and  C5_14 
REMARK    7  A    between atoms: N5_18  and  C6_19 
REMARK    8  A    between atoms: S1_30  and  N10_32 
ROOT
HETATM    1  C4  UNL     1      25.044  14.423   7.759  1.00  0.00     0.279 C 
ENDROOT
BRANCH   1   2
HETATM    2  C3  UNL     1      26.347  14.896   8.214  1.00  0.00     0.256 C 
HETATM    3  N2  UNL     1      26.899  16.065   7.629  1.00  0.00    -0.315 N 
ATOM      4  H2  UNL     1      26.388  16.564   6.901  1.00  0.00     0.166 HD
HETATM    5  O1  UNL     1      26.941  14.251   9.111  1.00  0.00    -0.270 OA
BRANCH   3   6
HETATM    6  C2  UNL     1      28.196  16.549   8.073  1.00  0.00     0.277 C 
HETATM    7  C1  UNL     1      28.710  17.482   7.004  1.00  0.00     0.087 C 
BRANCH   6   8
HETATM    8  N1  UNL     1      29.079  15.406   8.167  1.00  0.00    -0.040 N 
ATOM      9  H13 UNL     1      29.075  14.841   7.318  1.00  0.00     0.278 HD
ATOM     10  H12 UNL     1      30.064  15.673   8.156  1.00  0.00     0.278 HD
ATOM     11  H11 UNL     1      28.834  14.863   8.996  1.00  0.00     0.278 HD
ENDBRANCH   6   8
BRANCH   6  12
HETATM   12  S1  UNL     1      28.107  17.408   9.599  1.00  0.00     0.069 S 
HETATM   13  C8  UNL     1      29.353  18.635   9.771  1.00  0.00     0.141 C 
HETATM   14  O4  UNL     1      26.769  18.074   9.693  1.00  0.00    -0.246 OA
BRANCH  12  15
HETATM   15  N10 UNL     1      28.244  16.359  10.756  1.00  0.00    -0.357 N 
ATOM     16 2H10 UNL     1      27.997  15.371  10.686  1.00  0.00     0.165 HD
ATOM     17 1H10 UNL     1      28.619  16.838  11.575  1.00  0.00     0.165 HD
ENDBRANCH  12  15
ENDBRANCH   6  12
ENDBRANCH   3   6
ENDBRANCH   1   2
BRANCH   1  18
HETATM   18  O2  UNL     1      25.035  14.014   6.433  1.00  0.00    -0.378 OA
ATOM     19  H2  UNL     1      24.205  14.161   5.996  1.00  0.00     0.211 HD
ENDBRANCH   1  18
BRANCH   1  20
HETATM   20  C5  UNL     1      24.604  13.252   8.585  1.00  0.00     0.149 A 
HETATM   21  N3  UNL     1      23.595  13.207   9.474  1.00  0.00    -0.267 N 
HETATM   22  N4  UNL     1      23.548  11.985   9.979  1.00  0.00     0.018 NA
ATOM     23  H3  UNL     1      22.975  13.979   9.716  1.00  0.00     0.185 HD
HETATM   24  N5  UNL     1      24.505  11.219   9.445  1.00  0.00    -0.002 N 
HETATM   25  N9  UNL     1      25.135  12.018   8.596  1.00  0.00    -0.251 N 
ATOM     26  H9  UNL     1      25.927  11.730   8.021  1.00  0.00     0.191 HD
BRANCH  24  27
HETATM   27  C6  UNL     1      24.759   9.855   9.746  1.00  0.00     0.736 A 
HETATM   28  N6  UNL     1      25.947   9.295  10.004  1.00  0.00    -0.136 N 
HETATM   29  C7  UNL     1      25.790   7.967  10.246  1.00  0.00     0.353 A 
ATOM     30  H6  UNL     1      26.839   9.792  10.018  1.00  0.00     0.189 HD
HETATM   31  O3  UNL     1      26.703   7.125  10.527  1.00  0.00    -0.245 OA
HETATM   32  N7  UNL     1      24.484   7.720  10.132  1.00  0.00    -0.236 N 
HETATM   33  N8  UNL     1      23.862   8.861   9.829  1.00  0.00    -0.125 N 
ATOM     34  H7  UNL     1      24.036   6.812  10.255  1.00  0.00     0.192 HD
ATOM     35  H8  UNL     1      22.857   8.963   9.684  1.00  0.00     0.206 HD
ENDBRANCH  24  27
ENDBRANCH   1  20
TORSDOF 8
ENDMDL
MODEL 3
REMARK VINA RESULT: -8.469610368      2.159      2.661
REMARK  8 active torsions:
REMARK  status: ('A' for Active; 'I' for Inactive)
REMARK    1  A    between atoms: C2_2  and  N1_3 
REMARK    2  A    between atoms: C2_2  and  N2_7 
REMARK    3  A    between atoms: C2_2  and  S1_30 
REMARK       I    between atoms: N2_7  and  C3_9 
REMARK    4  A    between atoms: C3_9  and  C4_11 
REMARK    5  A    between atoms: C4_11  and  O2_12 
REMARK    6  A    between atoms: C4_11  and  C5_14 
REMARK    7  A    between atoms: N5_18  and  C6_19 
REMARK    8  A    between atoms: S1_30  and  N10_32 
ROOT
HETATM    1  C4  UNL     1      25.813  15.357   7.958  1.00  0.00     0.279 C 
ENDROOT
BRANCH   1   2
HETATM    2  C3  UNL     1      27.006  15.587   8.766  1.00  0.00     0.256 C 
HETATM    3  N2  UNL     1      28.269  15.666   8.125  1.00  0.00    -0.315 N 
ATOM      4  H2  UNL     1      28.337  15.563   7.112  1.00  0.00     0.166 HD
HETATM    5  O1  UNL     1      26.877  15.707  10.008  1.00  0.00    -0.270 OA
BRANCH   3   6
HETATM    6  C2  UNL     1      29.467  15.895   8.916  1.00  0.00     0.277 C 
HETATM    7  C1  UNL     1      30.643  15.465   8.075  1.00  0.00     0.087 C 
BRANCH   6   8
HETATM    8  N1  UNL     1      29.385  15.046  10.086  1.00  0.00    -0.040 N 
ATOM      9  H13 UNL     1      29.636  15.540  10.942  1.00  0.00     0.278 HD
ATOM     10  H12 UNL     1      28.423  14.814  10.331  1.00  0.00     0.278 HD
ATOM     11  H11 UNL     1      29.958  14.215   9.936  1.00  0.00     0.278 HD
ENDBRANCH   6   8
BRANCH   6  12
HETATM   12  S1  UNL     1      29.661  17.579   9.368  1.00  0.00     0.069 S 
HETATM   13  C8  UNL     1      31.332  18.120   9.298  1.00  0.00     0.141 C 
HETATM   14  O4  UNL     1      28.851  18.420   8.432  1.00  0.00    -0.246 OA
BRANCH  12  15
HETATM   15  N10 UNL     1      29.116  17.756  10.827  1.00  0.00    -0.357 N 
ATOM     16 2H10 UNL     1      28.790  18.635  11.230  1.00  0.00     0.165 HD
ATOM     17 1H10 UNL     1      29.146  16.847  11.289  1.00  0.00     0.165 HD
ENDBRANCH  12  15
ENDBRANCH   6  12
ENDBRANCH   3   6
ENDBRANCH   1   2
BRANCH   1  18
HETATM   18  O2  UNL     1      25.892  15.904   6.685  1.00  0.00    -0.378 OA
ATOM     19  H2  UNL     1      26.764  16.200   6.453  1.00  0.00     0.211 HD
ENDBRANCH   1  18
BRANCH   1  20
HETATM   20  C5  UNL     1      25.579  13.887   7.794  1.00  0.00     0.149 A 
HETATM   21  N3  UNL     1      25.053  13.252   6.730  1.00  0.00    -0.267 N 
HETATM   22  N4  UNL     1      25.023  11.957   6.997  1.00  0.00     0.018 NA
ATOM     23  H3  UNL     1      24.732  13.693   5.868  1.00  0.00     0.185 HD
HETATM   24  N5  UNL     1      25.518  11.718   8.217  1.00  0.00    -0.002 N 
HETATM   25  N9  UNL     1      25.850  12.914   8.681  1.00  0.00    -0.251 N 
ATOM     26  H9  UNL     1      26.262  13.076   9.600  1.00  0.00     0.191 HD
BRANCH  24  27
HETATM   27  C6  UNL     1      25.644  10.450   8.842  1.00  0.00     0.736 A 
HETATM   28  N6  UNL     1      26.781   9.821   9.165  1.00  0.00    -0.136 N 
HETATM   29  C7  UNL     1      26.498   8.626   9.749  1.00  0.00     0.353 A 
ATOM     30  H6  UNL     1      27.719  10.185   8.999  1.00  0.00     0.189 HD
HETATM   31  O3  UNL     1      27.333   7.769  10.182  1.00  0.00    -0.245 OA
HETATM   32  N7  UNL     1      25.168   8.532   9.779  1.00  0.00    -0.236 N 
HETATM   33  N8  UNL     1      24.653   9.634   9.230  1.00  0.00    -0.125 N 
ATOM     34  H7  UNL     1      24.635   7.750  10.157  1.00  0.00     0.192 HD
ATOM     35  H8  UNL     1      23.657   9.826   9.123  1.00  0.00     0.206 HD
ENDBRANCH  24  27
ENDBRANCH   1  20
TORSDOF 8
ENDMDL
MODEL 4
REMARK VINA RESULT: -8.377766424      0.819      1.194
REMARK  8 active torsions:
REMARK  status: ('A' for Active; 'I' for Inactive)
REMARK    1  A    between atoms: C2_2  and  N1_3 
REMARK    2  A    between atoms: C2_2  and  N2_7 
REMARK    3  A    between atoms: C2_2  and  S1_30 
REMARK       I    between atoms: N2_7  and  C3_9 
REMARK    4  A    between atoms: C3_9  and  C4_11 
REMARK    5  A    between atoms: C4_11  and  O2_12 
REMARK    6  A    between atoms: C4_11  and  C5_14 
REMARK    7  A    between atoms: N5_18  and  C6_19 
REMARK    8  A    between atoms: S1_30  and  N10_32 
ROOT
HETATM    1  C4  UNL     1      23.555  13.964   8.094  1.00  0.00     0.279 C 
ENDROOT
BRANCH   1   2
HETATM    2  C3  UNL     1      24.839  14.637   7.923  1.00  0.00     0.256 C 
HETATM    3  N2  UNL     1      25.403  15.337   9.021  1.00  0.00    -0.315 N 
ATOM      4  H2  UNL     1      24.914  15.366   9.916  1.00  0.00     0.166 HD
HETATM    5  O1  UNL     1      25.405  14.576   6.806  1.00  0.00    -0.270 OA
BRANCH   3   6
HETATM    6  C2  UNL     1      26.682  16.011   8.866  1.00  0.00     0.277 C 
HETATM    7  C1  UNL     1      26.496  17.077   7.814  1.00  0.00     0.087 C 
BRANCH   6   8
HETATM    8  N1  UNL     1      27.636  15.034   8.387  1.00  0.00    -0.040 N 
ATOM      9  H13 UNL     1      27.451  14.751   7.424  1.00  0.00     0.278 HD
ATOM     10  H12 UNL     1      28.563  15.434   8.243  1.00  0.00     0.278 HD
ATOM     11  H11 UNL     1      27.651  14.240   9.028  1.00  0.00     0.278 HD
ENDBRANCH   6   8
BRANCH   6  12
HETATM   12  S1  UNL     1      27.233  16.756  10.356  1.00  0.00     0.069 S 
HETATM   13  C8  UNL     1      27.694  18.439  10.152  1.00  0.00     0.141 C 
HETATM   14  O4  UNL     1      26.126  16.685  11.361  1.00  0.00    -0.246 OA
BRANCH  12  15
HETATM   15  N10 UNL     1      28.462  15.938  10.882  1.00  0.00    -0.357 N 
ATOM     16 2H10 UNL     1      28.795  15.058  10.487  1.00  0.00     0.165 HD
ATOM     17 1H10 UNL     1      28.858  16.438  11.677  1.00  0.00     0.165 HD
ENDBRANCH  12  15
ENDBRANCH   6  12
ENDBRANCH   3   6
ENDBRANCH   1   2
BRANCH   1  18
HETATM   18  O2  UNL     1      22.853  13.801   6.908  1.00  0.00    -0.378 OA
ATOM     19  H2  UNL     1      22.385  14.581   6.634  1.00  0.00     0.211 HD
ENDBRANCH   1  18
BRANCH   1  20
HETATM   20  C5  UNL     1      23.763  12.600   8.676  1.00  0.00     0.149 A 
HETATM   21  N3  UNL     1      22.848  11.812   9.269  1.00  0.00    -0.267 N 
HETATM   22  N4  UNL     1      23.447  10.692   9.639  1.00  0.00     0.018 NA
ATOM     23  H3  UNL     1      21.863  12.038   9.409  1.00  0.00     0.185 HD
HETATM   24  N5  UNL     1      24.742  10.721   9.304  1.00  0.00    -0.002 N 
HETATM   25  N9  UNL     1      24.908  11.897   8.717  1.00  0.00    -0.251 N 
ATOM     26  H9  UNL     1      25.797  12.228   8.341  1.00  0.00     0.191 HD
BRANCH  24  27
HETATM   27  C6  UNL     1      25.698   9.697   9.541  1.00  0.00     0.736 A 
HETATM   28  N6  UNL     1      25.517   8.577  10.251  1.00  0.00    -0.136 N 
HETATM   29  C7  UNL     1      26.661   7.842  10.253  1.00  0.00     0.353 A 
ATOM     30  H6  UNL     1      24.650   8.313  10.720  1.00  0.00     0.189 HD
HETATM   31  O3  UNL     1      26.850   6.721  10.826  1.00  0.00    -0.245 OA
HETATM   32  N7  UNL     1      27.547   8.531   9.533  1.00  0.00    -0.236 N 
HETATM   33  N8  UNL     1      26.964   9.652   9.103  1.00  0.00    -0.125 N 
ATOM     34  H7  UNL     1      28.508   8.249   9.342  1.00  0.00     0.192 HD
ATOM     35  H8  UNL     1      27.414  10.366   8.529  1.00  0.00     0.206 HD
ENDBRANCH  24  27
ENDBRANCH   1  20
TORSDOF 8
ENDMDL
MODEL 5
REMARK VINA RESULT: -8.298119952      2.581      3.069
REMARK  8 active torsions:
REMARK  status: ('A' for Active; 'I' for Inactive)
REMARK    1  A    between atoms: C2_2  and  N1_3 
REMARK    2  A    between atoms: C2_2  and  N2_7 
REMARK    3  A    between atoms: C2_2  and  S1_30 
REMARK       I    between atoms: N2_7  and  C3_9 
REMARK    4  A    between atoms: C3_9  and  C4_11 
REMARK    5  A    between atoms: C4_11  and  O2_12 
REMARK    6  A    between atoms: C4_11  and  C5_14 
REMARK    7  A    between atoms: N5_18  and  C6_19 
REMARK    8  A    between atoms: S1_30  and  N10_32 
ROOT
HETATM    1  C4  UNL     1      23.357  12.652   9.479  1.00  0.00     0.279 C 
ENDROOT
BRANCH   1   2
HETATM    2  C3  UNL     1      24.292  13.317   8.577  1.00  0.00     0.256 C 
HETATM    3  N2  UNL     1      24.824  14.581   8.943  1.00  0.00    -0.315 N 
ATOM      4  H2  UNL     1      24.554  15.014   9.826  1.00  0.00     0.166 HD
HETATM    5  O1  UNL     1      24.595  12.749   7.501  1.00  0.00    -0.270 OA
BRANCH   3   6
HETATM    6  C2  UNL     1      25.756  15.255   8.054  1.00  0.00     0.277 C 
HETATM    7  C1  UNL     1      25.020  15.532   6.767  1.00  0.00     0.087 C 
BRANCH   6   8
HETATM    8  N1  UNL     1      26.846  14.340   7.790  1.00  0.00    -0.040 N 
ATOM      9  H13 UNL     1      27.136  14.355   6.812  1.00  0.00     0.278 HD
ATOM     10  H12 UNL     1      27.724  14.652   8.204  1.00  0.00     0.278 HD
ATOM     11  H11 UNL     1      26.580  13.405   8.102  1.00  0.00     0.278 HD
ENDBRANCH   6   8
BRANCH   6  12
HETATM   12  S1  UNL     1      26.346  16.766   8.722  1.00  0.00     0.069 S 
HETATM   13  C8  UNL     1      28.096  16.909   8.656  1.00  0.00     0.141 C 
HETATM   14  O4  UNL     1      25.748  17.896   7.944  1.00  0.00    -0.246 OA
BRANCH  12  15
HETATM   15  N10 UNL     1      25.871  16.857  10.213  1.00  0.00    -0.357 N 
ATOM     16 2H10 UNL     1      26.412  16.553  11.022  1.00  0.00     0.165 HD
ATOM     17 1H10 UNL     1      24.938  17.268  10.223  1.00  0.00     0.165 HD
ENDBRANCH  12  15
ENDBRANCH   6  12
ENDBRANCH   3   6
ENDBRANCH   1   2
BRANCH   1  18
HETATM   18  O2  UNL     1      22.025  12.864   9.152  1.00  0.00    -0.378 OA
ATOM     19  H2  UNL     1      21.511  13.220   9.867  1.00  0.00     0.211 HD
ENDBRANCH   1  18
BRANCH   1  20
HETATM   20  C5  UNL     1      23.586  11.172   9.458  1.00  0.00     0.149 A 
HETATM   21  N3  UNL     1      24.763  10.524   9.385  1.00  0.00    -0.267 N 
HETATM   22  N4  UNL     1      24.518   9.224   9.394  1.00  0.00     0.018 NA
ATOM     23  H3  UNL     1      25.684  10.959   9.331  1.00  0.00     0.185 HD
HETATM   24  N5  UNL     1      23.202   8.996   9.472  1.00  0.00    -0.002 N 
HETATM   25  N9  UNL     1      22.657  10.202   9.510  1.00  0.00    -0.251 N 
ATOM     26  H9  UNL     1      21.653  10.375   9.573  1.00  0.00     0.191 HD
BRANCH  24  27
HETATM   27  C6  UNL     1      22.567   7.726   9.504  1.00  0.00     0.736 A 
HETATM   28  N6  UNL     1      21.667   7.254   8.633  1.00  0.00    -0.136 N 
HETATM   29  C7  UNL     1      21.288   5.999   8.995  1.00  0.00     0.353 A 
ATOM     30  H6  UNL     1      21.318   7.759   7.819  1.00  0.00     0.189 HD
HETATM   31  O3  UNL     1      20.451   5.250   8.397  1.00  0.00    -0.245 OA
HETATM   32  N7  UNL     1      21.970   5.710  10.104  1.00  0.00    -0.236 N 
HETATM   33  N8  UNL     1      22.743   6.754  10.411  1.00  0.00    -0.125 N 
ATOM     34  H7  UNL     1      21.912   4.837  10.629  1.00  0.00     0.192 HD
ATOM     35  H8  UNL     1      23.371   6.804  11.213  1.00  0.00     0.206 HD
ENDBRANCH  24  27
ENDBRANCH   1  20
TORSDOF 8
ENDMDL
