MODEL 1
REMARK VINA RESULT: -8.299103407      0.000      0.000
REMARK  12 active torsions:
REMARK  status: ('A' for Active; 'I' for Inactive)
REMARK    1  A    between atoms: C2_2  and  O1_3 
REMARK    2  A    between atoms: C2_2  and  C13_31 
REMARK    3  A    between atoms: O1_3  and  C3_4 
REMARK       I    between atoms: C3_4  and  N1_6 
REMARK    4  A    between atoms: N1_6  and  C4_8 
REMARK    5  A    between atoms: C4_8  and  C5_9 
REMARK    6  A    between atoms: C4_8  and  C7_13 
REMARK    7  A    between atoms: C5_9  and  C6_10 
REMARK    8  A    between atoms: C7_13  and  O4_14 
REMARK    9  A    between atoms: C7_13  and  N2_16 
REMARK   10  A    between atoms: C10_21  and  N4_22 
REMARK   11  A    between atoms: C13_31  and  N7_32 
REMARK   12  A    between atoms: C13_31  and  O5_36 
ROOT
HETATM    1  C6  UNL     1      22.622  14.219   7.914  1.00  0.00     0.054 C 
HETATM    2  O3  UNL     1      21.327  14.620   7.641  1.00  0.00    -0.314 OA
ATOM      3  H3  UNL     1      20.443  14.909   7.446  1.00  0.00     0.230 HD
ENDROOT
BRANCH   1   4
HETATM    4  C5  UNL     1      23.744  13.851   8.162  1.00  0.00    -0.046 C 
BRANCH   4   5
HETATM    5  C4  UNL     1      25.078  13.393   8.470  1.00  0.00     0.217 C 
BRANCH   5   6
HETATM    6  N1  UNL     1      26.102  14.331   7.996  1.00  0.00    -0.317 N 
HETATM    7  C3  UNL     1      26.447  15.478   8.742  1.00  0.00     0.362 C 
HETATM    8  O2  UNL     1      25.859  15.701   9.843  1.00  0.00    -0.238 OA
ATOM      9  H1  UNL     1      26.574  14.151   7.110  1.00  0.00     0.166 HD
BRANCH   7  10
HETATM   10  O1  UNL     1      27.405  16.355   8.296  1.00  0.00    -0.295 OA
BRANCH  10  11
HETATM   11  C2  UNL     1      28.623  16.599   8.968  1.00  0.00     0.185 C 
HETATM   12  C1  UNL     1      29.719  16.541   7.906  1.00  0.00     0.044 C 
BRANCH  11  13
HETATM   13  C13 UNL     1      28.926  15.510   9.974  1.00  0.00     0.345 C 
BRANCH  13  14
HETATM   14  N7  UNL     1      30.362  15.320   9.998  1.00  0.00    -0.051 N 
ATOM     15  H73 UNL     1      30.765  15.226   9.065  1.00  0.00     0.277 HD
ATOM     16  H72 UNL     1      30.868  16.160  10.278  1.00  0.00     0.277 HD
ATOM     17  H71 UNL     1      30.559  14.520  10.598  1.00  0.00     0.277 HD
ENDBRANCH  13  14
BRANCH  13  18
HETATM   18  O5  UNL     1      28.494  15.862  11.241  1.00  0.00    -0.368 OA
ATOM     19  H5  UNL     1      29.133  15.622  11.902  1.00  0.00     0.212 HD
ENDBRANCH  13  18
ENDBRANCH  11  13
ENDBRANCH  10  11
ENDBRANCH   7  10
ENDBRANCH   5   6
BRANCH   5  20
HETATM   20  C7  UNL     1      25.406  12.058   7.863  1.00  0.00     0.262 C 
BRANCH  20  21
HETATM   21  O4  UNL     1      25.252  12.055   6.470  1.00  0.00    -0.373 OA
ATOM     22  H4  UNL     1      25.971  11.620   6.029  1.00  0.00     0.212 HD
ENDBRANCH  20  21
BRANCH  20  23
HETATM   23  N2  UNL     1      24.651  10.970   8.395  1.00  0.00    -0.297 N 
HETATM   24  C8  UNL     1      23.319  10.848   8.363  1.00  0.00     0.188 A 
HETATM   25  N3  UNL     1      23.018   9.689   8.967  1.00  0.00    -0.346 N 
HETATM   26  C9  UNL     1      24.132   9.089   9.373  1.00  0.00     0.122 A 
ATOM     27  H3  UNL     1      22.075   9.323   9.095  1.00  0.00     0.167 HD
HETATM   28  C10 UNL     1      24.379   7.891  10.037  1.00  0.00     0.131 A 
HETATM   29  C12 UNL     1      25.182   9.901   9.011  1.00  0.00     0.142 A 
HETATM   30  N5  UNL     1      25.656   7.587  10.295  1.00  0.00    -0.337 N 
HETATM   31  C11 UNL     1      26.689   8.373   9.947  1.00  0.00     0.183 A 
ATOM     32  H5  UNL     1      25.857   6.713  10.781  1.00  0.00     0.168 HD
HETATM   33  N6  UNL     1      26.463   9.531   9.304  1.00  0.00    -0.336 N 
ATOM     34  H6  UNL     1      27.244  10.130   9.037  1.00  0.00     0.168 HD
BRANCH  28  35
HETATM   35  N4  UNL     1      23.392   7.127  10.377  1.00  0.00    -0.383 N 
ATOM     36  H42 UNL     1      22.479   7.489  10.650  1.00  0.00     0.157 HD
ATOM     37  H41 UNL     1      23.511   6.114  10.380  1.00  0.00     0.157 HD
ENDBRANCH  28  35
ENDBRANCH  20  23
ENDBRANCH   5  20
ENDBRANCH   4   5
ENDBRANCH   1   4
TORSDOF 12
ENDMDL
MODEL 2
REMARK VINA RESULT: -8.091341399      3.661      8.033
REMARK  12 active torsions:
REMARK  status: ('A' for Active; 'I' for Inactive)
REMARK    1  A    between atoms: C2_2  and  O1_3 
REMARK    2  A    between atoms: C2_2  and  C13_31 
REMARK    3  A    between atoms: O1_3  and  C3_4 
REMARK       I    between atoms: C3_4  and  N1_6 
REMARK    4  A    between atoms: N1_6  and  C4_8 
REMARK    5  A    between atoms: C4_8  and  C5_9 
REMARK    6  A    between atoms: C4_8  and  C7_13 
REMARK    7  A    between atoms: C5_9  and  C6_10 
REMARK    8  A    between atoms: C7_13  and  O4_14 
REMARK    9  A    between atoms: C7_13  and  N2_16 
REMARK   10  A    between atoms: C10_21  and  N4_22 
REMARK   11  A    between atoms: C13_31  and  N7_32 
REMARK   12  A    between atoms: C13_31  and  O5_36 
ROOT
HETATM    1  C6  UNL     1      24.694  19.015  10.011  1.00  0.00     0.054 C 
HETATM    2  O3  UNL     1      23.636  19.885  10.208  1.00  0.00    -0.314 OA
ATOM      3  H3  UNL     1      22.921  20.495  10.343  1.00  0.00     0.230 HD
ENDROOT
BRANCH   1   4
HETATM    4  C5  UNL     1      25.603  18.240   9.839  1.00  0.00    -0.046 C 
BRANCH   4   5
HETATM    5  C4  UNL     1      26.679  17.304   9.614  1.00  0.00     0.217 C 
BRANCH   5   6
HETATM    6  N1  UNL     1      26.202  15.916   9.605  1.00  0.00    -0.317 N 
HETATM    7  C3  UNL     1      26.530  15.035   8.553  1.00  0.00     0.362 C 
HETATM    8  O2  UNL     1      27.250  15.452   7.597  1.00  0.00    -0.238 OA
ATOM      9  H1  UNL     1      25.623  15.581  10.374  1.00  0.00     0.166 HD
BRANCH   7  10
HETATM   10  O1  UNL     1      26.082  13.736   8.547  1.00  0.00    -0.295 OA
BRANCH  10  11
HETATM   11  C2  UNL     1      24.800  13.348   8.102  1.00  0.00     0.185 C 
HETATM   12  C1  UNL     1      25.005  12.115   7.223  1.00  0.00     0.044 C 
BRANCH  11  13
HETATM   13  C13 UNL     1      24.173  14.412   7.228  1.00  0.00     0.345 C 
BRANCH  13  14
HETATM   14  N7  UNL     1      24.251  13.957   5.855  1.00  0.00    -0.051 N 
ATOM     15  H73 UNL     1      25.106  13.435   5.658  1.00  0.00     0.277 HD
ATOM     16  H72 UNL     1      23.588  13.211   5.647  1.00  0.00     0.277 HD
ATOM     17  H71 UNL     1      24.136  14.770   5.251  1.00  0.00     0.277 HD
ENDBRANCH  13  14
BRANCH  13  18
HETATM   18  O5  UNL     1      22.846  14.619   7.562  1.00  0.00    -0.368 OA
ATOM     19  H5  UNL     1      22.765  15.025   8.416  1.00  0.00     0.212 HD
ENDBRANCH  13  18
ENDBRANCH  11  13
ENDBRANCH  10  11
ENDBRANCH   7  10
ENDBRANCH   5   6
BRANCH   5  20
HETATM   20  C7  UNL     1      27.763  17.379  10.651  1.00  0.00     0.262 C 
BRANCH  20  21
HETATM   21  O4  UNL     1      27.379  18.135  11.767  1.00  0.00    -0.373 OA
ATOM     22  H4  UNL     1      28.024  18.101  12.464  1.00  0.00     0.212 HD
ENDBRANCH  20  21
BRANCH  20  23
HETATM   23  N2  UNL     1      29.002  17.898  10.168  1.00  0.00    -0.297 N 
HETATM   24  C8  UNL     1      29.505  19.108  10.437  1.00  0.00     0.188 A 
HETATM   25  N3  UNL     1      30.677  19.195   9.792  1.00  0.00    -0.346 N 
HETATM   26  C9  UNL     1      30.914  18.068   9.130  1.00  0.00     0.122 A 
ATOM     27  H3  UNL     1      31.295  20.006   9.809  1.00  0.00     0.167 HD
HETATM   28  C10 UNL     1      31.963  17.643   8.320  1.00  0.00     0.131 A 
HETATM   29  C12 UNL     1      29.847  17.231   9.364  1.00  0.00     0.142 A 
HETATM   30  N5  UNL     1      31.874  16.413   7.800  1.00  0.00    -0.337 N 
HETATM   31  C11 UNL     1      30.837  15.589   8.022  1.00  0.00     0.183 A 
ATOM     32  H5  UNL     1      32.634  16.084   7.204  1.00  0.00     0.168 HD
HETATM   33  N6  UNL     1      29.819  15.988   8.803  1.00  0.00    -0.336 N 
ATOM     34  H6  UNL     1      29.030  15.365   8.976  1.00  0.00     0.168 HD
BRANCH  28  35
HETATM   35  N4  UNL     1      32.966  18.429   8.098  1.00  0.00    -0.383 N 
ATOM     36  H42 UNL     1      33.356  18.581   7.169  1.00  0.00     0.157 HD
ATOM     37  H41 UNL     1      33.401  18.928   8.874  1.00  0.00     0.157 HD
ENDBRANCH  28  35
ENDBRANCH  20  23
ENDBRANCH   5  20
ENDBRANCH   4   5
ENDBRANCH   1   4
TORSDOF 12
ENDMDL
MODEL 3
REMARK VINA RESULT: -7.977880130      3.328      8.418
REMARK  12 active torsions:
REMARK  status: ('A' for Active; 'I' for Inactive)
REMARK    1  A    between atoms: C2_2  and  O1_3 
REMARK    2  A    between atoms: C2_2  and  C13_31 
REMARK    3  A    between atoms: O1_3  and  C3_4 
REMARK       I    between atoms: C3_4  and  N1_6 
REMARK    4  A    between atoms: N1_6  and  C4_8 
REMARK    5  A    between atoms: C4_8  and  C5_9 
REMARK    6  A    between atoms: C4_8  and  C7_13 
REMARK    7  A    between atoms: C5_9  and  C6_10 
REMARK    8  A    between atoms: C7_13  and  O4_14 
REMARK    9  A    between atoms: C7_13  and  N2_16 
REMARK   10  A    between atoms: C10_21  and  N4_22 
REMARK   11  A    between atoms: C13_31  and  N7_32 
REMARK   12  A    between atoms: C13_31  and  O5_36 
ROOT
HETATM    1  C6  UNL     1      31.060  15.321   7.807  1.00  0.00     0.054 C 
HETATM    2  O3  UNL     1      32.335  14.954   7.415  1.00  0.00    -0.314 OA
ATOM      3  H3  UNL     1      33.215  14.705   7.162  1.00  0.00     0.230 HD
ENDROOT
BRANCH   1   4
HETATM    4  C5  UNL     1      29.941  15.638   8.129  1.00  0.00    -0.046 C 
BRANCH   4   5
HETATM    5  C4  UNL     1      28.595  16.014   8.491  1.00  0.00     0.217 C 
BRANCH   5   6
HETATM    6  N1  UNL     1      27.594  15.313   7.678  1.00  0.00    -0.317 N 
HETATM    7  C3  UNL     1      26.324  14.988   8.197  1.00  0.00     0.362 C 
HETATM    8  O2  UNL     1      26.042  15.308   9.391  1.00  0.00    -0.238 OA
ATOM      9  H1  UNL     1      27.821  15.056   6.717  1.00  0.00     0.166 HD
BRANCH   7  10
HETATM   10  O1  UNL     1      25.389  14.332   7.434  1.00  0.00    -0.295 OA
BRANCH  10  11
HETATM   11  C2  UNL     1      24.580  13.279   7.914  1.00  0.00     0.185 C 
HETATM   12  C1  UNL     1      24.832  12.087   6.993  1.00  0.00     0.044 C 
BRANCH  11  13
HETATM   13  C13 UNL     1      23.109  13.619   7.802  1.00  0.00     0.345 C 
BRANCH  13  14
HETATM   14  N7  UNL     1      22.481  13.280   9.063  1.00  0.00    -0.051 N 
ATOM     15  H73 UNL     1      22.414  12.274   9.215  1.00  0.00     0.277 HD
ATOM     16  H72 UNL     1      23.068  13.499   9.868  1.00  0.00     0.277 HD
ATOM     17  H71 UNL     1      21.576  13.747   9.093  1.00  0.00     0.277 HD
ENDBRANCH  13  14
BRANCH  13  18
HETATM   18  O5  UNL     1      22.923  14.967   7.550  1.00  0.00    -0.368 OA
ATOM     19  H5  UNL     1      22.625  15.113   6.660  1.00  0.00     0.212 HD
ENDBRANCH  13  18
ENDBRANCH  11  13
ENDBRANCH  10  11
ENDBRANCH   7  10
ENDBRANCH   5   6
BRANCH   5  20
HETATM   20  C7  UNL     1      28.322  17.483   8.335  1.00  0.00     0.262 C 
BRANCH  20  21
HETATM   21  O4  UNL     1      29.205  18.095   7.434  1.00  0.00    -0.373 OA
ATOM     22  H4  UNL     1      28.825  18.193   6.569  1.00  0.00     0.212 HD
ENDBRANCH  20  21
BRANCH  20  23
HETATM   23  N2  UNL     1      28.355  18.219   9.557  1.00  0.00    -0.297 N 
HETATM   24  C8  UNL     1      29.449  18.714  10.148  1.00  0.00     0.188 A 
HETATM   25  N3  UNL     1      29.043  19.331  11.267  1.00  0.00    -0.346 N 
HETATM   26  C9  UNL     1      27.724  19.231  11.386  1.00  0.00     0.122 A 
ATOM     27  H3  UNL     1      29.657  19.807  11.928  1.00  0.00     0.167 HD
HETATM   28  C10 UNL     1      26.817  19.684  12.339  1.00  0.00     0.131 A 
HETATM   29  C12 UNL     1      27.274  18.521  10.296  1.00  0.00     0.142 A 
HETATM   30  N5  UNL     1      25.526  19.398  12.140  1.00  0.00    -0.337 N 
HETATM   31  C11 UNL     1      25.076  18.706  11.080  1.00  0.00     0.183 A 
ATOM     32  H5  UNL     1      24.846  19.722  12.829  1.00  0.00     0.168 HD
HETATM   33  N6  UNL     1      25.942  18.263  10.153  1.00  0.00    -0.336 N 
ATOM     34  H6  UNL     1      25.605  17.738   9.346  1.00  0.00     0.168 HD
BRANCH  28  35
HETATM   35  N4  UNL     1      27.239  20.352  13.364  1.00  0.00    -0.383 N 
ATOM     36  H42 UNL     1      28.226  20.427  13.609  1.00  0.00     0.157 HD
ATOM     37  H41 UNL     1      26.572  20.832  13.967  1.00  0.00     0.157 HD
ENDBRANCH  28  35
ENDBRANCH  20  23
ENDBRANCH   5  20
ENDBRANCH   4   5
ENDBRANCH   1   4
TORSDOF 12
ENDMDL
MODEL 4
REMARK VINA RESULT: -7.882704196      2.095      7.051
REMARK  12 active torsions:
REMARK  status: ('A' for Active; 'I' for Inactive)
REMARK    1  A    between atoms: C2_2  and  O1_3 
REMARK    2  A    between atoms: C2_2  and  C13_31 
REMARK    3  A    between atoms: O1_3  and  C3_4 
REMARK       I    between atoms: C3_4  and  N1_6 
REMARK    4  A    between atoms: N1_6  and  C4_8 
REMARK    5  A    between atoms: C4_8  and  C5_9 
REMARK    6  A    between atoms: C4_8  and  C7_13 
REMARK    7  A    between atoms: C5_9  and  C6_10 
REMARK    8  A    between atoms: C7_13  and  O4_14 
REMARK    9  A    between atoms: C7_13  and  N2_16 
REMARK   10  A    between atoms: C10_21  and  N4_22 
REMARK   11  A    between atoms: C13_31  and  N7_32 
REMARK   12  A    between atoms: C13_31  and  O5_36 
ROOT
HETATM    1  C6  UNL     1      22.476  14.163   7.712  1.00  0.00     0.054 C 
HETATM    2  O3  UNL     1      21.114  14.322   7.896  1.00  0.00    -0.314 OA
ATOM      3  H3  UNL     1      20.177  14.419   8.012  1.00  0.00     0.230 HD
ENDROOT
BRANCH   1   4
HETATM    4  C5  UNL     1      23.667  14.040   7.565  1.00  0.00    -0.046 C 
BRANCH   4   5
HETATM    5  C4  UNL     1      25.092  13.873   7.401  1.00  0.00     0.217 C 
BRANCH   5   6
HETATM    6  N1  UNL     1      25.483  12.459   7.431  1.00  0.00    -0.317 N 
HETATM    7  C3  UNL     1      25.199  11.643   8.546  1.00  0.00     0.362 C 
HETATM    8  O2  UNL     1      24.595  12.142   9.543  1.00  0.00    -0.238 OA
ATOM      9  H1  UNL     1      25.969  12.057   6.630  1.00  0.00     0.166 HD
BRANCH   7  10
HETATM   10  O1  UNL     1      25.567  10.319   8.572  1.00  0.00    -0.295 OA
BRANCH  10  11
HETATM   11  C2  UNL     1      25.896   9.617   9.751  1.00  0.00     0.185 C 
HETATM   12  C1  UNL     1      27.388   9.299   9.660  1.00  0.00     0.044 C 
BRANCH  11  13
HETATM   13  C13 UNL     1      25.168   8.292   9.826  1.00  0.00     0.345 C 
BRANCH  13  14
HETATM   14  N7  UNL     1      26.119   7.292  10.267  1.00  0.00    -0.051 N 
ATOM     15  H73 UNL     1      27.086   7.546  10.062  1.00  0.00     0.277 HD
ATOM     16  H72 UNL     1      26.204   7.245  11.281  1.00  0.00     0.277 HD
ATOM     17  H71 UNL     1      25.847   6.402   9.850  1.00  0.00     0.277 HD
ENDBRANCH  13  14
BRANCH  13  18
HETATM   18  O5  UNL     1      24.118   8.346  10.727  1.00  0.00    -0.368 OA
ATOM     19  H5  UNL     1      23.999   9.226  11.064  1.00  0.00     0.212 HD
ENDBRANCH  13  18
ENDBRANCH  11  13
ENDBRANCH  10  11
ENDBRANCH   7  10
ENDBRANCH   5   6
BRANCH   5  20
HETATM   20  C7  UNL     1      25.901  14.565   8.461  1.00  0.00     0.262 C 
BRANCH  20  21
HETATM   21  O4  UNL     1      25.097  15.103   9.476  1.00  0.00    -0.373 OA
ATOM     22  H4  UNL     1      24.732  15.946   9.236  1.00  0.00     0.212 HD
ENDBRANCH  20  21
BRANCH  20  23
HETATM   23  N2  UNL     1      26.748  15.602   7.969  1.00  0.00    -0.297 N 
HETATM   24  C8  UNL     1      26.439  16.480   7.008  1.00  0.00     0.188 A 
HETATM   25  N3  UNL     1      27.505  17.278   6.850  1.00  0.00    -0.346 N 
HETATM   26  C9  UNL     1      28.469  16.916   7.689  1.00  0.00     0.122 A 
ATOM     27  H3  UNL     1      27.566  18.048   6.184  1.00  0.00     0.167 HD
HETATM   28  C10 UNL     1      29.751  17.400   7.931  1.00  0.00     0.131 A 
HETATM   29  C12 UNL     1      27.994  15.844   8.410  1.00  0.00     0.142 A 
HETATM   30  N5  UNL     1      30.471  16.781   8.874  1.00  0.00    -0.337 N 
HETATM   31  C11 UNL     1      30.017  15.734   9.583  1.00  0.00     0.183 A 
ATOM     32  H5  UNL     1      31.413  17.122   9.065  1.00  0.00     0.168 HD
HETATM   33  N6  UNL     1      28.780  15.258   9.359  1.00  0.00    -0.336 N 
ATOM     34  H6  UNL     1      28.431  14.464   9.896  1.00  0.00     0.168 HD
BRANCH  28  35
HETATM   35  N4  UNL     1      30.199  18.407   7.254  1.00  0.00    -0.383 N 
ATOM     36  H42 UNL     1      31.168  18.720   7.302  1.00  0.00     0.157 HD
ATOM     37  H41 UNL     1      29.572  18.924   6.639  1.00  0.00     0.157 HD
ENDBRANCH  28  35
ENDBRANCH  20  23
ENDBRANCH   5  20
ENDBRANCH   4   5
ENDBRANCH   1   4
TORSDOF 12
ENDMDL
MODEL 5
REMARK VINA RESULT: -7.838577022      1.931      2.373
REMARK  12 active torsions:
REMARK  status: ('A' for Active; 'I' for Inactive)
REMARK    1  A    between atoms: C2_2  and  O1_3 
REMARK    2  A    between atoms: C2_2  and  C13_31 
REMARK    3  A    between atoms: O1_3  and  C3_4 
REMARK       I    between atoms: C3_4  and  N1_6 
REMARK    4  A    between atoms: N1_6  and  C4_8 
REMARK    5  A    between atoms: C4_8  and  C5_9 
REMARK    6  A    between atoms: C4_8  and  C7_13 
REMARK    7  A    between atoms: C5_9  and  C6_10 
REMARK    8  A    between atoms: C7_13  and  O4_14 
REMARK    9  A    between atoms: C7_13  and  N2_16 
REMARK   10  A    between atoms: C10_21  and  N4_22 
REMARK   11  A    between atoms: C13_31  and  N7_32 
REMARK   12  A    between atoms: C13_31  and  O5_36 
ROOT
HETATM    1  C6  UNL     1      24.380  14.469   5.556  1.00  0.00     0.054 C 
HETATM    2  O3  UNL     1      24.421  14.936   4.255  1.00  0.00    -0.314 OA
ATOM      3  H3  UNL     1      24.459  15.269   3.366  1.00  0.00     0.230 HD
ENDROOT
BRANCH   1   4
HETATM    4  C5  UNL     1      24.331  14.046   6.685  1.00  0.00    -0.046 C 
BRANCH   4   5
HETATM    5  C4  UNL     1      24.277  13.562   8.045  1.00  0.00     0.217 C 
BRANCH   5   6
HETATM    6  N1  UNL     1      24.758  14.565   9.001  1.00  0.00    -0.317 N 
HETATM    7  C3  UNL     1      26.055  15.109   8.904  1.00  0.00     0.362 C 
HETATM    8  O2  UNL     1      26.822  14.721   7.972  1.00  0.00    -0.238 OA
ATOM      9  H1  UNL     1      24.141  14.876   9.752  1.00  0.00     0.166 HD
BRANCH   7  10
HETATM   10  O1  UNL     1      26.503  16.048   9.802  1.00  0.00    -0.295 OA
BRANCH  10  11
HETATM   11  C2  UNL     1      26.464  17.440   9.569  1.00  0.00     0.185 C 
HETATM   12  C1  UNL     1      27.889  17.951   9.773  1.00  0.00     0.044 C 
BRANCH  11  13
HETATM   13  C13 UNL     1      25.594  18.145  10.588  1.00  0.00     0.345 C 
BRANCH  13  14
HETATM   14  N7  UNL     1      24.498  18.769   9.874  1.00  0.00    -0.051 N 
ATOM     15  H73 UNL     1      24.284  19.705  10.217  1.00  0.00     0.277 HD
ATOM     16  H72 UNL     1      24.744  19.028   8.919  1.00  0.00     0.277 HD
ATOM     17  H71 UNL     1      23.699  18.137   9.921  1.00  0.00     0.277 HD
ENDBRANCH  13  14
BRANCH  13  18
HETATM   18  O5  UNL     1      25.083  17.254  11.515  1.00  0.00    -0.368 OA
ATOM     19  H5  UNL     1      24.385  17.648  12.024  1.00  0.00     0.212 HD
ENDBRANCH  13  18
ENDBRANCH  11  13
ENDBRANCH  10  11
ENDBRANCH   7  10
ENDBRANCH   5   6
BRANCH   5  20
HETATM   20  C7  UNL     1      25.097  12.324   8.272  1.00  0.00     0.262 C 
BRANCH  20  21
HETATM   21  O4  UNL     1      25.771  11.913   7.113  1.00  0.00    -0.373 OA
ATOM     22  H4  UNL     1      26.238  11.096   7.240  1.00  0.00     0.212 HD
ENDBRANCH  20  21
BRANCH  20  23
HETATM   23  N2  UNL     1      24.356  11.212   8.772  1.00  0.00    -0.297 N 
HETATM   24  C8  UNL     1      23.025  11.148   8.898  1.00  0.00     0.188 A 
HETATM   25  N3  UNL     1      22.739   9.938   9.402  1.00  0.00    -0.346 N 
HETATM   26  C9  UNL     1      23.860   9.251   9.592  1.00  0.00     0.122 A 
ATOM     27  H3  UNL     1      21.800   9.598   9.609  1.00  0.00     0.167 HD
HETATM   28  C10 UNL     1      24.122   7.975  10.082  1.00  0.00     0.131 A 
HETATM   29  C12 UNL     1      24.900  10.058   9.192  1.00  0.00     0.142 A 
HETATM   30  N5  UNL     1      25.403   7.592  10.137  1.00  0.00    -0.337 N 
HETATM   31  C11 UNL     1      26.426   8.372   9.749  1.00  0.00     0.183 A 
ATOM     32  H5  UNL     1      25.614   6.660  10.493  1.00  0.00     0.168 HD
HETATM   33  N6  UNL     1      26.185   9.606   9.275  1.00  0.00    -0.336 N 
ATOM     34  H6  UNL     1      26.959  10.201   8.978  1.00  0.00     0.168 HD
BRANCH  28  35
HETATM   35  N4  UNL     1      23.145   7.216  10.459  1.00  0.00    -0.383 N 
ATOM     36  H42 UNL     1      23.218   6.200  10.505  1.00  0.00     0.157 HD
ATOM     37  H41 UNL     1      22.253   7.631  10.726  1.00  0.00     0.157 HD
ENDBRANCH  28  35
ENDBRANCH  20  23
ENDBRANCH   5  20
ENDBRANCH   4   5
ENDBRANCH   1   4
TORSDOF 12
ENDMDL
