MODEL 1
REMARK VINA RESULT: -7.621477414      0.000      0.000
REMARK  9 active torsions:
REMARK  status: ('A' for Active; 'I' for Inactive)
REMARK       I    between atoms: C2_2  and  N1_4 
REMARK    1  A    between atoms: N1_4  and  N2_6 
REMARK    2  A    between atoms: N2_6  and  C3_8 
REMARK    3  A    between atoms: C3_8  and  C4_9 
REMARK    4  A    between atoms: C3_8  and  C7_20 
REMARK    5  A    between atoms: C5_14  and  C6_15 
REMARK    6  A    between atoms: C8_26  and  C9_27 
REMARK    7  A    between atoms: C9_27  and  O3_28 
REMARK    8  A    between atoms: C9_27  and  N9_30 
REMARK    9  A    between atoms: N9_30  and  N10_32 
ROOT
HETATM    1  C3  UNL     1      26.797  16.195   9.664  1.00  0.00     0.220 C 
ENDROOT
BRANCH   1   2
HETATM    2  N2  UNL     1      25.674  15.626   9.007  1.00  0.00    -0.316 N 
ATOM      3  H2  UNL     1      24.906  16.225   8.705  1.00  0.00     0.181 HD
BRANCH   2   4
HETATM    4  N1  UNL     1      25.619  14.295   8.782  1.00  0.00    -0.274 N 
HETATM    5  C2  UNL     1      25.232  13.538   7.673  1.00  0.00     0.231 C 
HETATM    6  C1  UNL     1      25.279  12.023   7.723  1.00  0.00     0.119 C 
HETATM    7  O1  UNL     1      24.839  14.056   6.615  1.00  0.00    -0.272 OA
ATOM      8  H1  UNL     1      25.920  13.732   9.577  1.00  0.00     0.189 HD
ENDBRANCH   2   4
ENDBRANCH   1   2
BRANCH   1   9
HETATM    9  C4  UNL     1      26.253  17.409  10.392  1.00  0.00     0.128 A 
HETATM   10  N3  UNL     1      25.074  18.018  10.132  1.00  0.00    -0.285 N 
HETATM   11  N4  UNL     1      24.998  19.041  10.948  1.00  0.00    -0.280 N 
ATOM     12  H3  UNL     1      24.382  17.738   9.438  1.00  0.00     0.188 HD
HETATM   13  C5  UNL     1      26.111  19.090  11.722  1.00  0.00     0.188 A 
ATOM     14  H4  UNL     1      24.220  19.699  10.994  1.00  0.00     0.188 HD
HETATM   15  N6  UNL     1      26.895  18.047  11.356  1.00  0.00    -0.324 N 
ATOM     16  H6  UNL     1      27.804  17.801  11.748  1.00  0.00     0.169 HD
BRANCH  13  17
HETATM   17  C6  UNL     1      26.352  20.095  12.726  1.00  0.00     0.300 C 
HETATM   18  N5  UNL     1      25.806  19.909  14.027  1.00  0.00    -0.054 NA
HETATM   19  O2  UNL     1      27.044  21.123  12.443  1.00  0.00    -0.268 OA
ENDBRANCH  13  17
ENDBRANCH   1   9
BRANCH   1  20
HETATM   20  C7  UNL     1      27.851  16.731   8.698  1.00  0.00     0.080 A 
HETATM   21  N7  UNL     1      29.125  16.762   9.177  1.00  0.00    -0.311 N 
HETATM   22  S1  UNL     1      30.049  17.331   7.922  1.00  0.00     0.068 SA
ATOM     23  H7  UNL     1      29.443  16.492  10.108  1.00  0.00     0.175 HD
HETATM   24  N8  UNL     1      28.847  17.530   6.801  1.00  0.00    -0.307 N 
HETATM   25  C8  UNL     1      27.683  17.137   7.433  1.00  0.00     0.118 A 
ATOM     26  H8  UNL     1      28.945  17.871   5.845  1.00  0.00     0.176 HD
BRANCH  25  27
HETATM   27  C9  UNL     1      26.458  17.236   6.618  1.00  0.00     0.184 C 
BRANCH  27  28
HETATM   28  O3  UNL     1      25.479  17.974   7.084  1.00  0.00    -0.343 OA
ATOM     29  H3  UNL     1      24.926  17.594   7.758  1.00  0.00     0.219 HD
ENDBRANCH  27  28
BRANCH  27  30
HETATM   30  N9  UNL     1      26.129  16.673   5.401  1.00  0.00    -0.285 N 
ATOM     31  H9  UNL     1      26.876  16.463   4.739  1.00  0.00     0.188 HD
BRANCH  30  32
HETATM   32  N10 UNL     1      24.770  16.370   5.032  1.00  0.00    -0.343 N 
ATOM     33 2H10 UNL     1      24.501  15.388   4.977  1.00  0.00     0.176 HD
ATOM     34 1H10 UNL     1      24.084  17.096   4.827  1.00  0.00     0.176 HD
ENDBRANCH  30  32
ENDBRANCH  27  30
ENDBRANCH  25  27
ENDBRANCH   1  20
TORSDOF 9
ENDMDL
MODEL 2
REMARK VINA RESULT: -7.384047868      2.189      3.795
REMARK  9 active torsions:
REMARK  status: ('A' for Active; 'I' for Inactive)
REMARK       I    between atoms: C2_2  and  N1_4 
REMARK    1  A    between atoms: N1_4  and  N2_6 
REMARK    2  A    between atoms: N2_6  and  C3_8 
REMARK    3  A    between atoms: C3_8  and  C4_9 
REMARK    4  A    between atoms: C3_8  and  C7_20 
REMARK    5  A    between atoms: C5_14  and  C6_15 
REMARK    6  A    between atoms: C8_26  and  C9_27 
REMARK    7  A    between atoms: C9_27  and  O3_28 
REMARK    8  A    between atoms: C9_27  and  N9_30 
REMARK    9  A    between atoms: N9_30  and  N10_32 
ROOT
HETATM    1  C3  UNL     1      27.727  17.246   8.986  1.00  0.00     0.220 C 
ENDROOT
BRANCH   1   2
HETATM    2  N2  UNL     1      28.822  16.662   9.675  1.00  0.00    -0.316 N 
ATOM      3  H2  UNL     1      28.652  15.969  10.404  1.00  0.00     0.181 HD
BRANCH   2   4
HETATM    4  N1  UNL     1      30.088  17.020   9.370  1.00  0.00    -0.274 N 
HETATM    5  C2  UNL     1      30.772  18.235   9.444  1.00  0.00     0.231 C 
HETATM    6  C1  UNL     1      32.225  18.327   9.017  1.00  0.00     0.119 C 
HETATM    7  O1  UNL     1      30.238  19.279   9.854  1.00  0.00    -0.272 OA
ATOM      8  H1  UNL     1      30.657  16.250   9.015  1.00  0.00     0.189 HD
ENDBRANCH   2   4
ENDBRANCH   1   2
BRANCH   1   9
HETATM    9  C4  UNL     1      26.900  17.923  10.061  1.00  0.00     0.128 A 
HETATM   10  N3  UNL     1      25.567  17.776  10.236  1.00  0.00    -0.285 N 
HETATM   11  N4  UNL     1      25.237  18.553  11.238  1.00  0.00    -0.280 N 
ATOM     12  H3  UNL     1      24.942  17.179   9.694  1.00  0.00     0.188 HD
HETATM   13  C5  UNL     1      26.340  19.192  11.702  1.00  0.00     0.188 A 
ATOM     14  H4  UNL     1      24.295  18.661  11.612  1.00  0.00     0.188 HD
HETATM   15  N6  UNL     1      27.386  18.778  10.944  1.00  0.00    -0.324 N 
ATOM     16  H6  UNL     1      28.358  19.070  11.037  1.00  0.00     0.169 HD
BRANCH  13  17
HETATM   17  C6  UNL     1      26.332  20.125  12.799  1.00  0.00     0.300 C 
HETATM   18  N5  UNL     1      25.676  19.757  14.007  1.00  0.00    -0.054 NA
HETATM   19  O2  UNL     1      26.905  21.254  12.678  1.00  0.00    -0.268 OA
ENDBRANCH  13  17
ENDBRANCH   1   9
BRANCH   1  20
HETATM   20  C7  UNL     1      26.802  16.214   8.342  1.00  0.00     0.080 A 
HETATM   21  N7  UNL     1      26.722  15.017   8.984  1.00  0.00    -0.311 N 
HETATM   22  S1  UNL     1      25.629  14.126   8.108  1.00  0.00     0.068 SA
ATOM     23  H7  UNL     1      27.226  14.728   9.823  1.00  0.00     0.175 HD
HETATM   24  N8  UNL     1      25.273  15.248   6.945  1.00  0.00    -0.307 N 
HETATM   25  C8  UNL     1      26.036  16.357   7.253  1.00  0.00     0.118 A 
ATOM     26  H8  UNL     1      24.625  15.142   6.164  1.00  0.00     0.176 HD
BRANCH  25  27
HETATM   27  C9  UNL     1      25.887  17.501   6.335  1.00  0.00     0.184 C 
BRANCH  27  28
HETATM   28  O3  UNL     1      26.938  17.856   5.636  1.00  0.00    -0.343 OA
ATOM     29  H3  UNL     1      26.894  18.681   5.165  1.00  0.00     0.219 HD
ENDBRANCH  27  28
BRANCH  27  30
HETATM   30  N9  UNL     1      24.802  18.308   6.059  1.00  0.00    -0.285 N 
ATOM     31  H9  UNL     1      24.713  19.197   6.551  1.00  0.00     0.188 HD
BRANCH  30  32
HETATM   32  N10 UNL     1      23.792  17.943   5.100  1.00  0.00    -0.343 N 
ATOM     33 2H10 UNL     1      24.089  17.436   4.266  1.00  0.00     0.176 HD
ATOM     34 1H10 UNL     1      22.807  18.174   5.228  1.00  0.00     0.176 HD
ENDBRANCH  30  32
ENDBRANCH  27  30
ENDBRANCH  25  27
ENDBRANCH   1  20
TORSDOF 9
ENDMDL
MODEL 3
REMARK VINA RESULT: -7.364031614      2.536      3.340
REMARK  9 active torsions:
REMARK  status: ('A' for Active; 'I' for Inactive)
REMARK       I    between atoms: C2_2  and  N1_4 
REMARK    1  A    between atoms: N1_4  and  N2_6 
REMARK    2  A    between atoms: N2_6  and  C3_8 
REMARK    3  A    between atoms: C3_8  and  C4_9 
REMARK    4  A    between atoms: C3_8  and  C7_20 
REMARK    5  A    between atoms: C5_14  and  C6_15 
REMARK    6  A    between atoms: C8_26  and  C9_27 
REMARK    7  A    between atoms: C9_27  and  O3_28 
REMARK    8  A    between atoms: C9_27  and  N9_30 
REMARK    9  A    between atoms: N9_30  and  N10_32 
ROOT
HETATM    1  C3  UNL     1      28.138  17.015   9.510  1.00  0.00     0.220 C 
ENDROOT
BRANCH   1   2
HETATM    2  N2  UNL     1      27.439  16.975   8.276  1.00  0.00    -0.316 N 
ATOM      3  H2  UNL     1      27.352  17.822   7.714  1.00  0.00     0.181 HD
BRANCH   2   4
HETATM    4  N1  UNL     1      26.888  15.820   7.842  1.00  0.00    -0.274 N 
HETATM    5  C2  UNL     1      25.888  14.995   8.362  1.00  0.00     0.231 C 
HETATM    6  C1  UNL     1      25.476  13.732   7.629  1.00  0.00     0.119 C 
HETATM    7  O1  UNL     1      25.299  15.247   9.426  1.00  0.00    -0.272 OA
ATOM      8  H1  UNL     1      27.278  15.486   6.961  1.00  0.00     0.189 HD
ENDBRANCH   2   4
ENDBRANCH   1   2
BRANCH   1   9
HETATM    9  C4  UNL     1      27.311  17.920  10.403  1.00  0.00     0.128 A 
HETATM   10  N3  UNL     1      26.055  18.346  10.140  1.00  0.00    -0.285 N 
HETATM   11  N4  UNL     1      25.716  19.133  11.132  1.00  0.00    -0.280 N 
ATOM     12  H3  UNL     1      25.484  18.103   9.331  1.00  0.00     0.188 HD
HETATM   13  C5  UNL     1      26.738  19.214  12.019  1.00  0.00     0.188 A 
ATOM     14  H4  UNL     1      24.820  19.612  11.222  1.00  0.00     0.188 HD
HETATM   15  N6  UNL     1      27.741  18.437  11.540  1.00  0.00    -0.324 N 
ATOM     16  H6  UNL     1      28.651  18.281  11.974  1.00  0.00     0.169 HD
BRANCH  13  17
HETATM   17  C6  UNL     1      26.701  20.001  13.225  1.00  0.00     0.300 C 
HETATM   18  N5  UNL     1      25.616  19.818  14.128  1.00  0.00    -0.054 NA
HETATM   19  O2  UNL     1      27.627  20.838  13.467  1.00  0.00    -0.268 OA
ENDBRANCH  13  17
ENDBRANCH   1   9
BRANCH   1  20
HETATM   20  C7  UNL     1      29.509  17.681   9.404  1.00  0.00     0.080 A 
HETATM   21  N7  UNL     1      29.511  19.038   9.508  1.00  0.00    -0.311 N 
HETATM   22  S1  UNL     1      31.108  19.480   9.409  1.00  0.00     0.068 SA
ATOM     23  H7  UNL     1      28.705  19.653   9.623  1.00  0.00     0.175 HD
HETATM   24  N8  UNL     1      31.770  17.972   9.238  1.00  0.00    -0.307 N 
HETATM   25  C8  UNL     1      30.704  17.094   9.260  1.00  0.00     0.118 A 
ATOM     26  H8  UNL     1      32.758  17.740   9.139  1.00  0.00     0.176 HD
BRANCH  25  27
HETATM   27  C9  UNL     1      31.055  15.670   9.114  1.00  0.00     0.184 C 
BRANCH  27  28
HETATM   28  O3  UNL     1      31.045  14.930  10.197  1.00  0.00    -0.343 OA
ATOM     29  H3  UNL     1      31.466  14.079  10.151  1.00  0.00     0.219 HD
ENDBRANCH  27  28
BRANCH  27  30
HETATM   30  N9  UNL     1      31.410  14.931   8.003  1.00  0.00    -0.285 N 
ATOM     31  H9  UNL     1      31.094  13.964   7.935  1.00  0.00     0.188 HD
BRANCH  30  32
HETATM   32  N10 UNL     1      32.211  15.475   6.937  1.00  0.00    -0.343 N 
ATOM     33 2H10 UNL     1      32.337  16.487   6.907  1.00  0.00     0.176 HD
ATOM     34 1H10 UNL     1      32.646  14.889   6.226  1.00  0.00     0.176 HD
ENDBRANCH  30  32
ENDBRANCH  27  30
ENDBRANCH  25  27
ENDBRANCH   1  20
TORSDOF 9
ENDMDL
MODEL 4
REMARK VINA RESULT: -7.295128485      0.998      1.426
REMARK  9 active torsions:
REMARK  status: ('A' for Active; 'I' for Inactive)
REMARK       I    between atoms: C2_2  and  N1_4 
REMARK    1  A    between atoms: N1_4  and  N2_6 
REMARK    2  A    between atoms: N2_6  and  C3_8 
REMARK    3  A    between atoms: C3_8  and  C4_9 
REMARK    4  A    between atoms: C3_8  and  C7_20 
REMARK    5  A    between atoms: C5_14  and  C6_15 
REMARK    6  A    between atoms: C8_26  and  C9_27 
REMARK    7  A    between atoms: C9_27  and  O3_28 
REMARK    8  A    between atoms: C9_27  and  N9_30 
REMARK    9  A    between atoms: N9_30  and  N10_32 
ROOT
HETATM    1  C3  UNL     1      27.423  16.511   9.650  1.00  0.00     0.220 C 
ENDROOT
BRANCH   1   2
HETATM    2  N2  UNL     1      26.027  16.533   9.391  1.00  0.00    -0.316 N 
ATOM      3  H2  UNL     1      25.553  17.424   9.242  1.00  0.00     0.181 HD
BRANCH   2   4
HETATM    4  N1  UNL     1      25.324  15.381   9.342  1.00  0.00    -0.274 N 
HETATM    5  C2  UNL     1      25.393  14.265   8.505  1.00  0.00     0.231 C 
HETATM    6  C1  UNL     1      24.445  13.097   8.701  1.00  0.00     0.119 C 
HETATM    7  O1  UNL     1      26.216  14.174   7.579  1.00  0.00    -0.272 OA
ATOM      8  H1  UNL     1      24.601  15.312  10.058  1.00  0.00     0.189 HD
ENDBRANCH   2   4
ENDBRANCH   1   2
BRANCH   1   9
HETATM    9  C4  UNL     1      27.634  17.516  10.765  1.00  0.00     0.128 A 
HETATM   10  N3  UNL     1      28.727  17.591  11.558  1.00  0.00    -0.285 N 
HETATM   11  N4  UNL     1      28.500  18.560  12.411  1.00  0.00    -0.280 N 
ATOM     12  H3  UNL     1      29.562  17.009  11.503  1.00  0.00     0.188 HD
HETATM   13  C5  UNL     1      27.279  19.100  12.172  1.00  0.00     0.188 A 
ATOM     14  H4  UNL     1      29.143  18.861  13.143  1.00  0.00     0.188 HD
HETATM   15  N6  UNL     1      26.745  18.425  11.124  1.00  0.00    -0.324 N 
ATOM     16  H6  UNL     1      25.834  18.589  10.695  1.00  0.00     0.169 HD
BRANCH  13  17
HETATM   17  C6  UNL     1      26.714  20.185  12.931  1.00  0.00     0.300 C 
HETATM   18  N5  UNL     1      25.791  19.886  13.973  1.00  0.00    -0.054 NA
HETATM   19  O2  UNL     1      27.043  21.385  12.668  1.00  0.00    -0.268 OA
ENDBRANCH  13  17
ENDBRANCH   1   9
BRANCH   1  20
HETATM   20  C7  UNL     1      28.261  17.015   8.476  1.00  0.00     0.080 A 
HETATM   21  N7  UNL     1      29.595  17.138   8.717  1.00  0.00    -0.311 N 
HETATM   22  S1  UNL     1      30.252  17.647   7.280  1.00  0.00     0.068 SA
ATOM     23  H7  UNL     1      30.085  16.956   9.593  1.00  0.00     0.175 HD
HETATM   24  N8  UNL     1      28.863  17.705   6.382  1.00  0.00    -0.307 N 
HETATM   25  C8  UNL     1      27.851  17.313   7.236  1.00  0.00     0.118 A 
ATOM     26  H8  UNL     1      28.773  17.974   5.402  1.00  0.00     0.176 HD
BRANCH  25  27
HETATM   27  C9  UNL     1      26.499  17.295   6.648  1.00  0.00     0.184 C 
BRANCH  27  28
HETATM   28  O3  UNL     1      25.581  18.035   7.221  1.00  0.00    -0.343 OA
ATOM     29  H3  UNL     1      25.147  17.680   7.988  1.00  0.00     0.219 HD
ENDBRANCH  27  28
BRANCH  27  30
HETATM   30  N9  UNL     1      25.992  16.614   5.560  1.00  0.00    -0.285 N 
ATOM     31  H9  UNL     1      26.511  16.634   4.682  1.00  0.00     0.188 HD
BRANCH  30  32
HETATM   32  N10 UNL     1      24.756  15.877   5.617  1.00  0.00    -0.343 N 
ATOM     33 2H10 UNL     1      24.562  15.341   6.462  1.00  0.00     0.176 HD
ATOM     34 1H10 UNL     1      24.083  15.877   4.851  1.00  0.00     0.176 HD
ENDBRANCH  30  32
ENDBRANCH  27  30
ENDBRANCH  25  27
ENDBRANCH   1  20
TORSDOF 9
ENDMDL
MODEL 5
REMARK VINA RESULT: -7.138631273      2.150      4.843
REMARK  9 active torsions:
REMARK  status: ('A' for Active; 'I' for Inactive)
REMARK       I    between atoms: C2_2  and  N1_4 
REMARK    1  A    between atoms: N1_4  and  N2_6 
REMARK    2  A    between atoms: N2_6  and  C3_8 
REMARK    3  A    between atoms: C3_8  and  C4_9 
REMARK    4  A    between atoms: C3_8  and  C7_20 
REMARK    5  A    between atoms: C5_14  and  C6_15 
REMARK    6  A    between atoms: C8_26  and  C9_27 
REMARK    7  A    between atoms: C9_27  and  O3_28 
REMARK    8  A    between atoms: C9_27  and  N9_30 
REMARK    9  A    between atoms: N9_30  and  N10_32 
ROOT
HETATM    1  C3  UNL     1      25.787  15.196   8.177  1.00  0.00     0.220 C 
ENDROOT
BRANCH   1   2
HETATM    2  N2  UNL     1      25.988  13.834   7.833  1.00  0.00    -0.316 N 
ATOM      3  H2  UNL     1      26.739  13.578   7.193  1.00  0.00     0.181 HD
BRANCH   2   4
HETATM    4  N1  UNL     1      25.187  12.875   8.348  1.00  0.00    -0.274 N 
HETATM    5  C2  UNL     1      23.874  12.489   8.072  1.00  0.00     0.231 C 
HETATM    6  C1  UNL     1      23.230  11.349   8.838  1.00  0.00     0.119 C 
HETATM    7  O1  UNL     1      23.182  13.046   7.203  1.00  0.00    -0.272 OA
ATOM      8  H1  UNL     1      25.629  12.325   9.085  1.00  0.00     0.189 HD
ENDBRANCH   2   4
ENDBRANCH   1   2
BRANCH   1   9
HETATM    9  C4  UNL     1      25.478  15.893   6.865  1.00  0.00     0.128 A 
HETATM   10  N3  UNL     1      24.850  15.332   5.807  1.00  0.00    -0.285 N 
HETATM   11  N4  UNL     1      24.816  16.246   4.869  1.00  0.00    -0.280 N 
ATOM     12  H3  UNL     1      24.477  14.384   5.750  1.00  0.00     0.188 HD
HETATM   13  C5  UNL     1      25.414  17.379   5.316  1.00  0.00     0.188 A 
ATOM     14  H4  UNL     1      24.403  16.125   3.945  1.00  0.00     0.188 HD
HETATM   15  N6  UNL     1      25.826  17.136   6.584  1.00  0.00    -0.324 N 
ATOM     16  H6  UNL     1      26.312  17.786   7.202  1.00  0.00     0.169 HD
BRANCH  13  17
HETATM   17  C6  UNL     1      25.552  18.581   4.534  1.00  0.00     0.300 C 
HETATM   18  N5  UNL     1      24.512  19.551   4.578  1.00  0.00    -0.054 NA
HETATM   19  O2  UNL     1      26.592  18.760   3.823  1.00  0.00    -0.268 OA
ENDBRANCH  13  17
ENDBRANCH   1   9
BRANCH   1  20
HETATM   20  C7  UNL     1      27.045  15.872   8.717  1.00  0.00     0.080 A 
HETATM   21  N7  UNL     1      28.217  15.464   8.158  1.00  0.00    -0.311 N 
HETATM   22  S1  UNL     1      29.391  16.384   8.887  1.00  0.00     0.068 SA
ATOM     23  H7  UNL     1      28.346  14.746   7.445  1.00  0.00     0.175 HD
HETATM   24  N8  UNL     1      28.419  17.276   9.886  1.00  0.00    -0.307 N 
HETATM   25  C8  UNL     1      27.132  16.839   9.641  1.00  0.00     0.118 A 
ATOM     26  H8  UNL     1      28.710  17.998  10.545  1.00  0.00     0.176 HD
BRANCH  25  27
HETATM   27  C9  UNL     1      26.079  17.497  10.434  1.00  0.00     0.184 C 
BRANCH  27  28
HETATM   28  O3  UNL     1      25.497  16.789  11.373  1.00  0.00    -0.343 OA
ATOM     29  H3  UNL     1      24.622  16.462  11.196  1.00  0.00     0.219 HD
ENDBRANCH  27  28
BRANCH  27  30
HETATM   30  N9  UNL     1      25.563  18.776  10.375  1.00  0.00    -0.285 N 
ATOM     31  H9  UNL     1      26.172  19.562  10.598  1.00  0.00     0.188 HD
BRANCH  30  32
HETATM   32  N10 UNL     1      24.195  19.041  10.009  1.00  0.00    -0.343 N 
ATOM     33 2H10 UNL     1      23.869  18.693   9.107  1.00  0.00     0.176 HD
ATOM     34 1H10 UNL     1      23.557  19.558  10.614  1.00  0.00     0.176 HD
ENDBRANCH  30  32
ENDBRANCH  27  30
ENDBRANCH  25  27
ENDBRANCH   1  20
TORSDOF 9
ENDMDL
