MODEL 1
REMARK VINA RESULT: -9.359801631      0.000      0.000
REMARK  8 active torsions:
REMARK  status: ('A' for Active; 'I' for Inactive)
REMARK    1  A    between atoms: C4_4  and  N1_5 
REMARK    2  A    between atoms: N1_5  and  C5_7 
REMARK    3  A    between atoms: C14_16  and  N2_17 
REMARK       I    between atoms: N2_17  and  C15_19 
REMARK    4  A    between atoms: C15_19  and  C16_21 
REMARK    5  A    between atoms: C16_21  and  C17_22 
REMARK    6  A    between atoms: C17_22  and  C18_23 
REMARK    7  A    between atoms: C18_23  and  C19_24 
REMARK       I    between atoms: C19_24  and  N3_26 
REMARK    8  A    between atoms: N3_26  and  C20_27 
ROOT
HETATM    1  C5  UNL     1      20.807  24.539  15.985  1.00  0.00     0.081 C 
HETATM    2  C6  UNL     1      20.268  24.714  14.659  1.00  0.00     0.026 C 
HETATM    3  C7  UNL     1      18.945  25.376  14.631  1.00  0.00     0.012 C 
HETATM    4  C8  UNL     1      17.914  24.769  15.499  1.00  0.00    -0.036 C 
HETATM    5  C9  UNL     1      16.725  25.650  15.564  1.00  0.00     0.016 C 
HETATM    6  C10 UNL     1      17.450  23.439  14.908  1.00  0.00     0.037 C 
HETATM    7  C11 UNL     1      16.327  22.957  15.759  1.00  0.00    -0.022 C 
HETATM    8  C12 UNL     1      16.338  23.092  17.032  1.00  0.00    -0.073 C 
HETATM    9  C13 UNL     1      15.222  22.637  17.890  1.00  0.00     0.059 C 
HETATM   10  C14 UNL     1      15.713  21.774  19.006  1.00  0.00     0.088 C 
HETATM   11  C21 UNL     1      17.157  21.780  19.277  1.00  0.00     0.026 C 
HETATM   12  C22 UNL     1      18.075  22.670  18.547  1.00  0.00     0.016 C 
HETATM   13  C23 UNL     1      17.463  23.794  17.743  1.00  0.00    -0.016 C 
HETATM   14  C24 UNL     1      16.925  24.773  18.790  1.00  0.00     0.020 C 
HETATM   15  C25 UNL     1      18.444  24.476  16.890  1.00  0.00     0.008 C 
HETATM   16  C26 UNL     1      19.754  23.737  16.795  1.00  0.00     0.031 C 
ENDROOT
BRANCH  10  17
HETATM   17  N2  UNL     1      15.451  20.339  18.564  1.00  0.00    -0.356 N 
HETATM   18  C15 UNL     1      14.762  19.439  19.445  1.00  0.00     0.217 C 
HETATM   19  O1  UNL     1      14.341  19.667  20.492  1.00  0.00    -0.274 OA
ATOM     20  H2  UNL     1      15.763  20.020  17.647  1.00  0.00     0.162 HD
BRANCH  18  21
HETATM   21  C16 UNL     1      14.702  18.052  18.771  1.00  0.00     0.103 C 
BRANCH  21  22
HETATM   22  C17 UNL     1      13.477  17.364  19.409  1.00  0.00     0.019 C 
BRANCH  22  23
HETATM   23  C18 UNL     1      12.376  17.075  18.434  1.00  0.00     0.120 C 
BRANCH  23  24
HETATM   24  C19 UNL     1      11.648  18.475  18.314  1.00  0.00     0.294 C 
HETATM   25  O2  UNL     1      10.892  18.708  19.327  1.00  0.00    -0.257 OA
HETATM   26  N3  UNL     1      11.828  19.239  17.315  1.00  0.00    -0.332 NA
BRANCH  26  27
HETATM   27  C20 UNL     1      11.990  19.981  16.302  1.00  0.00     0.294 A 
HETATM   28  N4  UNL     1      13.244  20.175  15.747  1.00  0.00    -0.242 N 
HETATM   29  N5  UNL     1      13.153  21.291  15.058  1.00  0.00    -0.225 N 
ATOM     30  H4  UNL     1      14.064  19.578  15.849  1.00  0.00     0.192 HD
HETATM   31  N6  UNL     1      11.976  21.801  15.123  1.00  0.00    -0.225 N 
ATOM     32  H5  UNL     1      13.925  21.703  14.535  1.00  0.00     0.210 HD
HETATM   33  N7  UNL     1      11.215  21.016  15.872  1.00  0.00    -0.242 N 
ATOM     34  H6  UNL     1      11.678  22.666  14.673  1.00  0.00     0.210 HD
ATOM     35  H7  UNL     1      10.228  21.161  16.087  1.00  0.00     0.192 HD
ENDBRANCH  26  27
ENDBRANCH  23  24
ENDBRANCH  22  23
ENDBRANCH  21  22
ENDBRANCH  18  21
ENDBRANCH  10  17
BRANCH   1  36
HETATM   36  N1  UNL     1      21.347  25.531  16.810  1.00  0.00    -0.392 N 
ATOM     37  H1  UNL     1      21.198  25.484  17.817  1.00  0.00     0.159 HD
BRANCH  36  38
HETATM   38  C4  UNL     1      22.088  26.583  16.270  1.00  0.00    -0.013 C 
HETATM   39  C3  UNL     1      22.486  27.736  17.125  1.00  0.00     0.083 C 
HETATM   40  C2  UNL     1      23.980  27.748  17.440  1.00  0.00     0.122 C 
HETATM   41  C1  UNL     1      24.682  28.839  16.680  1.00  0.00     0.040 C 
HETATM   42  O3  UNL     1      24.572  26.502  17.371  1.00  0.00    -0.386 OA
HETATM   43  C28 UNL     1      24.492  25.877  16.165  1.00  0.00     0.173 C 
HETATM   44  C27 UNL     1      23.253  26.176  15.397  1.00  0.00     0.078 C 
ENDBRANCH  36  38
ENDBRANCH   1  36
TORSDOF 8
ENDMDL
MODEL 2
REMARK VINA RESULT: -9.051725120      2.621      9.991
REMARK  8 active torsions:
REMARK  status: ('A' for Active; 'I' for Inactive)
REMARK    1  A    between atoms: C4_4  and  N1_5 
REMARK    2  A    between atoms: N1_5  and  C5_7 
REMARK    3  A    between atoms: C14_16  and  N2_17 
REMARK       I    between atoms: N2_17  and  C15_19 
REMARK    4  A    between atoms: C15_19  and  C16_21 
REMARK    5  A    between atoms: C16_21  and  C17_22 
REMARK    6  A    between atoms: C17_22  and  C18_23 
REMARK    7  A    between atoms: C18_23  and  C19_24 
REMARK       I    between atoms: C19_24  and  N3_26 
REMARK    8  A    between atoms: N3_26  and  C20_27 
ROOT
HETATM    1  C5  UNL     1      15.507  21.432  15.641  1.00  0.00     0.081 C 
HETATM    2  C6  UNL     1      15.258  20.381  16.596  1.00  0.00     0.026 C 
HETATM    3  C7  UNL     1      14.968  20.867  17.963  1.00  0.00     0.012 C 
HETATM    4  C8  UNL     1      15.959  21.809  18.524  1.00  0.00    -0.036 C 
HETATM    5  C9  UNL     1      15.442  22.399  19.781  1.00  0.00     0.016 C 
HETATM    6  C10 UNL     1      17.244  21.065  18.880  1.00  0.00     0.037 C 
HETATM    7  C11 UNL     1      18.138  22.045  19.556  1.00  0.00    -0.022 C 
HETATM    8  C12 UNL     1      18.220  23.263  19.168  1.00  0.00    -0.073 C 
HETATM    9  C13 UNL     1      19.088  24.254  19.842  1.00  0.00     0.059 C 
HETATM   10  C14 UNL     1      19.969  24.959  18.862  1.00  0.00     0.088 C 
HETATM   11  C21 UNL     1      19.633  24.826  17.437  1.00  0.00     0.026 C 
HETATM   12  C22 UNL     1      18.425  24.110  16.993  1.00  0.00     0.016 C 
HETATM   13  C23 UNL     1      17.381  23.793  18.038  1.00  0.00    -0.016 C 
HETATM   14  C24 UNL     1      16.765  25.148  18.398  1.00  0.00     0.020 C 
HETATM   15  C25 UNL     1      16.334  22.895  17.534  1.00  0.00     0.008 C 
HETATM   16  C26 UNL     1      16.680  22.279  16.202  1.00  0.00     0.031 C 
ENDROOT
BRANCH  10  17
HETATM   17  N2  UNL     1      21.327  24.274  18.962  1.00  0.00    -0.356 N 
HETATM   18  C15 UNL     1      22.172  24.536  20.093  1.00  0.00     0.217 C 
HETATM   19  O1  UNL     1      21.948  25.216  20.994  1.00  0.00    -0.274 OA
ATOM     20  H2  UNL     1      21.633  23.634  18.230  1.00  0.00     0.162 HD
BRANCH  18  21
HETATM   21  C16 UNL     1      23.497  23.770  19.893  1.00  0.00     0.103 C 
BRANCH  21  22
HETATM   22  C17 UNL     1      24.594  24.837  20.094  1.00  0.00     0.019 C 
BRANCH  22  23
HETATM   23  C18 UNL     1      25.356  25.156  18.843  1.00  0.00     0.120 C 
BRANCH  23  24
HETATM   24  C19 UNL     1      24.783  26.576  18.444  1.00  0.00     0.294 C 
HETATM   25  O2  UNL     1      25.373  27.524  19.080  1.00  0.00    -0.257 OA
HETATM   26  N3  UNL     1      23.855  26.706  17.587  1.00  0.00    -0.332 NA
BRANCH  26  27
HETATM   27  C20 UNL     1      22.908  26.825  16.755  1.00  0.00     0.294 A 
HETATM   28  N4  UNL     1      22.607  25.812  15.860  1.00  0.00    -0.242 N 
HETATM   29  N5  UNL     1      21.938  26.392  14.888  1.00  0.00    -0.225 N 
ATOM     30  H4  UNL     1      22.853  24.825  15.937  1.00  0.00     0.192 HD
HETATM   31  N6  UNL     1      21.787  27.651  15.093  1.00  0.00    -0.225 N 
ATOM     32  H5  UNL     1      21.582  25.901  14.068  1.00  0.00     0.210 HD
HETATM   33  N7  UNL     1      22.359  27.964  16.247  1.00  0.00    -0.242 N 
ATOM     34  H6  UNL     1      21.305  28.301  14.471  1.00  0.00     0.210 HD
ATOM     35  H7  UNL     1      22.383  28.889  16.676  1.00  0.00     0.192 HD
ENDBRANCH  26  27
ENDBRANCH  23  24
ENDBRANCH  22  23
ENDBRANCH  21  22
ENDBRANCH  18  21
ENDBRANCH  10  17
BRANCH   1  36
HETATM   36  N1  UNL     1      14.562  22.293  15.074  1.00  0.00    -0.392 N 
ATOM     37  H1  UNL     1      14.472  23.245  15.429  1.00  0.00     0.159 HD
BRANCH  36  38
HETATM   38  C4  UNL     1      13.742  21.865  14.030  1.00  0.00    -0.013 C 
HETATM   39  C3  UNL     1      13.943  20.520  13.420  1.00  0.00     0.083 C 
HETATM   40  C2  UNL     1      12.835  19.536  13.785  1.00  0.00     0.122 C 
HETATM   41  C1  UNL     1      11.937  19.275  12.608  1.00  0.00     0.040 C 
HETATM   42  O3  UNL     1      12.189  19.840  14.967  1.00  0.00    -0.386 OA
HETATM   43  C28 UNL     1      11.580  21.056  15.010  1.00  0.00     0.173 C 
HETATM   44  C27 UNL     1      12.263  22.116  14.221  1.00  0.00     0.078 C 
ENDBRANCH  36  38
ENDBRANCH   1  36
TORSDOF 8
ENDMDL
MODEL 3
REMARK VINA RESULT: -8.947312577      3.225      4.706
REMARK  8 active torsions:
REMARK  status: ('A' for Active; 'I' for Inactive)
REMARK    1  A    between atoms: C4_4  and  N1_5 
REMARK    2  A    between atoms: N1_5  and  C5_7 
REMARK    3  A    between atoms: C14_16  and  N2_17 
REMARK       I    between atoms: N2_17  and  C15_19 
REMARK    4  A    between atoms: C15_19  and  C16_21 
REMARK    5  A    between atoms: C16_21  and  C17_22 
REMARK    6  A    between atoms: C17_22  and  C18_23 
REMARK    7  A    between atoms: C18_23  and  C19_24 
REMARK       I    between atoms: C19_24  and  N3_26 
REMARK    8  A    between atoms: N3_26  and  C20_27 
ROOT
HETATM    1  C5  UNL     1      19.130  22.702  18.308  1.00  0.00     0.081 C 
HETATM    2  C6  UNL     1      19.651  23.486  17.216  1.00  0.00     0.026 C 
HETATM    3  C7  UNL     1      18.711  24.510  16.709  1.00  0.00     0.012 C 
HETATM    4  C8  UNL     1      17.365  24.014  16.353  1.00  0.00    -0.036 C 
HETATM    5  C9  UNL     1      16.458  25.156  16.091  1.00  0.00     0.016 C 
HETATM    6  C10 UNL     1      17.432  23.196  15.066  1.00  0.00     0.037 C 
HETATM    7  C11 UNL     1      16.031  22.846  14.702  1.00  0.00    -0.022 C 
HETATM    8  C12 UNL     1      15.164  22.526  15.589  1.00  0.00    -0.073 C 
HETATM    9  C13 UNL     1      13.763  22.196  15.246  1.00  0.00     0.059 C 
HETATM   10  C14 UNL     1      13.350  20.893  15.850  1.00  0.00     0.088 C 
HETATM   11  C21 UNL     1      14.211  20.335  16.901  1.00  0.00     0.026 C 
HETATM   12  C22 UNL     1      15.382  21.069  17.411  1.00  0.00     0.016 C 
HETATM   13  C23 UNL     1      15.492  22.534  17.057  1.00  0.00    -0.016 C 
HETATM   14  C24 UNL     1      14.383  23.215  17.864  1.00  0.00     0.020 C 
HETATM   15  C25 UNL     1      16.792  23.108  17.426  1.00  0.00     0.008 C 
HETATM   16  C26 UNL     1      17.807  22.061  17.810  1.00  0.00     0.031 C 
ENDROOT
BRANCH  10  17
HETATM   17  N2  UNL     1      13.462  19.866  14.730  1.00  0.00    -0.356 N 
HETATM   18  C15 UNL     1      12.327  19.605  13.890  1.00  0.00     0.217 C 
HETATM   19  O1  UNL     1      11.290  20.104  13.935  1.00  0.00    -0.274 OA
ATOM     20  H2  UNL     1      14.337  19.366  14.578  1.00  0.00     0.162 HD
BRANCH  18  21
HETATM   21  C16 UNL     1      12.704  18.482  12.901  1.00  0.00     0.103 C 
BRANCH  21  22
HETATM   22  C17 UNL     1      11.401  17.677  12.714  1.00  0.00     0.019 C 
BRANCH  22  23
HETATM   23  C18 UNL     1      11.487  16.269  13.222  1.00  0.00     0.120 C 
BRANCH  23  24
HETATM   24  C19 UNL     1      10.211  16.161  14.152  1.00  0.00     0.294 C 
HETATM   25  O2  UNL     1       9.122  16.162  13.470  1.00  0.00    -0.257 OA
HETATM   26  N3  UNL     1      10.310  16.081  15.416  1.00  0.00    -0.332 NA
BRANCH  26  27
HETATM   27  C20 UNL     1      10.416  16.032  16.676  1.00  0.00     0.294 A 
HETATM   28  N4  UNL     1       9.407  15.500  17.462  1.00  0.00    -0.242 N 
HETATM   29  N5  UNL     1       9.601  15.997  18.664  1.00  0.00    -0.225 N 
ATOM     30  H4  UNL     1       8.670  14.859  17.170  1.00  0.00     0.192 HD
HETATM   31  N6  UNL     1      10.625  16.770  18.705  1.00  0.00    -0.225 N 
ATOM     32  H5  UNL     1       9.007  15.793  19.468  1.00  0.00     0.210 HD
HETATM   33  N7  UNL     1      11.173  16.812  17.499  1.00  0.00    -0.242 N 
ATOM     34  H6  UNL     1      10.961  17.268  19.529  1.00  0.00     0.210 HD
ATOM     35  H7  UNL     1      12.010  17.333  17.234  1.00  0.00     0.192 HD
ENDBRANCH  26  27
ENDBRANCH  23  24
ENDBRANCH  22  23
ENDBRANCH  21  22
ENDBRANCH  18  21
ENDBRANCH  10  17
BRANCH   1  36
HETATM   36  N1  UNL     1      18.956  23.118  19.632  1.00  0.00    -0.392 N 
ATOM     37  H1  UNL     1      18.017  23.303  19.983  1.00  0.00     0.159 HD
BRANCH  36  38
HETATM   38  C4  UNL     1      20.053  23.282  20.479  1.00  0.00    -0.013 C 
HETATM   39  C3  UNL     1      21.438  23.214  19.933  1.00  0.00     0.083 C 
HETATM   40  C2  UNL     1      22.125  24.578  19.901  1.00  0.00     0.122 C 
HETATM   41  C1  UNL     1      23.188  24.670  20.961  1.00  0.00     0.040 C 
HETATM   42  O3  UNL     1      21.247  25.641  19.847  1.00  0.00    -0.386 OA
HETATM   43  C28 UNL     1      20.371  25.735  20.886  1.00  0.00     0.173 C 
HETATM   44  C27 UNL     1      19.951  24.428  21.458  1.00  0.00     0.078 C 
ENDBRANCH  36  38
ENDBRANCH   1  36
TORSDOF 8
ENDMDL
MODEL 4
REMARK VINA RESULT: -8.908704243      1.785      2.270
REMARK  8 active torsions:
REMARK  status: ('A' for Active; 'I' for Inactive)
REMARK    1  A    between atoms: C4_4  and  N1_5 
REMARK    2  A    between atoms: N1_5  and  C5_7 
REMARK    3  A    between atoms: C14_16  and  N2_17 
REMARK       I    between atoms: N2_17  and  C15_19 
REMARK    4  A    between atoms: C15_19  and  C16_21 
REMARK    5  A    between atoms: C16_21  and  C17_22 
REMARK    6  A    between atoms: C17_22  and  C18_23 
REMARK    7  A    between atoms: C18_23  and  C19_24 
REMARK       I    between atoms: C19_24  and  N3_26 
REMARK    8  A    between atoms: N3_26  and  C20_27 
ROOT
HETATM    1  C5  UNL     1      21.309  24.745  15.666  1.00  0.00     0.081 C 
HETATM    2  C6  UNL     1      20.695  24.941  14.376  1.00  0.00     0.026 C 
HETATM    3  C7  UNL     1      19.386  25.630  14.433  1.00  0.00     0.012 C 
HETATM    4  C8  UNL     1      18.398  25.036  15.358  1.00  0.00    -0.036 C 
HETATM    5  C9  UNL     1      17.233  25.940  15.501  1.00  0.00     0.016 C 
HETATM    6  C10 UNL     1      17.871  23.721  14.787  1.00  0.00     0.037 C 
HETATM    7  C11 UNL     1      16.792  23.254  15.701  1.00  0.00    -0.022 C 
HETATM    8  C12 UNL     1      16.884  23.380  16.973  1.00  0.00    -0.073 C 
HETATM    9  C13 UNL     1      15.812  22.939  17.893  1.00  0.00     0.059 C 
HETATM   10  C14 UNL     1      16.352  22.058  18.972  1.00  0.00     0.088 C 
HETATM   11  C21 UNL     1      17.810  22.033  19.155  1.00  0.00     0.026 C 
HETATM   12  C22 UNL     1      18.700  22.910  18.376  1.00  0.00     0.016 C 
HETATM   13  C23 UNL     1      18.064  24.053  17.619  1.00  0.00    -0.016 C 
HETATM   14  C24 UNL     1      17.611  25.034  18.703  1.00  0.00     0.020 C 
HETATM   15  C25 UNL     1      19.005  24.722  16.712  1.00  0.00     0.008 C 
HETATM   16  C26 UNL     1      20.291  23.957  16.533  1.00  0.00     0.031 C 
ENDROOT
BRANCH  10  17
HETATM   17  N2  UNL     1      16.034  20.633  18.536  1.00  0.00    -0.356 N 
HETATM   18  C15 UNL     1      14.669  20.192  18.492  1.00  0.00     0.217 C 
HETATM   19  O1  UNL     1      13.725  20.804  18.737  1.00  0.00    -0.274 OA
ATOM     20  H2  UNL     1      16.787  19.995  18.278  1.00  0.00     0.162 HD
BRANCH  18  21
HETATM   21  C16 UNL     1      14.654  18.702  18.090  1.00  0.00     0.103 C 
BRANCH  21  22
HETATM   22  C17 UNL     1      14.559  17.940  19.429  1.00  0.00     0.019 C 
BRANCH  22  23
HETATM   23  C18 UNL     1      13.964  18.753  20.539  1.00  0.00     0.120 C 
BRANCH  23  24
HETATM   24  C19 UNL     1      12.537  18.092  20.722  1.00  0.00     0.294 C 
HETATM   25  O2  UNL     1      12.226  17.963  21.962  1.00  0.00    -0.257 OA
HETATM   26  N3  UNL     1      11.825  17.753  19.726  1.00  0.00    -0.332 NA
BRANCH  26  27
HETATM   27  C20 UNL     1      11.134  17.390  18.729  1.00  0.00     0.294 A 
HETATM   28  N4  UNL     1      10.166  16.407  18.845  1.00  0.00    -0.242 N 
HETATM   29  N5  UNL     1       9.977  15.956  17.625  1.00  0.00    -0.225 N 
ATOM     30  H4  UNL     1       9.698  16.098  19.697  1.00  0.00     0.192 HD
HETATM   31  N6  UNL     1      10.717  16.561  16.769  1.00  0.00    -0.225 N 
ATOM     32  H5  UNL     1       9.320  15.213  17.387  1.00  0.00     0.210 HD
HETATM   33  N7  UNL     1      11.444  17.471  17.404  1.00  0.00    -0.242 N 
ATOM     34  H6  UNL     1      10.742  16.374  15.766  1.00  0.00     0.210 HD
ATOM     35  H7  UNL     1      12.112  18.113  16.978  1.00  0.00     0.192 HD
ENDBRANCH  26  27
ENDBRANCH  23  24
ENDBRANCH  22  23
ENDBRANCH  21  22
ENDBRANCH  18  21
ENDBRANCH  10  17
BRANCH   1  36
HETATM   36  N1  UNL     1      21.919  25.719  16.463  1.00  0.00    -0.392 N 
ATOM     37  H1  UNL     1      21.589  25.868  17.416  1.00  0.00     0.159 HD
BRANCH  36  38
HETATM   38  C4  UNL     1      22.972  26.489  15.969  1.00  0.00    -0.013 C 
HETATM   39  C3  UNL     1      23.032  27.950  16.255  1.00  0.00     0.083 C 
HETATM   40  C2  UNL     1      24.135  28.311  17.248  1.00  0.00     0.122 C 
HETATM   41  C1  UNL     1      25.274  29.007  16.556  1.00  0.00     0.040 C 
HETATM   42  O3  UNL     1      24.494  27.270  18.081  1.00  0.00    -0.386 OA
HETATM   43  C28 UNL     1      24.959  26.152  17.461  1.00  0.00     0.173 C 
HETATM   44  C27 UNL     1      24.349  25.886  16.130  1.00  0.00     0.078 C 
ENDBRANCH  36  38
ENDBRANCH   1  36
TORSDOF 8
ENDMDL
MODEL 5
REMARK VINA RESULT: -8.872084599      1.694      2.437
REMARK  8 active torsions:
REMARK  status: ('A' for Active; 'I' for Inactive)
REMARK    1  A    between atoms: C4_4  and  N1_5 
REMARK    2  A    between atoms: N1_5  and  C5_7 
REMARK    3  A    between atoms: C14_16  and  N2_17 
REMARK       I    between atoms: N2_17  and  C15_19 
REMARK    4  A    between atoms: C15_19  and  C16_21 
REMARK    5  A    between atoms: C16_21  and  C17_22 
REMARK    6  A    between atoms: C17_22  and  C18_23 
REMARK    7  A    between atoms: C18_23  and  C19_24 
REMARK       I    between atoms: C19_24  and  N3_26 
REMARK    8  A    between atoms: N3_26  and  C20_27 
ROOT
HETATM    1  C5  UNL     1      20.948  24.446  15.883  1.00  0.00     0.081 C 
HETATM    2  C6  UNL     1      20.379  24.638  14.572  1.00  0.00     0.026 C 
HETATM    3  C7  UNL     1      19.104  25.387  14.573  1.00  0.00     0.012 C 
HETATM    4  C8  UNL     1      18.063  24.864  15.483  1.00  0.00    -0.036 C 
HETATM    5  C9  UNL     1      16.938  25.825  15.570  1.00  0.00     0.016 C 
HETATM    6  C10 UNL     1      17.491  23.561  14.930  1.00  0.00     0.037 C 
HETATM    7  C11 UNL     1      16.366  23.168  15.823  1.00  0.00    -0.022 C 
HETATM    8  C12 UNL     1      16.428  23.322  17.093  1.00  0.00    -0.073 C 
HETATM    9  C13 UNL     1      15.311  22.956  17.993  1.00  0.00     0.059 C 
HETATM   10  C14 UNL     1      15.779  22.079  19.108  1.00  0.00     0.088 C 
HETATM   11  C21 UNL     1      17.228  21.992  19.334  1.00  0.00     0.026 C 
HETATM   12  C22 UNL     1      18.180  22.806  18.561  1.00  0.00     0.016 C 
HETATM   13  C23 UNL     1      17.620  23.956  17.757  1.00  0.00    -0.016 C 
HETATM   14  C24 UNL     1      17.183  24.986  18.803  1.00  0.00     0.020 C 
HETATM   15  C25 UNL     1      18.616  24.557  16.862  1.00  0.00     0.008 C 
HETATM   16  C26 UNL     1      19.870  23.730  16.739  1.00  0.00     0.031 C 
ENDROOT
BRANCH  10  17
HETATM   17  N2  UNL     1      15.407  20.659  18.699  1.00  0.00    -0.356 N 
HETATM   18  C15 UNL     1      14.888  19.750  19.682  1.00  0.00     0.217 C 
HETATM   19  O1  UNL     1      14.686  19.961  20.796  1.00  0.00    -0.274 OA
ATOM     20  H2  UNL     1      15.526  20.356  17.733  1.00  0.00     0.162 HD
BRANCH  18  21
HETATM   21  C16 UNL     1      14.669  18.380  19.006  1.00  0.00     0.103 C 
BRANCH  21  22
HETATM   22  C17 UNL     1      13.452  18.595  18.081  1.00  0.00     0.019 C 
BRANCH  22  23
HETATM   23  C18 UNL     1      12.326  19.337  18.734  1.00  0.00     0.120 C 
BRANCH  23  24
HETATM   24  C19 UNL     1      11.580  18.194  19.536  1.00  0.00     0.294 C 
HETATM   25  O2  UNL     1      11.724  18.330  20.805  1.00  0.00    -0.257 OA
HETATM   26  N3  UNL     1      10.929  17.278  18.944  1.00  0.00    -0.332 NA
BRANCH  26  27
HETATM   27  C20 UNL     1      10.306  16.352  18.346  1.00  0.00     0.294 A 
HETATM   28  N4  UNL     1      10.227  16.317  16.964  1.00  0.00    -0.242 N 
HETATM   29  N5  UNL     1       9.188  15.558  16.693  1.00  0.00    -0.225 N 
ATOM     30  H4  UNL     1      10.844  16.780  16.297  1.00  0.00     0.192 HD
HETATM   31  N6  UNL     1       8.624  15.116  17.758  1.00  0.00    -0.225 N 
ATOM     32  H5  UNL     1       8.867  15.347  15.748  1.00  0.00     0.210 HD
HETATM   33  N7  UNL     1       9.291  15.570  18.810  1.00  0.00    -0.242 N 
ATOM     34  H6  UNL     1       7.800  14.516  17.790  1.00  0.00     0.210 HD
ATOM     35  H7  UNL     1       9.083  15.370  19.789  1.00  0.00     0.192 HD
ENDBRANCH  26  27
ENDBRANCH  23  24
ENDBRANCH  22  23
ENDBRANCH  21  22
ENDBRANCH  18  21
ENDBRANCH  10  17
BRANCH   1  36
HETATM   36  N1  UNL     1      21.580  25.411  16.673  1.00  0.00    -0.392 N 
ATOM     37  H1  UNL     1      21.443  25.403  17.683  1.00  0.00     0.159 HD
BRANCH  36  38
HETATM   38  C4  UNL     1      22.395  26.385  16.095  1.00  0.00    -0.013 C 
HETATM   39  C3  UNL     1      22.475  27.748  16.693  1.00  0.00     0.083 C 
HETATM   40  C2  UNL     1      23.813  28.011  17.380  1.00  0.00     0.122 C 
HETATM   41  C1  UNL     1      24.652  28.966  16.577  1.00  0.00     0.040 C 
HETATM   42  O3  UNL     1      24.457  26.865  17.800  1.00  0.00    -0.386 OA
HETATM   43  C28 UNL     1      24.757  25.966  16.824  1.00  0.00     0.173 C 
HETATM   44  C27 UNL     1      23.780  25.923  15.703  1.00  0.00     0.078 C 
ENDBRANCH  36  38
ENDBRANCH   1  36
TORSDOF 8
ENDMDL
