MODEL 1
REMARK VINA RESULT: -10.398967328      0.000      0.000
REMARK  8 active torsions:
REMARK  status: ('A' for Active; 'I' for Inactive)
REMARK    1  A    between atoms: C5_5  and  C6_6 
REMARK    2  A    between atoms: C7_9  and  N2_10 
REMARK    3  A    between atoms: N2_10  and  C8_12 
REMARK    4  A    between atoms: C10_14  and  C11_15 
REMARK    5  A    between atoms: C21_30  and  N6_31 
REMARK    6  A    between atoms: C24_34  and  C25_35 
REMARK       I    between atoms: C25_35  and  N7_37 
REMARK    7  A    between atoms: N7_37  and  C26_39 
REMARK    8  A    between atoms: C26_39  and  C27_40 
ROOT
HETATM    1  C1  UNL     1      17.675  24.749  14.393  1.00  0.00     0.012 C 
HETATM    2  C2  UNL     1      17.597  23.990  15.326  1.00  0.00    -0.110 C 
HETATM    3  C3  UNL     1      17.477  23.059  16.479  1.00  0.00     0.098 C 
HETATM    4  C4  UNL     1      16.394  22.082  16.118  1.00  0.00     0.030 C 
HETATM    5  C5  UNL     1      15.010  22.683  16.212  1.00  0.00     0.038 C 
HETATM    6  C19 UNL     1      14.866  23.027  17.704  1.00  0.00     0.013 C 
HETATM    7  C20 UNL     1      15.804  24.192  17.929  1.00  0.00     0.038 C 
HETATM    8  C21 UNL     1      17.251  23.843  17.715  1.00  0.00     0.238 C 
ENDROOT
BRANCH   8   9
HETATM    9  N6  UNL     1      17.864  23.302  18.914  1.00  0.00     0.094 N 
HETATM   10  C22 UNL     1      17.893  24.410  19.880  1.00  0.00     0.273 C 
HETATM   11  C23 UNL     1      19.121  24.344  20.771  1.00  0.00     0.044 C 
HETATM   12  C24 UNL     1      20.295  24.765  19.913  1.00  0.00     0.081 C 
HETATM   13  C28 UNL     1      20.221  23.978  18.637  1.00  0.00     0.044 C 
HETATM   14  C29 UNL     1      19.205  22.863  18.735  1.00  0.00     0.273 C 
BRANCH  12  15
HETATM   15  C25 UNL     1      21.591  24.647  20.607  1.00  0.00     0.222 C 
HETATM   16  O1  UNL     1      21.616  24.809  21.857  1.00  0.00    -0.273 OA
HETATM   17  N7  UNL     1      22.808  24.363  19.952  1.00  0.00    -0.351 N 
ATOM     18  H7  UNL     1      22.800  24.233  18.941  1.00  0.00     0.163 HD
BRANCH  17  19
HETATM   19  C26 UNL     1      24.050  24.251  20.646  1.00  0.00     0.235 C 
BRANCH  19  20
HETATM   20  C27 UNL     1      25.163  25.026  20.073  1.00  0.00     0.191 C 
HETATM   21  O2  UNL     1      25.772  24.672  19.035  1.00  0.00    -0.647 OA
HETATM   22  O3  UNL     1      25.578  26.202  20.684  1.00  0.00    -0.647 OA
ENDBRANCH  19  20
ENDBRANCH  17  19
ENDBRANCH  12  15
ENDBRANCH   8   9
BRANCH   5  23
HETATM   23  C6  UNL     1      14.027  21.675  15.775  1.00  0.00     0.036 A 
HETATM   24  N1  UNL     1      13.068  21.250  16.626  1.00  0.00    -0.344 N 
HETATM   25  C7  UNL     1      12.131  20.342  16.308  1.00  0.00     0.107 A 
ATOM     26  H1  UNL     1      13.054  21.643  17.567  1.00  0.00     0.167 HD
HETATM   27  C14 UNL     1      12.189  19.838  15.019  1.00  0.00     0.057 A 
HETATM   28  C15 UNL     1      13.150  20.244  14.119  1.00  0.00    -0.036 A 
HETATM   29  C16 UNL     1      13.222  19.709  12.732  1.00  0.00     0.050 C 
HETATM   30  C17 UNL     1      14.097  21.183  14.490  1.00  0.00     0.073 A 
HETATM   31  C18 UNL     1      15.118  21.605  13.543  1.00  0.00     0.102 C 
HETATM   32  N5  UNL     1      15.937  21.920  12.784  1.00  0.00    -0.191 NA
BRANCH  25  33
HETATM   33  N2  UNL     1      11.151  19.936  17.248  1.00  0.00    -0.328 N 
ATOM     34  H2  UNL     1      10.230  20.372  17.200  1.00  0.00     0.169 HD
BRANCH  33  35
HETATM   35  C8  UNL     1      11.353  19.047  18.159  1.00  0.00     0.123 A 
HETATM   36  C9  UNL     1      12.312  19.157  19.147  1.00  0.00     0.076 A 
HETATM   37  C10 UNL     1      12.242  18.032  19.936  1.00  0.00     0.033 A 
HETATM   38  N3  UNL     1      11.264  17.258  19.438  1.00  0.00    -0.303 N 
HETATM   39  N4  UNL     1      10.736  17.873  18.373  1.00  0.00    -0.285 N 
ATOM     40  H3  UNL     1      10.972  16.354  19.809  1.00  0.00     0.186 HD
ATOM     41  H4  UNL     1       9.974  17.503  17.805  1.00  0.00     0.188 HD
BRANCH  37  42
HETATM   42  C11 UNL     1      13.044  17.652  21.122  1.00  0.00     0.037 A 
HETATM   43  C12 UNL     1      14.554  17.949  20.976  1.00  0.00     0.011 A 
HETATM   44  C13 UNL     1      13.654  18.744  21.927  1.00  0.00     0.011 A 
ENDBRANCH  37  42
ENDBRANCH  33  35
ENDBRANCH  25  33
ENDBRANCH   5  23
TORSDOF 8
ENDMDL
MODEL 2
REMARK VINA RESULT: -10.094235090      5.169     11.625
REMARK  8 active torsions:
REMARK  status: ('A' for Active; 'I' for Inactive)
REMARK    1  A    between atoms: C5_5  and  C6_6 
REMARK    2  A    between atoms: C7_9  and  N2_10 
REMARK    3  A    between atoms: N2_10  and  C8_12 
REMARK    4  A    between atoms: C10_14  and  C11_15 
REMARK    5  A    between atoms: C21_30  and  N6_31 
REMARK    6  A    between atoms: C24_34  and  C25_35 
REMARK       I    between atoms: C25_35  and  N7_37 
REMARK    7  A    between atoms: N7_37  and  C26_39 
REMARK    8  A    between atoms: C26_39  and  C27_40 
ROOT
HETATM    1  C1  UNL     1      16.064  21.067  20.121  1.00  0.00     0.012 C 
HETATM    2  C2  UNL     1      16.289  21.478  19.010  1.00  0.00    -0.110 C 
HETATM    3  C3  UNL     1      16.570  22.008  17.650  1.00  0.00     0.098 C 
HETATM    4  C4  UNL     1      17.927  22.649  17.723  1.00  0.00     0.030 C 
HETATM    5  C5  UNL     1      17.909  23.977  18.446  1.00  0.00     0.038 C 
HETATM    6  C19 UNL     1      17.010  24.857  17.561  1.00  0.00     0.013 C 
HETATM    7  C20 UNL     1      15.616  24.303  17.746  1.00  0.00     0.038 C 
HETATM    8  C21 UNL     1      15.460  22.897  17.235  1.00  0.00     0.238 C 
ENDROOT
BRANCH   8   9
HETATM    9  N6  UNL     1      15.133  22.862  15.822  1.00  0.00     0.094 N 
HETATM   10  C22 UNL     1      13.718  23.250  15.732  1.00  0.00     0.273 C 
HETATM   11  C23 UNL     1      13.010  22.527  14.600  1.00  0.00     0.044 C 
HETATM   12  C24 UNL     1      12.821  21.096  15.058  1.00  0.00     0.081 C 
HETATM   13  C28 UNL     1      14.145  20.615  15.576  1.00  0.00     0.044 C 
HETATM   14  C29 UNL     1      15.257  21.578  15.226  1.00  0.00     0.273 C 
BRANCH  12  15
HETATM   15  C25 UNL     1      12.241  20.227  14.017  1.00  0.00     0.222 C 
HETATM   16  O1  UNL     1      11.186  20.607  13.441  1.00  0.00    -0.273 OA
HETATM   17  N7  UNL     1      12.798  18.991  13.627  1.00  0.00    -0.351 N 
ATOM     18  H7  UNL     1      13.650  18.673  14.089  1.00  0.00     0.163 HD
BRANCH  17  19
HETATM   19  C26 UNL     1      12.221  18.168  12.615  1.00  0.00     0.235 C 
BRANCH  19  20
HETATM   20  C27 UNL     1      11.108  17.313  13.059  1.00  0.00     0.191 C 
HETATM   21  O2  UNL     1      11.286  16.246  13.697  1.00  0.00    -0.647 OA
HETATM   22  O3  UNL     1       9.798  17.673  12.775  1.00  0.00    -0.647 OA
ENDBRANCH  19  20
ENDBRANCH  17  19
ENDBRANCH  12  15
ENDBRANCH   8   9
BRANCH   5  23
HETATM   23  C6  UNL     1      19.288  24.491  18.525  1.00  0.00     0.036 A 
HETATM   24  N1  UNL     1      19.847  25.101  17.458  1.00  0.00    -0.344 N 
HETATM   25  C7  UNL     1      21.092  25.603  17.447  1.00  0.00     0.107 A 
ATOM     26  H1  UNL     1      19.288  25.187  16.608  1.00  0.00     0.167 HD
HETATM   27  C14 UNL     1      21.811  25.466  18.623  1.00  0.00     0.057 A 
HETATM   28  C15 UNL     1      21.280  24.850  19.735  1.00  0.00    -0.036 A 
HETATM   29  C16 UNL     1      22.042  24.696  21.004  1.00  0.00     0.050 C 
HETATM   30  C17 UNL     1      19.991  24.346  19.701  1.00  0.00     0.073 A 
HETATM   31  C18 UNL     1      19.432  23.687  20.873  1.00  0.00     0.102 C 
HETATM   32  N5  UNL     1      19.005  23.150  21.808  1.00  0.00    -0.191 NA
BRANCH  25  33
HETATM   33  N2  UNL     1      21.622  26.233  16.292  1.00  0.00    -0.328 N 
ATOM     34  H2  UNL     1      21.133  26.102  15.407  1.00  0.00     0.169 HD
BRANCH  33  35
HETATM   35  C8  UNL     1      22.686  26.960  16.296  1.00  0.00     0.123 A 
HETATM   36  C9  UNL     1      23.919  26.528  15.851  1.00  0.00     0.076 A 
HETATM   37  C10 UNL     1      24.814  27.564  16.002  1.00  0.00     0.033 A 
HETATM   38  N3  UNL     1      24.138  28.599  16.526  1.00  0.00    -0.303 N 
HETATM   39  N4  UNL     1      22.863  28.230  16.699  1.00  0.00    -0.285 N 
ATOM     40  H3  UNL     1      24.529  29.513  16.753  1.00  0.00     0.186 HD
ATOM     41  H4  UNL     1      22.130  28.827  17.083  1.00  0.00     0.188 HD
BRANCH  37  42
HETATM   42  C11 UNL     1      26.259  27.625  15.683  1.00  0.00     0.037 A 
HETATM   43  C12 UNL     1      27.178  27.330  16.890  1.00  0.00     0.011 A 
HETATM   44  C13 UNL     1      27.033  26.356  15.717  1.00  0.00     0.011 A 
ENDBRANCH  37  42
ENDBRANCH  33  35
ENDBRANCH  25  33
ENDBRANCH   5  23
TORSDOF 8
ENDMDL
MODEL 3
REMARK VINA RESULT: -10.073027198      1.450      2.020
REMARK  8 active torsions:
REMARK  status: ('A' for Active; 'I' for Inactive)
REMARK    1  A    between atoms: C5_5  and  C6_6 
REMARK    2  A    between atoms: C7_9  and  N2_10 
REMARK    3  A    between atoms: N2_10  and  C8_12 
REMARK    4  A    between atoms: C10_14  and  C11_15 
REMARK    5  A    between atoms: C21_30  and  N6_31 
REMARK    6  A    between atoms: C24_34  and  C25_35 
REMARK       I    between atoms: C25_35  and  N7_37 
REMARK    7  A    between atoms: N7_37  and  C26_39 
REMARK    8  A    between atoms: C26_39  and  C27_40 
ROOT
HETATM    1  C1  UNL     1      17.840  24.607  14.626  1.00  0.00     0.012 C 
HETATM    2  C2  UNL     1      17.768  23.884  15.589  1.00  0.00    -0.110 C 
HETATM    3  C3  UNL     1      17.656  22.998  16.777  1.00  0.00     0.098 C 
HETATM    4  C4  UNL     1      16.542  22.035  16.478  1.00  0.00     0.030 C 
HETATM    5  C5  UNL     1      15.175  22.672  16.584  1.00  0.00     0.038 C 
HETATM    6  C19 UNL     1      15.076  23.073  18.065  1.00  0.00     0.013 C 
HETATM    7  C20 UNL     1      16.046  24.222  18.225  1.00  0.00     0.038 C 
HETATM    8  C21 UNL     1      17.479  23.831  17.989  1.00  0.00     0.238 C 
ENDROOT
BRANCH   8   9
HETATM    9  N6  UNL     1      18.110  23.319  19.191  1.00  0.00     0.094 N 
HETATM   10  C22 UNL     1      18.202  24.462  20.110  1.00  0.00     0.273 C 
HETATM   11  C23 UNL     1      19.453  24.392  20.968  1.00  0.00     0.044 C 
HETATM   12  C24 UNL     1      20.614  24.740  20.061  1.00  0.00     0.081 C 
HETATM   13  C28 UNL     1      20.478  23.905  18.821  1.00  0.00     0.044 C 
HETATM   14  C29 UNL     1      19.430  22.829  18.993  1.00  0.00     0.273 C 
BRANCH  12  15
HETATM   15  C25 UNL     1      21.926  24.607  20.723  1.00  0.00     0.222 C 
HETATM   16  O1  UNL     1      21.983  24.768  21.972  1.00  0.00    -0.273 OA
HETATM   17  N7  UNL     1      23.123  24.310  20.039  1.00  0.00    -0.351 N 
ATOM     18  H7  UNL     1      23.088  24.181  19.027  1.00  0.00     0.163 HD
BRANCH  17  19
HETATM   19  C26 UNL     1      24.380  24.184  20.701  1.00  0.00     0.235 C 
BRANCH  19  20
HETATM   20  C27 UNL     1      25.055  25.453  21.016  1.00  0.00     0.191 C 
HETATM   21  O2  UNL     1      25.567  26.186  20.134  1.00  0.00    -0.647 OA
HETATM   22  O3  UNL     1      25.147  25.884  22.332  1.00  0.00    -0.647 OA
ENDBRANCH  19  20
ENDBRANCH  17  19
ENDBRANCH  12  15
ENDBRANCH   8   9
BRANCH   5  23
HETATM   23  C6  UNL     1      14.158  21.673  16.208  1.00  0.00     0.036 A 
HETATM   24  N1  UNL     1      13.276  21.224  17.127  1.00  0.00    -0.344 N 
HETATM   25  C7  UNL     1      12.316  20.322  16.868  1.00  0.00     0.107 A 
ATOM     26  H1  UNL     1      13.343  21.593  18.076  1.00  0.00     0.167 HD
HETATM   27  C14 UNL     1      12.262  19.851  15.567  1.00  0.00     0.057 A 
HETATM   28  C15 UNL     1      13.141  20.283  14.598  1.00  0.00    -0.036 A 
HETATM   29  C16 UNL     1      13.094  19.783  13.197  1.00  0.00     0.050 C 
HETATM   30  C17 UNL     1      14.117  21.214  14.910  1.00  0.00     0.073 A 
HETATM   31  C18 UNL     1      15.052  21.662  13.889  1.00  0.00     0.102 C 
HETATM   32  N5  UNL     1      15.802  21.999  13.070  1.00  0.00    -0.191 NA
BRANCH  25  33
HETATM   33  N2  UNL     1      11.420  19.890  17.879  1.00  0.00    -0.328 N 
ATOM     34  H2  UNL     1      10.818  20.587  18.317  1.00  0.00     0.169 HD
BRANCH  33  35
HETATM   35  C8  UNL     1      11.321  18.668  18.276  1.00  0.00     0.123 A 
HETATM   36  C9  UNL     1      10.772  17.652  17.519  1.00  0.00     0.076 A 
HETATM   37  C10 UNL     1      10.833  16.491  18.256  1.00  0.00     0.033 A 
HETATM   38  N3  UNL     1      11.406  16.796  19.432  1.00  0.00    -0.303 N 
HETATM   39  N4  UNL     1      11.696  18.103  19.436  1.00  0.00    -0.285 N 
ATOM     40  H3  UNL     1      11.590  16.143  20.193  1.00  0.00     0.186 HD
ATOM     41  H4  UNL     1      12.137  18.599  20.210  1.00  0.00     0.188 HD
BRANCH  37  42
HETATM   42  C11 UNL     1      10.382  15.122  17.913  1.00  0.00     0.037 A 
HETATM   43  C12 UNL     1       8.970  14.780  18.440  1.00  0.00     0.011 A 
HETATM   44  C13 UNL     1       9.257  14.982  16.949  1.00  0.00     0.011 A 
ENDBRANCH  37  42
ENDBRANCH  33  35
ENDBRANCH  25  33
ENDBRANCH   5  23
TORSDOF 8
ENDMDL
MODEL 4
REMARK VINA RESULT: -9.627789814      3.192      5.506
REMARK  8 active torsions:
REMARK  status: ('A' for Active; 'I' for Inactive)
REMARK    1  A    between atoms: C5_5  and  C6_6 
REMARK    2  A    between atoms: C7_9  and  N2_10 
REMARK    3  A    between atoms: N2_10  and  C8_12 
REMARK    4  A    between atoms: C10_14  and  C11_15 
REMARK    5  A    between atoms: C21_30  and  N6_31 
REMARK    6  A    between atoms: C24_34  and  C25_35 
REMARK       I    between atoms: C25_35  and  N7_37 
REMARK    7  A    between atoms: N7_37  and  C26_39 
REMARK    8  A    between atoms: C26_39  and  C27_40 
ROOT
HETATM    1  C1  UNL     1      17.912  23.718  21.151  1.00  0.00     0.012 C 
HETATM    2  C2  UNL     1      17.783  23.996  19.985  1.00  0.00    -0.110 C 
HETATM    3  C3  UNL     1      17.624  24.316  18.542  1.00  0.00     0.098 C 
HETATM    4  C4  UNL     1      16.429  23.538  18.069  1.00  0.00     0.030 C 
HETATM    5  C5  UNL     1      16.719  22.063  17.908  1.00  0.00     0.038 C 
HETATM    6  C19 UNL     1      17.784  22.022  16.801  1.00  0.00     0.013 C 
HETATM    7  C20 UNL     1      19.033  22.589  17.439  1.00  0.00     0.038 C 
HETATM    8  C21 UNL     1      18.896  24.033  17.839  1.00  0.00     0.238 C 
ENDROOT
BRANCH   8   9
HETATM    9  N6  UNL     1      19.216  24.934  16.748  1.00  0.00     0.094 N 
HETATM   10  C22 UNL     1      20.316  24.294  16.013  1.00  0.00     0.273 C 
HETATM   11  C23 UNL     1      21.280  25.319  15.441  1.00  0.00     0.044 C 
HETATM   12  C24 UNL     1      22.076  25.857  16.611  1.00  0.00     0.081 C 
HETATM   13  C28 UNL     1      21.095  26.230  17.684  1.00  0.00     0.044 C 
HETATM   14  C29 UNL     1      19.676  26.213  17.165  1.00  0.00     0.273 C 
BRANCH  12  15
HETATM   15  C25 UNL     1      22.987  26.954  16.236  1.00  0.00     0.222 C 
HETATM   16  O1  UNL     1      22.556  28.138  16.299  1.00  0.00    -0.273 OA
HETATM   17  N7  UNL     1      24.317  26.758  15.808  1.00  0.00    -0.351 N 
ATOM     18  H7  UNL     1      24.676  25.805  15.751  1.00  0.00     0.163 HD
BRANCH  17  19
HETATM   19  C26 UNL     1      25.181  27.836  15.453  1.00  0.00     0.235 C 
BRANCH  19  20
HETATM   20  C27 UNL     1      26.585  27.463  15.210  1.00  0.00     0.191 C 
HETATM   21  O2  UNL     1      27.398  28.225  14.632  1.00  0.00    -0.647 OA
HETATM   22  O3  UNL     1      27.058  26.226  15.626  1.00  0.00    -0.647 OA
ENDBRANCH  19  20
ENDBRANCH  17  19
ENDBRANCH  12  15
ENDBRANCH   8   9
BRANCH   5  23
HETATM   23  C6  UNL     1      15.475  21.378  17.510  1.00  0.00     0.036 A 
HETATM   24  N1  UNL     1      15.088  21.373  16.217  1.00  0.00    -0.344 N 
HETATM   25  C7  UNL     1      13.976  20.769  15.768  1.00  0.00     0.107 A 
ATOM     26  H1  UNL     1      15.677  21.857  15.539  1.00  0.00     0.167 HD
HETATM   27  C14 UNL     1      13.210  20.123  16.725  1.00  0.00     0.057 A 
HETATM   28  C15 UNL     1      13.568  20.103  18.055  1.00  0.00    -0.036 A 
HETATM   29  C16 UNL     1      12.753  19.413  19.091  1.00  0.00     0.050 C 
HETATM   30  C17 UNL     1      14.723  20.740  18.473  1.00  0.00     0.073 A 
HETATM   31  C18 UNL     1      15.097  20.728  19.879  1.00  0.00     0.102 C 
HETATM   32  N5  UNL     1      15.375  20.724  21.006  1.00  0.00    -0.191 NA
BRANCH  25  33
HETATM   33  N2  UNL     1      13.623  20.800  14.395  1.00  0.00    -0.328 N 
ATOM     34  H2  UNL     1      13.688  21.692  13.903  1.00  0.00     0.169 HD
BRANCH  33  35
HETATM   35  C8  UNL     1      13.226  19.770  13.732  1.00  0.00     0.123 A 
HETATM   36  C9  UNL     1      11.900  19.467  13.495  1.00  0.00     0.076 A 
HETATM   37  C10 UNL     1      11.853  18.304  12.760  1.00  0.00     0.033 A 
HETATM   38  N3  UNL     1      13.120  17.911  12.556  1.00  0.00    -0.303 N 
HETATM   39  N4  UNL     1      13.938  18.794  13.142  1.00  0.00    -0.285 N 
ATOM     40  H3  UNL     1      13.412  17.080  12.042  1.00  0.00     0.186 HD
ATOM     41  H4  UNL     1      14.956  18.735  13.141  1.00  0.00     0.188 HD
BRANCH  37  42
HETATM   42  C11 UNL     1      10.685  17.551  12.247  1.00  0.00     0.037 A 
HETATM   43  C12 UNL     1      10.598  17.510  10.704  1.00  0.00     0.011 A 
HETATM   44  C13 UNL     1      10.941  16.270  11.535  1.00  0.00     0.011 A 
ENDBRANCH  37  42
ENDBRANCH  33  35
ENDBRANCH  25  33
ENDBRANCH   5  23
TORSDOF 8
ENDMDL
MODEL 5
REMARK VINA RESULT: -9.570768380      3.056      4.500
REMARK  8 active torsions:
REMARK  status: ('A' for Active; 'I' for Inactive)
REMARK    1  A    between atoms: C5_5  and  C6_6 
REMARK    2  A    between atoms: C7_9  and  N2_10 
REMARK    3  A    between atoms: N2_10  and  C8_12 
REMARK    4  A    between atoms: C10_14  and  C11_15 
REMARK    5  A    between atoms: C21_30  and  N6_31 
REMARK    6  A    between atoms: C24_34  and  C25_35 
REMARK       I    between atoms: C25_35  and  N7_37 
REMARK    7  A    between atoms: N7_37  and  C26_39 
REMARK    8  A    between atoms: C26_39  and  C27_40 
ROOT
HETATM    1  C1  UNL     1      15.222  22.134  13.479  1.00  0.00     0.012 C 
HETATM    2  C2  UNL     1      15.839  22.130  14.515  1.00  0.00    -0.110 C 
HETATM    3  C3  UNL     1      16.578  22.130  15.805  1.00  0.00     0.098 C 
HETATM    4  C4  UNL     1      15.863  21.156  16.698  1.00  0.00     0.030 C 
HETATM    5  C5  UNL     1      14.555  21.700  17.227  1.00  0.00     0.038 C 
HETATM    6  C19 UNL     1      14.983  22.905  18.079  1.00  0.00     0.013 C 
HETATM    7  C20 UNL     1      15.452  23.942  17.083  1.00  0.00     0.038 C 
HETATM    8  C21 UNL     1      16.672  23.519  16.311  1.00  0.00     0.238 C 
ENDROOT
BRANCH   8   9
HETATM    9  N6  UNL     1      17.901  23.843  17.011  1.00  0.00     0.094 N 
HETATM   10  C22 UNL     1      17.748  25.234  17.460  1.00  0.00     0.273 C 
HETATM   11  C23 UNL     1      19.072  25.977  17.444  1.00  0.00     0.044 C 
HETATM   12  C24 UNL     1      19.393  26.246  15.989  1.00  0.00     0.081 C 
HETATM   13  C28 UNL     1      19.222  24.952  15.248  1.00  0.00     0.044 C 
HETATM   14  C29 UNL     1      19.066  23.788  16.199  1.00  0.00     0.273 C 
BRANCH  12  15
HETATM   15  C25 UNL     1      20.716  26.869  15.794  1.00  0.00     0.222 C 
HETATM   16  O1  UNL     1      20.769  28.118  15.626  1.00  0.00    -0.273 OA
HETATM   17  N7  UNL     1      21.929  26.149  15.784  1.00  0.00    -0.351 N 
ATOM     18  H7  UNL     1      21.897  25.138  15.917  1.00  0.00     0.163 HD
BRANCH  17  19
HETATM   19  C26 UNL     1      23.197  26.774  15.596  1.00  0.00     0.235 C 
BRANCH  19  20
HETATM   20  C27 UNL     1      24.228  26.415  16.583  1.00  0.00     0.191 C 
HETATM   21  O2  UNL     1      24.158  26.752  17.790  1.00  0.00    -0.647 OA
HETATM   22  O3  UNL     1      25.335  25.674  16.193  1.00  0.00    -0.647 OA
ENDBRANCH  19  20
ENDBRANCH  17  19
ENDBRANCH  12  15
ENDBRANCH   8   9
BRANCH   5  23
HETATM   23  C6  UNL     1      13.900  20.652  18.031  1.00  0.00     0.036 A 
HETATM   24  N1  UNL     1      12.775  20.056  17.580  1.00  0.00    -0.344 N 
HETATM   25  C7  UNL     1      12.119  19.091  18.245  1.00  0.00     0.107 A 
ATOM     26  H1  UNL     1      12.401  20.357  16.680  1.00  0.00     0.167 HD
HETATM   27  C14 UNL     1      12.665  18.714  19.461  1.00  0.00     0.057 A 
HETATM   28  C15 UNL     1      13.811  19.296  19.958  1.00  0.00    -0.036 A 
HETATM   29  C16 UNL     1      14.407  18.901  21.263  1.00  0.00     0.050 C 
HETATM   30  C17 UNL     1      14.454  20.289  19.239  1.00  0.00     0.073 A 
HETATM   31  C18 UNL     1      15.659  20.911  19.767  1.00  0.00     0.102 C 
HETATM   32  N5  UNL     1      16.610  21.410  20.208  1.00  0.00    -0.191 NA
BRANCH  25  33
HETATM   33  N2  UNL     1      10.941  18.504  17.718  1.00  0.00    -0.328 N 
ATOM     34  H2  UNL     1      10.316  19.093  17.168  1.00  0.00     0.169 HD
BRANCH  33  35
HETATM   35  C8  UNL     1      10.613  17.270  17.894  1.00  0.00     0.123 A 
HETATM   36  C9  UNL     1      10.526  16.341  16.876  1.00  0.00     0.076 A 
HETATM   37  C10 UNL     1      10.153  15.137  17.429  1.00  0.00     0.033 A 
HETATM   38  N3  UNL     1      10.018  15.332  18.751  1.00  0.00    -0.303 N 
HETATM   39  N4  UNL     1      10.295  16.613  19.022  1.00  0.00    -0.285 N 
ATOM     40  H3  UNL     1       9.750  14.623  19.433  1.00  0.00     0.186 HD
ATOM     41  H4  UNL     1      10.268  17.030  19.952  1.00  0.00     0.188 HD
BRANCH  37  42
HETATM   42  C11 UNL     1       9.919  13.826  16.781  1.00  0.00     0.037 A 
HETATM   43  C12 UNL     1       8.448  13.587  16.371  1.00  0.00     0.011 A 
HETATM   44  C13 UNL     1       9.555  13.819  15.338  1.00  0.00     0.011 A 
ENDBRANCH  37  42
ENDBRANCH  33  35
ENDBRANCH  25  33
ENDBRANCH   5  23
TORSDOF 8
ENDMDL
