MODEL 1
REMARK VINA RESULT: -6.935618940      0.000      0.000
REMARK  8 active torsions:
REMARK  status: ('A' for Active; 'I' for Inactive)
REMARK    1  A    between atoms: C2_2  and  C3_3 
REMARK    2  A    between atoms: C4_4  and  C5_5 
REMARK    3  A    between atoms: C5_5  and  C6_6 
REMARK    4  A    between atoms: C8_11  and  C9_12 
REMARK    5  A    between atoms: C13_19  and  C14_20 
REMARK    6  A    between atoms: C14_20  and  C15_21 
REMARK    7  A    between atoms: C19_28  and  C20_29 
REMARK    8  A    between atoms: C20_29  and  C21_30 
ROOT
HETATM    1  C6  UNL     1      12.947  21.066  14.162  1.00  0.00     0.160 C 
HETATM    2  C7  UNL     1      11.775  20.726  14.994  1.00  0.00     0.230 C 
HETATM    3  O1  UNL     1      10.871  21.644  14.955  1.00  0.00    -0.273 OA
HETATM    4  N1  UNL     1      11.531  19.606  15.772  1.00  0.00    -0.347 N 
ATOM      5  H1  UNL     1      10.674  19.098  15.550  1.00  0.00     0.163 HD
HETATM    6  C8  UNL     1      12.314  19.053  16.856  1.00  0.00     0.180 C 
HETATM    7  C12 UNL     1      12.177  19.779  18.119  1.00  0.00     0.241 C 
HETATM    8  O2  UNL     1      11.132  19.485  18.805  1.00  0.00    -0.271 OA
HETATM    9  N2  UNL     1      13.019  20.741  18.680  1.00  0.00    -0.346 N 
ATOM     10  H2  UNL     1      12.562  21.477  19.218  1.00  0.00     0.163 HD
HETATM   11  C13 UNL     1      14.460  20.822  18.590  1.00  0.00     0.177 C 
HETATM   12  C18 UNL     1      14.918  22.231  18.745  1.00  0.00     0.241 C 
HETATM   13  O3  UNL     1      13.983  23.024  19.160  1.00  0.00    -0.271 OA
HETATM   14  N3  UNL     1      16.163  22.792  18.514  1.00  0.00    -0.347 N 
ATOM     15  H3  UNL     1      16.614  23.149  19.357  1.00  0.00     0.163 HD
HETATM   16  C19 UNL     1      16.941  22.970  17.325  1.00  0.00     0.161 C 
HETATM   17  C27 UNL     1      16.905  21.796  16.421  1.00  0.00     0.200 C 
HETATM   18  O4  UNL     1      17.394  20.753  16.822  1.00  0.00    -0.288 OA
HETATM   19  C28 UNL     1      16.314  21.801  15.044  1.00  0.00     0.236 C 
HETATM   20  N4  UNL     1      14.972  21.903  14.975  1.00  0.00    -0.403 NA
HETATM   21  C29 UNL     1      13.803  22.036  14.947  1.00  0.00     0.178 C 
HETATM   22  N5  UNL     1      12.998  23.045  15.581  1.00  0.00    -0.071 NA
ENDROOT
BRANCH  16  23
HETATM   23  C20 UNL     1      16.724  24.260  16.608  1.00  0.00     0.038 C 
BRANCH  23  24
HETATM   24  C21 UNL     1      17.885  24.999  16.090  1.00  0.00    -0.012 C 
HETATM   25  C22 UNL     1      18.163  24.858  14.614  1.00  0.00     0.005 C 
HETATM   26  C23 UNL     1      19.120  26.006  14.267  1.00  0.00     0.000 C 
HETATM   27  C24 UNL     1      20.359  26.006  15.095  1.00  0.00     0.000 C 
HETATM   28  C25 UNL     1      20.028  26.056  16.589  1.00  0.00     0.000 C 
HETATM   29  C26 UNL     1      19.181  24.792  16.825  1.00  0.00     0.005 C 
ENDBRANCH  23  24
ENDBRANCH  16  23
BRANCH  11  30
HETATM   30  C14 UNL     1      15.174  19.903  19.551  1.00  0.00     0.038 C 
BRANCH  30  31
HETATM   31  C15 UNL     1      14.340  19.106  20.467  1.00  0.00    -0.020 C 
HETATM   32  C16 UNL     1      14.776  19.511  21.894  1.00  0.00     0.009 C 
HETATM   33  C17 UNL     1      14.506  17.626  20.432  1.00  0.00     0.009 C 
ENDBRANCH  30  31
ENDBRANCH  11  30
BRANCH   1  34
HETATM   34  C5  UNL     1      13.718  19.902  13.632  1.00  0.00     0.049 C 
BRANCH  34  35
HETATM   35  C4  UNL     1      13.176  19.580  12.303  1.00  0.00    -0.029 C 
HETATM   36  C3  UNL     1      12.384  18.564  12.100  1.00  0.00    -0.031 C 
BRANCH  36  37
HETATM   37  C2  UNL     1      11.879  17.569  13.069  1.00  0.00     0.022 C 
HETATM   38  C1  UNL     1      12.052  16.209  12.415  1.00  0.00     0.009 C 
ENDBRANCH  36  37
ENDBRANCH  34  35
ENDBRANCH   1  34
BRANCH   6  39
HETATM   39  C9  UNL     1      11.929  17.610  17.091  1.00  0.00     0.009 C 
HETATM   40  C10 UNL     1      11.895  17.227  18.533  1.00  0.00     0.012 C 
HETATM   41  C11 UNL     1      10.645  17.186  16.464  1.00  0.00     0.012 C 
ENDBRANCH   6  39
TORSDOF 8
ENDMDL
MODEL 2
REMARK VINA RESULT: -6.824629265      5.641     11.537
REMARK  8 active torsions:
REMARK  status: ('A' for Active; 'I' for Inactive)
REMARK    1  A    between atoms: C2_2  and  C3_3 
REMARK    2  A    between atoms: C4_4  and  C5_5 
REMARK    3  A    between atoms: C5_5  and  C6_6 
REMARK    4  A    between atoms: C8_11  and  C9_12 
REMARK    5  A    between atoms: C13_19  and  C14_20 
REMARK    6  A    between atoms: C14_20  and  C15_21 
REMARK    7  A    between atoms: C19_28  and  C20_29 
REMARK    8  A    between atoms: C20_29  and  C21_30 
ROOT
HETATM    1  C6  UNL     1      23.719  23.705  20.479  1.00  0.00     0.160 C 
HETATM    2  C7  UNL     1      24.577  24.906  20.527  1.00  0.00     0.230 C 
HETATM    3  O1  UNL     1      24.515  25.501  21.668  1.00  0.00    -0.273 OA
HETATM    4  N1  UNL     1      25.400  25.452  19.554  1.00  0.00    -0.347 N 
ATOM      5  H1  UNL     1      26.377  25.569  19.825  1.00  0.00     0.163 HD
HETATM    6  C8  UNL     1      25.074  25.881  18.212  1.00  0.00     0.180 C 
HETATM    7  C12 UNL     1      24.391  27.174  18.150  1.00  0.00     0.241 C 
HETATM    8  O2  UNL     1      25.160  28.200  18.226  1.00  0.00    -0.271 OA
HETATM    9  N2  UNL     1      23.028  27.446  18.020  1.00  0.00    -0.346 N 
ATOM     10  H2  UNL     1      22.690  28.279  18.503  1.00  0.00     0.163 HD
HETATM   11  C13 UNL     1      22.037  26.693  17.285  1.00  0.00     0.177 C 
HETATM   12  C18 UNL     1      20.681  26.898  17.868  1.00  0.00     0.241 C 
HETATM   13  O3  UNL     1      20.641  27.868  18.725  1.00  0.00    -0.271 OA
HETATM   14  N3  UNL     1      19.498  26.220  17.629  1.00  0.00    -0.347 N 
ATOM     15  H3  UNL     1      18.777  26.794  17.192  1.00  0.00     0.163 HD
HETATM   16  C19 UNL     1      19.088  24.870  17.877  1.00  0.00     0.161 C 
HETATM   17  C27 UNL     1      20.140  23.872  17.570  1.00  0.00     0.200 C 
HETATM   18  O4  UNL     1      20.497  23.759  16.409  1.00  0.00    -0.288 OA
HETATM   19  C28 UNL     1      20.794  22.987  18.586  1.00  0.00     0.236 C 
HETATM   20  N4  UNL     1      21.618  23.596  19.461  1.00  0.00    -0.403 NA
HETATM   21  C29 UNL     1      22.298  24.164  20.237  1.00  0.00     0.178 C 
HETATM   22  N5  UNL     1      21.973  25.301  21.053  1.00  0.00    -0.071 NA
ENDROOT
BRANCH  16  23
HETATM   23  C20 UNL     1      18.433  24.634  19.196  1.00  0.00     0.038 C 
BRANCH  23  24
HETATM   24  C21 UNL     1      17.227  23.796  19.262  1.00  0.00    -0.012 C 
HETATM   25  C22 UNL     1      17.439  22.347  19.626  1.00  0.00     0.005 C 
HETATM   26  C23 UNL     1      16.055  21.819  20.023  1.00  0.00     0.000 C 
HETATM   27  C24 UNL     1      15.028  22.007  18.958  1.00  0.00     0.000 C 
HETATM   28  C25 UNL     1      14.913  23.480  18.554  1.00  0.00     0.000 C 
HETATM   29  C26 UNL     1      16.325  23.841  18.060  1.00  0.00     0.005 C 
ENDBRANCH  23  24
ENDBRANCH  16  23
BRANCH  11  30
HETATM   30  C14 UNL     1      22.046  26.974  15.802  1.00  0.00     0.038 C 
BRANCH  30  31
HETATM   31  C15 UNL     1      20.788  26.752  15.067  1.00  0.00    -0.020 C 
HETATM   32  C16 UNL     1      21.046  25.536  14.149  1.00  0.00     0.009 C 
HETATM   33  C17 UNL     1      20.335  27.829  14.142  1.00  0.00     0.009 C 
ENDBRANCH  30  31
ENDBRANCH  11  30
BRANCH   1  34
HETATM   34  C5  UNL     1      24.160  22.639  19.530  1.00  0.00     0.049 C 
BRANCH  34  35
HETATM   35  C4  UNL     1      25.571  22.342  19.822  1.00  0.00    -0.029 C 
HETATM   36  C3  UNL     1      26.107  21.181  19.568  1.00  0.00    -0.031 C 
BRANCH  36  37
HETATM   37  C2  UNL     1      25.485  19.978  18.975  1.00  0.00     0.022 C 
HETATM   38  C1  UNL     1      25.434  18.936  20.080  1.00  0.00     0.009 C 
ENDBRANCH  36  37
ENDBRANCH  34  35
ENDBRANCH   1  34
BRANCH   6  39
HETATM   39  C9  UNL     1      26.331  25.964  17.374  1.00  0.00     0.009 C 
HETATM   40  C10 UNL     1      27.307  24.869  17.651  1.00  0.00     0.012 C 
HETATM   41  C11 UNL     1      26.108  26.032  15.903  1.00  0.00     0.012 C 
ENDBRANCH   6  39
TORSDOF 8
ENDMDL
MODEL 3
REMARK VINA RESULT: -6.663041307      3.817     10.166
REMARK  8 active torsions:
REMARK  status: ('A' for Active; 'I' for Inactive)
REMARK    1  A    between atoms: C2_2  and  C3_3 
REMARK    2  A    between atoms: C4_4  and  C5_5 
REMARK    3  A    between atoms: C5_5  and  C6_6 
REMARK    4  A    between atoms: C8_11  and  C9_12 
REMARK    5  A    between atoms: C13_19  and  C14_20 
REMARK    6  A    between atoms: C14_20  and  C15_21 
REMARK    7  A    between atoms: C19_28  and  C20_29 
REMARK    8  A    between atoms: C20_29  and  C21_30 
ROOT
HETATM    1  C6  UNL     1      20.793  24.492  20.904  1.00  0.00     0.160 C 
HETATM    2  C7  UNL     1      20.907  25.883  20.422  1.00  0.00     0.230 C 
HETATM    3  O1  UNL     1      20.321  26.719  21.208  1.00  0.00    -0.273 OA
HETATM    4  N1  UNL     1      21.530  26.385  19.290  1.00  0.00    -0.347 N 
ATOM      5  H1  UNL     1      22.238  27.099  19.461  1.00  0.00     0.163 HD
HETATM    6  C8  UNL     1      21.322  26.042  17.900  1.00  0.00     0.180 C 
HETATM    7  C12 UNL     1      20.116  26.633  17.316  1.00  0.00     0.241 C 
HETATM    8  O2  UNL     1      20.237  27.853  16.935  1.00  0.00    -0.271 OA
HETATM    9  N2  UNL     1      18.860  26.057  17.118  1.00  0.00    -0.346 N 
ATOM     10  H2  UNL     1      18.060  26.683  17.214  1.00  0.00     0.163 HD
HETATM   11  C13 UNL     1      18.553  24.682  16.793  1.00  0.00     0.177 C 
HETATM   12  C18 UNL     1      17.188  24.320  17.268  1.00  0.00     0.241 C 
HETATM   13  O3  UNL     1      16.493  25.349  17.638  1.00  0.00    -0.271 OA
HETATM   14  N3  UNL     1      16.579  23.081  17.366  1.00  0.00    -0.347 N 
ATOM     15  H3  UNL     1      15.777  22.968  16.746  1.00  0.00     0.163 HD
HETATM   16  C19 UNL     1      16.854  21.927  18.169  1.00  0.00     0.161 C 
HETATM   17  C27 UNL     1      18.301  21.624  18.284  1.00  0.00     0.200 C 
HETATM   18  O4  UNL     1      18.898  21.306  17.270  1.00  0.00    -0.288 OA
HETATM   19  C28 UNL     1      19.081  21.678  19.561  1.00  0.00     0.236 C 
HETATM   20  N4  UNL     1      19.289  22.905  20.079  1.00  0.00    -0.403 NA
HETATM   21  C29 UNL     1      19.418  23.986  20.527  1.00  0.00     0.178 C 
HETATM   22  N5  UNL     1      18.408  24.972  20.796  1.00  0.00    -0.071 NA
ENDROOT
BRANCH  16  23
HETATM   23  C20 UNL     1      16.146  21.879  19.480  1.00  0.00     0.038 C 
BRANCH  23  24
HETATM   24  C21 UNL     1      15.145  20.829  19.720  1.00  0.00    -0.012 C 
HETATM   25  C22 UNL     1      15.430  19.880  20.858  1.00  0.00     0.005 C 
HETATM   26  C23 UNL     1      14.097  19.182  21.152  1.00  0.00     0.000 C 
HETATM   27  C24 UNL     1      13.515  18.502  19.959  1.00  0.00     0.000 C 
HETATM   28  C25 UNL     1      13.330  19.482  18.798  1.00  0.00     0.000 C 
HETATM   29  C26 UNL     1      14.750  20.007  18.523  1.00  0.00     0.005 C 
ENDBRANCH  23  24
ENDBRANCH  16  23
BRANCH  11  30
HETATM   30  C14 UNL     1      18.729  24.357  15.329  1.00  0.00     0.038 C 
BRANCH  30  31
HETATM   31  C15 UNL     1      19.194  25.443  14.449  1.00  0.00    -0.020 C 
HETATM   32  C16 UNL     1      17.995  25.785  13.534  1.00  0.00     0.009 C 
HETATM   33  C17 UNL     1      20.306  25.134  13.507  1.00  0.00     0.009 C 
ENDBRANCH  30  31
ENDBRANCH  11  30
BRANCH   1  34
HETATM   34  C5  UNL     1      21.892  23.573  20.481  1.00  0.00     0.049 C 
BRANCH  34  35
HETATM   35  C4  UNL     1      23.166  24.268  20.721  1.00  0.00    -0.029 C 
HETATM   36  C3  UNL     1      24.309  23.787  20.319  1.00  0.00    -0.031 C 
BRANCH  36  37
HETATM   37  C2  UNL     1      24.586  22.533  19.587  1.00  0.00     0.022 C 
HETATM   38  C1  UNL     1      26.072  22.543  19.269  1.00  0.00     0.009 C 
ENDBRANCH  36  37
ENDBRANCH  34  35
ENDBRANCH   1  34
BRANCH   6  39
HETATM   39  C9  UNL     1      22.513  26.476  17.074  1.00  0.00     0.009 C 
HETATM   40  C10 UNL     1      23.806  26.424  17.818  1.00  0.00     0.012 C 
HETATM   41  C11 UNL     1      22.685  25.753  15.783  1.00  0.00     0.012 C 
ENDBRANCH   6  39
TORSDOF 8
ENDMDL
MODEL 4
REMARK VINA RESULT: -5.876161239      2.729      9.131
REMARK  8 active torsions:
REMARK  status: ('A' for Active; 'I' for Inactive)
REMARK    1  A    between atoms: C2_2  and  C3_3 
REMARK    2  A    between atoms: C4_4  and  C5_5 
REMARK    3  A    between atoms: C5_5  and  C6_6 
REMARK    4  A    between atoms: C8_11  and  C9_12 
REMARK    5  A    between atoms: C13_19  and  C14_20 
REMARK    6  A    between atoms: C14_20  and  C15_21 
REMARK    7  A    between atoms: C19_28  and  C20_29 
REMARK    8  A    between atoms: C20_29  and  C21_30 
ROOT
HETATM    1  C6  UNL     1      19.578  24.443  19.139  1.00  0.00     0.160 C 
HETATM    2  C7  UNL     1      19.337  25.646  18.317  1.00  0.00     0.230 C 
HETATM    3  O1  UNL     1      18.798  26.599  18.997  1.00  0.00    -0.273 OA
HETATM    4  N1  UNL     1      19.601  25.875  16.975  1.00  0.00    -0.347 N 
ATOM      5  H1  UNL     1      20.192  26.683  16.778  1.00  0.00     0.163 HD
HETATM    6  C8  UNL     1      19.160  25.134  15.814  1.00  0.00     0.180 C 
HETATM    7  C12 UNL     1      17.771  25.398  15.433  1.00  0.00     0.241 C 
HETATM    8  O2  UNL     1      17.588  26.466  14.746  1.00  0.00    -0.271 OA
HETATM    9  N2  UNL     1      16.624  24.652  15.712  1.00  0.00    -0.346 N 
ATOM     10  H2  UNL     1      15.766  25.187  15.853  1.00  0.00     0.163 HD
HETATM   11  C13 UNL     1      16.501  23.217  15.825  1.00  0.00     0.177 C 
HETATM   12  C18 UNL     1      15.359  22.853  16.709  1.00  0.00     0.241 C 
HETATM   13  O3  UNL     1      14.590  23.860  16.980  1.00  0.00    -0.271 OA
HETATM   14  N3  UNL     1      15.014  21.632  17.262  1.00  0.00    -0.347 N 
ATOM     15  H3  UNL     1      14.129  21.260  16.916  1.00  0.00     0.163 HD
HETATM   16  C19 UNL     1      15.656  20.788  18.226  1.00  0.00     0.161 C 
HETATM   17  C27 UNL     1      17.123  20.694  18.036  1.00  0.00     0.200 C 
HETATM   18  O4  UNL     1      17.533  20.172  17.013  1.00  0.00    -0.288 OA
HETATM   19  C28 UNL     1      18.140  21.192  19.017  1.00  0.00     0.236 C 
HETATM   20  N4  UNL     1      18.236  22.530  19.145  1.00  0.00    -0.403 NA
HETATM   21  C29 UNL     1      18.266  23.701  19.265  1.00  0.00     0.178 C 
HETATM   22  N5  UNL     1      17.180  24.604  19.533  1.00  0.00    -0.071 NA
ENDROOT
BRANCH  16  23
HETATM   23  C20 UNL     1      15.270  21.033  19.645  1.00  0.00     0.038 C 
BRANCH  23  24
HETATM   24  C21 UNL     1      14.366  20.088  20.318  1.00  0.00    -0.012 C 
HETATM   25  C22 UNL     1      14.900  19.421  21.561  1.00  0.00     0.005 C 
HETATM   26  C23 UNL     1      13.673  18.839  22.273  1.00  0.00     0.000 C 
HETATM   27  C24 UNL     1      12.880  17.915  21.412  1.00  0.00     0.000 C 
HETATM   28  C25 UNL     1      12.438  18.606  20.119  1.00  0.00     0.000 C 
HETATM   29  C26 UNL     1      13.759  19.022  19.448  1.00  0.00     0.005 C 
ENDBRANCH  23  24
ENDBRANCH  16  23
BRANCH  11  30
HETATM   30  C14 UNL     1      16.410  22.514  14.492  1.00  0.00     0.038 C 
BRANCH  30  31
HETATM   31  C15 UNL     1      15.148  21.819  14.182  1.00  0.00    -0.020 C 
HETATM   32  C16 UNL     1      15.326  21.239  12.760  1.00  0.00     0.009 C 
HETATM   33  C17 UNL     1      13.912  22.647  14.096  1.00  0.00     0.009 C 
ENDBRANCH  30  31
ENDBRANCH  11  30
BRANCH   1  34
HETATM   34  C5  UNL     1      20.703  23.571  18.688  1.00  0.00     0.049 C 
BRANCH  34  35
HETATM   35  C4  UNL     1      21.787  23.702  19.674  1.00  0.00    -0.029 C 
HETATM   36  C3  UNL     1      22.702  24.628  19.587  1.00  0.00    -0.031 C 
BRANCH  36  37
HETATM   37  C2  UNL     1      22.864  25.684  18.565  1.00  0.00     0.022 C 
HETATM   38  C1  UNL     1      24.356  25.944  18.452  1.00  0.00     0.009 C 
ENDBRANCH  36  37
ENDBRANCH  34  35
ENDBRANCH   1  34
BRANCH   6  39
HETATM   39  C9  UNL     1      20.047  25.448  14.630  1.00  0.00     0.009 C 
HETATM   40  C10 UNL     1      20.528  26.860  14.602  1.00  0.00     0.012 C 
HETATM   41  C11 UNL     1      21.223  24.549  14.464  1.00  0.00     0.012 C 
ENDBRANCH   6  39
TORSDOF 8
ENDMDL
MODEL 5
REMARK VINA RESULT: -5.587120758      2.670      8.954
REMARK  8 active torsions:
REMARK  status: ('A' for Active; 'I' for Inactive)
REMARK    1  A    between atoms: C2_2  and  C3_3 
REMARK    2  A    between atoms: C4_4  and  C5_5 
REMARK    3  A    between atoms: C5_5  and  C6_6 
REMARK    4  A    between atoms: C8_11  and  C9_12 
REMARK    5  A    between atoms: C13_19  and  C14_20 
REMARK    6  A    between atoms: C14_20  and  C15_21 
REMARK    7  A    between atoms: C19_28  and  C20_29 
REMARK    8  A    between atoms: C20_29  and  C21_30 
ROOT
HETATM    1  C6  UNL     1      19.240  24.365  18.971  1.00  0.00     0.160 C 
HETATM    2  C7  UNL     1      19.040  25.518  18.070  1.00  0.00     0.230 C 
HETATM    3  O1  UNL     1      18.472  26.509  18.667  1.00  0.00    -0.273 OA
HETATM    4  N1  UNL     1      19.367  25.669  16.731  1.00  0.00    -0.347 N 
ATOM      5  H1  UNL     1      19.969  26.465  16.516  1.00  0.00     0.163 HD
HETATM    6  C8  UNL     1      18.979  24.862  15.595  1.00  0.00     0.180 C 
HETATM    7  C12 UNL     1      17.611  25.103  15.135  1.00  0.00     0.241 C 
HETATM    8  O2  UNL     1      17.463  26.130  14.379  1.00  0.00    -0.271 OA
HETATM    9  N2  UNL     1      16.450  24.375  15.402  1.00  0.00    -0.346 N 
ATOM     10  H2  UNL     1      15.588  24.916  15.471  1.00  0.00     0.163 HD
HETATM   11  C13 UNL     1      16.319  22.948  15.593  1.00  0.00     0.177 C 
HETATM   12  C18 UNL     1      15.135  22.636  16.441  1.00  0.00     0.241 C 
HETATM   13  O3  UNL     1      14.357  23.656  16.617  1.00  0.00    -0.271 OA
HETATM   14  N3  UNL     1      14.762  21.448  17.048  1.00  0.00    -0.347 N 
ATOM     15  H3  UNL     1      13.894  21.056  16.682  1.00  0.00     0.163 HD
HETATM   16  C19 UNL     1      15.356  20.662  18.087  1.00  0.00     0.161 C 
HETATM   17  C27 UNL     1      16.830  20.558  17.973  1.00  0.00     0.200 C 
HETATM   18  O4  UNL     1      17.286  19.977  17.002  1.00  0.00    -0.288 OA
HETATM   19  C28 UNL     1      17.801  21.112  18.970  1.00  0.00     0.236 C 
HETATM   20  N4  UNL     1      17.894  22.456  19.024  1.00  0.00    -0.403 NA
HETATM   21  C29 UNL     1      17.921  23.631  19.077  1.00  0.00     0.178 C 
HETATM   22  N5  UNL     1      16.827  24.548  19.242  1.00  0.00    -0.071 NA
ENDROOT
BRANCH  16  23
HETATM   23  C20 UNL     1      14.904  20.989  19.470  1.00  0.00     0.038 C 
BRANCH  23  24
HETATM   24  C21 UNL     1      14.106  20.006  20.218  1.00  0.00    -0.012 C 
HETATM   25  C22 UNL     1      14.791  19.332  21.381  1.00  0.00     0.005 C 
HETATM   26  C23 UNL     1      13.665  18.701  22.209  1.00  0.00     0.000 C 
HETATM   27  C24 UNL     1      12.808  17.770  21.420  1.00  0.00     0.000 C 
HETATM   28  C25 UNL     1      12.208  18.471  20.198  1.00  0.00     0.000 C 
HETATM   29  C26 UNL     1      13.436  18.938  19.396  1.00  0.00     0.005 C 
ENDBRANCH  23  24
ENDBRANCH  16  23
BRANCH  11  30
HETATM   30  C14 UNL     1      16.288  22.169  14.300  1.00  0.00     0.038 C 
BRANCH  30  31
HETATM   31  C15 UNL     1      14.977  21.990  13.652  1.00  0.00    -0.020 C 
HETATM   32  C16 UNL     1      14.559  20.531  13.943  1.00  0.00     0.009 C 
HETATM   33  C17 UNL     1      14.924  22.105  12.168  1.00  0.00     0.009 C 
ENDBRANCH  30  31
ENDBRANCH  11  30
BRANCH   1  34
HETATM   34  C5  UNL     1      20.383  23.469  18.624  1.00  0.00     0.049 C 
BRANCH  34  35
HETATM   35  C4  UNL     1      21.624  24.190  18.948  1.00  0.00    -0.029 C 
HETATM   36  C3  UNL     1      21.967  24.474  20.174  1.00  0.00    -0.031 C 
BRANCH  36  37
HETATM   37  C2  UNL     1      21.256  24.169  21.434  1.00  0.00     0.022 C 
HETATM   38  C1  UNL     1      20.427  25.398  21.765  1.00  0.00     0.009 C 
ENDBRANCH  36  37
ENDBRANCH  34  35
ENDBRANCH   1  34
BRANCH   6  39
HETATM   39  C9  UNL     1      19.922  25.107  14.438  1.00  0.00     0.009 C 
HETATM   40  C10 UNL     1      20.179  26.553  14.173  1.00  0.00     0.012 C 
HETATM   41  C11 UNL     1      21.234  24.407  14.530  1.00  0.00     0.012 C 
ENDBRANCH   6  39
TORSDOF 8
ENDMDL
