MODEL 1
REMARK VINA RESULT: -8.989265200      0.000      0.000
REMARK  10 active torsions:
REMARK  status: ('A' for Active; 'I' for Inactive)
REMARK    1  A    between atoms: C2_2  and  C3_3 
REMARK    2  A    between atoms: C3_3  and  C4_4 
REMARK    3  A    between atoms: C16_17  and  O2_18 
REMARK    4  A    between atoms: O2_18  and  C17_19 
REMARK    5  A    between atoms: C19_21  and  C20_22 
REMARK    6  A    between atoms: C19_21  and  C22_24 
REMARK    7  A    between atoms: C22_24  and  O3_25 
REMARK    8  A    between atoms: C23_27  and  O4_28 
REMARK    9  A    between atoms: C24_30  and  N1_31 
REMARK       I    between atoms: N1_31  and  C25_33 
REMARK   10  A    between atoms: C27_36  and  O6_37 
ROOT
HETATM    1  C4  UNL     1      18.423  23.850  17.911  1.00  0.00    -0.022 C 
HETATM    2  C5  UNL     1      18.090  25.327  17.826  1.00  0.00     0.093 C 
HETATM    3  C6  UNL     1      19.109  26.076  17.057  1.00  0.00     0.149 C 
HETATM    4  O1  UNL     1      19.588  27.180  17.405  1.00  0.00    -0.293 OA
HETATM    5  C7  UNL     1      19.574  25.473  15.813  1.00  0.00     0.046 C 
HETATM    6  C8  UNL     1      19.414  24.179  15.649  1.00  0.00    -0.017 C 
HETATM    7  C9  UNL     1      18.806  23.251  16.601  1.00  0.00     0.022 C 
HETATM    8  C10 UNL     1      17.582  22.616  16.008  1.00  0.00     0.004 C 
HETATM    9  C11 UNL     1      16.757  23.514  15.159  1.00  0.00     0.011 C 
HETATM   10  C12 UNL     1      15.338  23.422  15.666  1.00  0.00    -0.007 C 
HETATM   11  C13 UNL     1      14.372  23.203  14.555  1.00  0.00     0.011 C 
HETATM   12  C14 UNL     1      15.282  22.474  16.805  1.00  0.00    -0.006 C 
HETATM   13  C15 UNL     1      14.508  23.078  17.992  1.00  0.00     0.019 C 
HETATM   14  C16 UNL     1      14.683  21.131  16.523  1.00  0.00     0.131 C 
HETATM   15  C28 UNL     1      15.483  20.226  17.485  1.00  0.00     0.034 C 
HETATM   16  C29 UNL     1      16.861  20.785  17.415  1.00  0.00     0.013 C 
HETATM   17  C30 UNL     1      16.726  22.260  17.201  1.00  0.00    -0.025 C 
HETATM   18  C31 UNL     1      17.192  23.085  18.346  1.00  0.00     0.021 C 
ENDROOT
BRANCH  14  19
HETATM   19  O2  UNL     1      13.382  21.066  17.011  1.00  0.00    -0.377 OA
BRANCH  19  20
HETATM   20  C17 UNL     1      12.930  19.773  17.248  1.00  0.00     0.153 C 
HETATM   21  C18 UNL     1      12.719  19.711  18.761  1.00  0.00     0.049 C 
HETATM   22  C19 UNL     1      12.280  18.326  19.185  1.00  0.00     0.011 C 
HETATM   23  C23 UNL     1      11.451  17.613  18.199  1.00  0.00     0.154 C 
HETATM   24  C24 UNL     1      10.850  18.387  17.084  1.00  0.00     0.145 C 
HETATM   25  C27 UNL     1      11.561  19.637  16.672  1.00  0.00     0.172 C 
BRANCH  22  26
HETATM   26  C20 UNL     1      11.695  18.469  20.564  1.00  0.00     0.010 C 
HETATM   27  C21 UNL     1      12.637  18.318  21.694  1.00  0.00     0.006 C 
ENDBRANCH  22  26
BRANCH  22  28
HETATM   28  C22 UNL     1      13.586  17.535  19.364  1.00  0.00     0.176 C 
BRANCH  28  29
HETATM   29  O3  UNL     1      14.433  17.665  18.295  1.00  0.00    -0.400 OA
ATOM     30  H3  UNL     1      14.565  18.570  18.040  1.00  0.00     0.209 HD
ENDBRANCH  28  29
ENDBRANCH  22  28
BRANCH  23  31
HETATM   31  O4  UNL     1      12.123  16.489  17.659  1.00  0.00    -0.393 OA
ATOM     32  H4  UNL     1      12.931  16.735  17.224  1.00  0.00     0.210 HD
ENDBRANCH  23  31
BRANCH  24  33
HETATM   33  N1  UNL     1      10.770  17.534  15.899  1.00  0.00    -0.352 N 
HETATM   34  C25 UNL     1      10.221  17.962  14.681  1.00  0.00     0.214 C 
HETATM   35  C26 UNL     1      10.177  17.041  13.532  1.00  0.00     0.117 C 
HETATM   36  O5  UNL     1       9.774  19.134  14.595  1.00  0.00    -0.274 OA
ATOM     37  H1  UNL     1      11.130  16.582  15.961  1.00  0.00     0.163 HD
ENDBRANCH  24  33
BRANCH  25  38
HETATM   38  O6  UNL     1      10.828  20.756  17.136  1.00  0.00    -0.391 OA
ATOM     39  H6  UNL     1      10.097  20.857  16.538  1.00  0.00     0.210 HD
ENDBRANCH  25  38
ENDBRANCH  19  20
ENDBRANCH  14  19
BRANCH   1  40
HETATM   40  C3  UNL     1      19.543  23.746  18.922  1.00  0.00     0.036 C 
BRANCH  40  41
HETATM   41  C2  UNL     1      19.116  23.385  20.261  1.00  0.00    -0.036 C 
HETATM   42  C1  UNL     1      19.201  24.263  21.242  1.00  0.00     0.007 C 
ENDBRANCH  40  41
ENDBRANCH   1  40
TORSDOF 10
ENDMDL
MODEL 2
REMARK VINA RESULT: -8.982859404      5.408     11.969
REMARK  10 active torsions:
REMARK  status: ('A' for Active; 'I' for Inactive)
REMARK    1  A    between atoms: C2_2  and  C3_3 
REMARK    2  A    between atoms: C3_3  and  C4_4 
REMARK    3  A    between atoms: C16_17  and  O2_18 
REMARK    4  A    between atoms: O2_18  and  C17_19 
REMARK    5  A    between atoms: C19_21  and  C20_22 
REMARK    6  A    between atoms: C19_21  and  C22_24 
REMARK    7  A    between atoms: C22_24  and  O3_25 
REMARK    8  A    between atoms: C23_27  and  O4_28 
REMARK    9  A    between atoms: C24_30  and  N1_31 
REMARK       I    between atoms: N1_31  and  C25_33 
REMARK   10  A    between atoms: C27_36  and  O6_37 
ROOT
HETATM    1  C4  UNL     1      17.384  23.893  16.081  1.00  0.00    -0.022 C 
HETATM    2  C5  UNL     1      16.441  24.530  17.084  1.00  0.00     0.093 C 
HETATM    3  C6  UNL     1      15.753  23.515  17.913  1.00  0.00     0.149 C 
HETATM    4  O1  UNL     1      14.530  23.537  18.187  1.00  0.00    -0.293 OA
HETATM    5  C7  UNL     1      16.568  22.424  18.435  1.00  0.00     0.046 C 
HETATM    6  C8  UNL     1      17.707  22.155  17.838  1.00  0.00    -0.017 C 
HETATM    7  C9  UNL     1      18.263  22.846  16.675  1.00  0.00     0.022 C 
HETATM    8  C10 UNL     1      19.574  23.488  17.022  1.00  0.00     0.004 C 
HETATM    9  C11 UNL     1      19.646  24.073  18.386  1.00  0.00     0.011 C 
HETATM   10  C12 UNL     1      20.131  25.495  18.232  1.00  0.00    -0.007 C 
HETATM   11  C13 UNL     1      21.242  25.800  19.174  1.00  0.00     0.011 C 
HETATM   12  C14 UNL     1      20.367  25.782  16.796  1.00  0.00    -0.006 C 
HETATM   13  C15 UNL     1      19.717  27.116  16.383  1.00  0.00     0.019 C 
HETATM   14  C16 UNL     1      21.797  25.830  16.354  1.00  0.00     0.131 C 
HETATM   15  C28 UNL     1      21.691  25.312  14.903  1.00  0.00     0.034 C 
HETATM   16  C29 UNL     1      20.668  24.235  14.999  1.00  0.00     0.013 C 
HETATM   17  C30 UNL     1      19.696  24.645  16.059  1.00  0.00    -0.025 C 
HETATM   18  C31 UNL     1      18.332  24.945  15.549  1.00  0.00     0.021 C 
ENDROOT
BRANCH  14  19
HETATM   19  O2  UNL     1      22.216  27.148  16.206  1.00  0.00    -0.377 OA
BRANCH  19  20
HETATM   20  C17 UNL     1      23.321  27.482  16.982  1.00  0.00     0.153 C 
HETATM   21  C18 UNL     1      24.193  26.225  16.967  1.00  0.00     0.049 C 
HETATM   22  C19 UNL     1      25.420  26.414  17.833  1.00  0.00     0.011 C 
HETATM   23  C23 UNL     1      25.943  27.790  17.868  1.00  0.00     0.154 C 
HETATM   24  C24 UNL     1      25.473  28.756  16.843  1.00  0.00     0.145 C 
HETATM   25  C27 UNL     1      24.123  28.504  16.249  1.00  0.00     0.172 C 
BRANCH  22  26
HETATM   26  C20 UNL     1      26.396  25.344  17.425  1.00  0.00     0.010 C 
HETATM   27  C21 UNL     1      27.255  25.650  16.261  1.00  0.00     0.006 C 
ENDBRANCH  22  26
BRANCH  22  28
HETATM   28  C22 UNL     1      24.963  26.046  19.254  1.00  0.00     0.176 C 
BRANCH  28  29
HETATM   29  O3  UNL     1      24.626  24.723  19.374  1.00  0.00    -0.400 OA
ATOM     30  H3  UNL     1      24.539  24.449  20.279  1.00  0.00     0.209 HD
ENDBRANCH  28  29
ENDBRANCH  22  28
BRANCH  23  31
HETATM   31  O4  UNL     1      25.792  28.379  19.147  1.00  0.00    -0.393 OA
ATOM     32  H4  UNL     1      26.574  28.847  19.416  1.00  0.00     0.210 HD
ENDBRANCH  23  31
BRANCH  24  33
HETATM   33  N1  UNL     1      25.435  30.095  17.430  1.00  0.00    -0.352 N 
HETATM   34  C25 UNL     1      25.639  31.265  16.684  1.00  0.00     0.214 C 
HETATM   35  C26 UNL     1      25.583  32.578  17.351  1.00  0.00     0.117 C 
HETATM   36  O5  UNL     1      25.866  31.169  15.452  1.00  0.00    -0.274 OA
ATOM     37  H1  UNL     1      25.251  30.181  18.429  1.00  0.00     0.163 HD
ENDBRANCH  24  33
BRANCH  25  38
HETATM   38  O6  UNL     1      24.287  28.005  14.934  1.00  0.00    -0.391 OA
ATOM     39  H6  UNL     1      23.416  27.776  14.630  1.00  0.00     0.210 HD
ENDBRANCH  25  38
ENDBRANCH  19  20
ENDBRANCH  14  19
BRANCH   1  40
HETATM   40  C3  UNL     1      16.496  23.327  14.995  1.00  0.00     0.036 C 
BRANCH  40  41
HETATM   41  C2  UNL     1      16.398  24.153  13.806  1.00  0.00    -0.036 C 
HETATM   42  C1  UNL     1      15.682  23.747  12.775  1.00  0.00     0.007 C 
ENDBRANCH  40  41
ENDBRANCH   1  40
TORSDOF 10
ENDMDL
MODEL 3
REMARK VINA RESULT: -8.886970406      2.852      4.346
REMARK  10 active torsions:
REMARK  status: ('A' for Active; 'I' for Inactive)
REMARK    1  A    between atoms: C2_2  and  C3_3 
REMARK    2  A    between atoms: C3_3  and  C4_4 
REMARK    3  A    between atoms: C16_17  and  O2_18 
REMARK    4  A    between atoms: O2_18  and  C17_19 
REMARK    5  A    between atoms: C19_21  and  C20_22 
REMARK    6  A    between atoms: C19_21  and  C22_24 
REMARK    7  A    between atoms: C22_24  and  O3_25 
REMARK    8  A    between atoms: C23_27  and  O4_28 
REMARK    9  A    between atoms: C24_30  and  N1_31 
REMARK       I    between atoms: N1_31  and  C25_33 
REMARK   10  A    between atoms: C27_36  and  O6_37 
ROOT
HETATM    1  C4  UNL     1      20.349  25.538  16.921  1.00  0.00    -0.022 C 
HETATM    2  C5  UNL     1      19.949  26.990  16.738  1.00  0.00     0.093 C 
HETATM    3  C6  UNL     1      20.887  27.710  15.848  1.00  0.00     0.149 C 
HETATM    4  O1  UNL     1      21.338  28.857  16.076  1.00  0.00    -0.293 OA
HETATM    5  C7  UNL     1      21.302  27.024  14.630  1.00  0.00     0.046 C 
HETATM    6  C8  UNL     1      21.189  25.716  14.581  1.00  0.00    -0.017 C 
HETATM    7  C9  UNL     1      20.678  24.848  15.642  1.00  0.00     0.022 C 
HETATM    8  C10 UNL     1      19.449  24.121  15.180  1.00  0.00     0.004 C 
HETATM    9  C11 UNL     1      18.538  24.913  14.315  1.00  0.00     0.011 C 
HETATM   10  C12 UNL     1      17.157  24.811  14.916  1.00  0.00    -0.007 C 
HETATM   11  C13 UNL     1      16.137  24.464  13.890  1.00  0.00     0.011 C 
HETATM   12  C14 UNL     1      17.209  23.958  16.129  1.00  0.00    -0.006 C 
HETATM   13  C15 UNL     1      16.483  24.629  17.310  1.00  0.00     0.019 C 
HETATM   14  C16 UNL     1      16.653  22.575  15.995  1.00  0.00     0.131 C 
HETATM   15  C28 UNL     1      17.546  21.784  16.974  1.00  0.00     0.034 C 
HETATM   16  C29 UNL     1      18.892  22.387  16.772  1.00  0.00     0.013 C 
HETATM   17  C30 UNL     1      18.682  23.833  16.449  1.00  0.00    -0.025 C 
HETATM   18  C31 UNL     1      19.181  24.767  17.493  1.00  0.00     0.021 C 
ENDROOT
BRANCH  14  19
HETATM   19  O2  UNL     1      15.387  22.502  16.568  1.00  0.00    -0.377 OA
BRANCH  19  20
HETATM   20  C17 UNL     1      14.358  22.330  15.648  1.00  0.00     0.153 C 
HETATM   21  C18 UNL     1      14.986  21.513  14.518  1.00  0.00     0.049 C 
HETATM   22  C19 UNL     1      13.993  21.295  13.398  1.00  0.00     0.011 C 
HETATM   23  C23 UNL     1      12.591  21.175  13.832  1.00  0.00     0.154 C 
HETATM   24  C24 UNL     1      12.310  20.939  15.270  1.00  0.00     0.145 C 
HETATM   25  C27 UNL     1      13.336  21.422  16.245  1.00  0.00     0.172 C 
BRANCH  22  26
HETATM   26  C20 UNL     1      14.529  20.160  12.569  1.00  0.00     0.010 C 
HETATM   27  C21 UNL     1      13.707  18.931  12.530  1.00  0.00     0.006 C 
ENDBRANCH  22  26
BRANCH  22  28
HETATM   28  C22 UNL     1      14.109  22.549  12.516  1.00  0.00     0.176 C 
BRANCH  28  29
HETATM   29  O3  UNL     1      14.885  22.345  11.406  1.00  0.00    -0.400 OA
ATOM     30  H3  UNL     1      14.386  22.027  10.663  1.00  0.00     0.209 HD
ENDBRANCH  28  29
ENDBRANCH  22  28
BRANCH  23  31
HETATM   31  O4  UNL     1      11.807  22.270  13.392  1.00  0.00    -0.393 OA
ATOM     32  H4  UNL     1      11.245  22.603  14.081  1.00  0.00     0.210 HD
ENDBRANCH  23  31
BRANCH  24  33
HETATM   33  N1  UNL     1      11.049  21.590  15.624  1.00  0.00    -0.352 N 
HETATM   34  C25 UNL     1       9.815  20.923  15.625  1.00  0.00     0.214 C 
HETATM   35  C26 UNL     1       8.589  21.651  15.995  1.00  0.00     0.117 C 
HETATM   36  O5  UNL     1       9.781  19.708  15.307  1.00  0.00    -0.274 OA
ATOM     37  H1  UNL     1      11.069  22.576  15.883  1.00  0.00     0.163 HD
ENDBRANCH  24  33
BRANCH  25  38
HETATM   38  O6  UNL     1      14.050  20.308  16.750  1.00  0.00    -0.391 OA
ATOM     39  H6  UNL     1      13.879  19.592  16.150  1.00  0.00     0.210 HD
ENDBRANCH  25  38
ENDBRANCH  19  20
ENDBRANCH  14  19
BRANCH   1  40
HETATM   40  C3  UNL     1      21.531  25.561  17.864  1.00  0.00     0.036 C 
BRANCH  40  41
HETATM   41  C2  UNL     1      21.189  25.803  19.254  1.00  0.00    -0.036 C 
HETATM   42  C1  UNL     1      21.420  26.982  19.797  1.00  0.00     0.007 C 
ENDBRANCH  40  41
ENDBRANCH   1  40
TORSDOF 10
ENDMDL
MODEL 4
REMARK VINA RESULT: -8.793134410      2.215      3.445
REMARK  10 active torsions:
REMARK  status: ('A' for Active; 'I' for Inactive)
REMARK    1  A    between atoms: C2_2  and  C3_3 
REMARK    2  A    between atoms: C3_3  and  C4_4 
REMARK    3  A    between atoms: C16_17  and  O2_18 
REMARK    4  A    between atoms: O2_18  and  C17_19 
REMARK    5  A    between atoms: C19_21  and  C20_22 
REMARK    6  A    between atoms: C19_21  and  C22_24 
REMARK    7  A    between atoms: C22_24  and  O3_25 
REMARK    8  A    between atoms: C23_27  and  O4_28 
REMARK    9  A    between atoms: C24_30  and  N1_31 
REMARK       I    between atoms: N1_31  and  C25_33 
REMARK   10  A    between atoms: C27_36  and  O6_37 
ROOT
HETATM    1  C4  UNL     1      20.329  26.082  17.425  1.00  0.00    -0.022 C 
HETATM    2  C5  UNL     1      19.584  27.100  16.582  1.00  0.00     0.093 C 
HETATM    3  C6  UNL     1      20.359  27.493  15.384  1.00  0.00     0.149 C 
HETATM    4  O1  UNL     1      20.489  28.673  14.982  1.00  0.00    -0.293 OA
HETATM    5  C7  UNL     1      21.007  26.423  14.634  1.00  0.00     0.046 C 
HETATM    6  C8  UNL     1      21.233  25.282  15.245  1.00  0.00    -0.017 C 
HETATM    7  C9  UNL     1      20.898  24.956  16.631  1.00  0.00     0.022 C 
HETATM    8  C10 UNL     1      19.925  23.816  16.684  1.00  0.00     0.004 C 
HETATM    9  C11 UNL     1      18.895  23.819  15.614  1.00  0.00     0.011 C 
HETATM   10  C12 UNL     1      17.552  23.687  16.291  1.00  0.00    -0.007 C 
HETATM   11  C13 UNL     1      16.716  22.635  15.650  1.00  0.00     0.011 C 
HETATM   12  C14 UNL     1      17.747  23.591  17.758  1.00  0.00    -0.006 C 
HETATM   13  C15 UNL     1      16.806  24.553  18.507  1.00  0.00     0.019 C 
HETATM   14  C16 UNL     1      17.571  22.234  18.366  1.00  0.00     0.131 C 
HETATM   15  C28 UNL     1      18.576  22.284  19.536  1.00  0.00     0.034 C 
HETATM   16  C29 UNL     1      19.734  23.022  18.961  1.00  0.00     0.013 C 
HETATM   17  C30 UNL     1      19.182  24.013  17.984  1.00  0.00    -0.025 C 
HETATM   18  C31 UNL     1      19.364  25.431  18.391  1.00  0.00     0.021 C 
ENDROOT
BRANCH  14  19
HETATM   19  O2  UNL     1      16.333  22.141  18.995  1.00  0.00    -0.377 OA
BRANCH  19  20
HETATM   20  C17 UNL     1      15.423  21.322  18.337  1.00  0.00     0.153 C 
HETATM   21  C18 UNL     1      14.746  20.526  19.454  1.00  0.00     0.049 C 
HETATM   22  C19 UNL     1      13.759  19.532  18.881  1.00  0.00     0.011 C 
HETATM   23  C23 UNL     1      13.087  19.972  17.647  1.00  0.00     0.154 C 
HETATM   24  C24 UNL     1      13.158  21.407  17.272  1.00  0.00     0.145 C 
HETATM   25  C27 UNL     1      14.338  22.176  17.774  1.00  0.00     0.172 C 
BRANCH  22  26
HETATM   26  C20 UNL     1      12.860  19.124  20.016  1.00  0.00     0.010 C 
HETATM   27  C21 UNL     1      13.530  18.742  21.278  1.00  0.00     0.006 C 
ENDBRANCH  22  26
BRANCH  22  28
HETATM   28  C22 UNL     1      14.599  18.289  18.544  1.00  0.00     0.176 C 
BRANCH  28  29
HETATM   29  O3  UNL     1      13.830  17.179  18.309  1.00  0.00    -0.400 OA
ATOM     30  H3  UNL     1      13.167  17.046  18.975  1.00  0.00     0.209 HD
ENDBRANCH  28  29
ENDBRANCH  22  28
BRANCH  23  31
HETATM   31  O4  UNL     1      13.474  19.192  16.529  1.00  0.00    -0.393 OA
ATOM     32  H4  UNL     1      12.728  18.944  15.996  1.00  0.00     0.210 HD
ENDBRANCH  23  31
BRANCH  24  33
HETATM   33  N1  UNL     1      13.167  21.519  15.814  1.00  0.00    -0.352 N 
HETATM   34  C25 UNL     1      13.169  22.749  15.140  1.00  0.00     0.214 C 
HETATM   35  C26 UNL     1      13.179  22.778  13.666  1.00  0.00     0.117 C 
HETATM   36  O5  UNL     1      13.164  23.811  15.812  1.00  0.00    -0.274 OA
ATOM     37  H1  UNL     1      13.171  20.663  15.261  1.00  0.00     0.163 HD
ENDBRANCH  24  33
BRANCH  25  38
HETATM   38  O6  UNL     1      13.919  23.023  18.828  1.00  0.00    -0.391 OA
ATOM     39  H6  UNL     1      14.215  23.895  18.598  1.00  0.00     0.210 HD
ENDBRANCH  25  38
ENDBRANCH  19  20
ENDBRANCH  14  19
BRANCH   1  40
HETATM   40  C3  UNL     1      21.409  26.863  18.141  1.00  0.00     0.036 C 
BRANCH  40  41
HETATM   41  C2  UNL     1      22.286  26.058  18.971  1.00  0.00    -0.036 C 
HETATM   42  C1  UNL     1      23.584  26.288  18.980  1.00  0.00     0.007 C 
ENDBRANCH  40  41
ENDBRANCH   1  40
TORSDOF 10
ENDMDL
MODEL 5
REMARK VINA RESULT: -8.769103936      5.062     11.706
REMARK  10 active torsions:
REMARK  status: ('A' for Active; 'I' for Inactive)
REMARK    1  A    between atoms: C2_2  and  C3_3 
REMARK    2  A    between atoms: C3_3  and  C4_4 
REMARK    3  A    between atoms: C16_17  and  O2_18 
REMARK    4  A    between atoms: O2_18  and  C17_19 
REMARK    5  A    between atoms: C19_21  and  C20_22 
REMARK    6  A    between atoms: C19_21  and  C22_24 
REMARK    7  A    between atoms: C22_24  and  O3_25 
REMARK    8  A    between atoms: C23_27  and  O4_28 
REMARK    9  A    between atoms: C24_30  and  N1_31 
REMARK       I    between atoms: N1_31  and  C25_33 
REMARK   10  A    between atoms: C27_36  and  O6_37 
ROOT
HETATM    1  C4  UNL     1      16.696  23.929  16.352  1.00  0.00    -0.022 C 
HETATM    2  C5  UNL     1      15.936  24.226  17.631  1.00  0.00     0.093 C 
HETATM    3  C6  UNL     1      15.218  23.033  18.132  1.00  0.00     0.149 C 
HETATM    4  O1  UNL     1      14.038  23.045  18.556  1.00  0.00    -0.293 OA
HETATM    5  C7  UNL     1      15.946  21.770  18.125  1.00  0.00     0.046 C 
HETATM    6  C8  UNL     1      16.983  21.653  17.326  1.00  0.00    -0.017 C 
HETATM    7  C9  UNL     1      17.501  22.676  16.418  1.00  0.00     0.022 C 
HETATM    8  C10 UNL     1      18.905  23.049  16.792  1.00  0.00     0.004 C 
HETATM    9  C11 UNL     1      19.177  23.092  18.251  1.00  0.00     0.011 C 
HETATM   10  C12 UNL     1      19.807  24.432  18.545  1.00  0.00    -0.007 C 
HETATM   11  C13 UNL     1      21.032  24.291  19.378  1.00  0.00     0.011 C 
HETATM   12  C14 UNL     1      19.935  25.203  17.284  1.00  0.00    -0.006 C 
HETATM   13  C15 UNL     1      19.408  26.640  17.457  1.00  0.00     0.019 C 
HETATM   14  C16 UNL     1      21.311  25.302  16.702  1.00  0.00     0.131 C 
HETATM   15  C28 UNL     1      21.005  25.356  15.189  1.00  0.00     0.034 C 
HETATM   16  C29 UNL     1      19.878  24.396  15.034  1.00  0.00     0.013 C 
HETATM   17  C30 UNL     1      19.067  24.464  16.290  1.00  0.00    -0.025 C 
HETATM   18  C31 UNL     1      17.705  25.029  16.103  1.00  0.00     0.021 C 
ENDROOT
BRANCH  14  19
HETATM   19  O2  UNL     1      21.865  26.549  16.973  1.00  0.00    -0.377 OA
BRANCH  19  20
HETATM   20  C17 UNL     1      23.251  26.541  17.084  1.00  0.00     0.153 C 
HETATM   21  C18 UNL     1      23.677  27.949  16.663  1.00  0.00     0.049 C 
HETATM   22  C19 UNL     1      25.185  28.077  16.672  1.00  0.00     0.011 C 
HETATM   23  C23 UNL     1      25.866  27.273  17.701  1.00  0.00     0.154 C 
HETATM   24  C24 UNL     1      25.058  26.706  18.810  1.00  0.00     0.145 C 
HETATM   25  C27 UNL     1      23.610  26.456  18.529  1.00  0.00     0.172 C 
BRANCH  22  26
HETATM   26  C20 UNL     1      25.486  29.552  16.676  1.00  0.00     0.010 C 
HETATM   27  C21 UNL     1      26.330  30.045  17.785  1.00  0.00     0.006 C 
ENDBRANCH  22  26
BRANCH  22  28
HETATM   28  C22 UNL     1      25.634  27.561  15.295  1.00  0.00     0.176 C 
BRANCH  28  29
HETATM   29  O3  UNL     1      26.814  28.122  14.880  1.00  0.00    -0.400 OA
ATOM     30  H3  UNL     1      27.450  27.473  14.605  1.00  0.00     0.209 HD
ENDBRANCH  28  29
ENDBRANCH  22  28
BRANCH  23  31
HETATM   31  O4  UNL     1      26.643  26.236  17.131  1.00  0.00    -0.393 OA
ATOM     32  H4  UNL     1      27.420  26.572  16.699  1.00  0.00     0.210 HD
ENDBRANCH  23  31
BRANCH  24  33
HETATM   33  N1  UNL     1      25.638  25.428  19.219  1.00  0.00    -0.352 N 
HETATM   34  C25 UNL     1      26.170  25.200  20.496  1.00  0.00     0.214 C 
HETATM   35  C26 UNL     1      26.737  23.881  20.830  1.00  0.00     0.117 C 
HETATM   36  O5  UNL     1      26.152  26.134  21.337  1.00  0.00    -0.274 OA
ATOM     37  H1  UNL     1      25.656  24.665  18.542  1.00  0.00     0.163 HD
ENDBRANCH  24  33
BRANCH  25  38
HETATM   38  O6  UNL     1      22.838  27.445  19.184  1.00  0.00    -0.391 OA
ATOM     39  H6  UNL     1      23.336  27.703  19.950  1.00  0.00     0.210 HD
ENDBRANCH  25  38
ENDBRANCH  19  20
ENDBRANCH  14  19
BRANCH   1  40
HETATM   40  C3  UNL     1      15.648  23.863  15.264  1.00  0.00     0.036 C 
BRANCH  40  41
HETATM   41  C2  UNL     1      16.113  23.297  14.011  1.00  0.00    -0.036 C 
HETATM   42  C1  UNL     1      15.392  22.386  13.388  1.00  0.00     0.007 C 
ENDBRANCH  40  41
ENDBRANCH   1  40
TORSDOF 10
ENDMDL
