MODEL 1
REMARK VINA RESULT: -10.238597926      0.000      0.000
REMARK  10 active torsions:
REMARK  status: ('A' for Active; 'I' for Inactive)
REMARK    1  A    between atoms: C8_8  and  O1_9 
REMARK    2  A    between atoms: C10_12  and  C11_13 
REMARK    3  A    between atoms: C11_13  and  C12_14 
REMARK    4  A    between atoms: C12_14  and  C13_15 
REMARK    5  A    between atoms: C13_15  and  O2_16 
REMARK    6  A    between atoms: C13_15  and  C14_18 
REMARK    7  A    between atoms: C15_19  and  C16_20 
REMARK    8  A    between atoms: N1_23  and  C19_24 
REMARK    9  A    between atoms: C19_24  and  C20_25 
REMARK   10  A    between atoms: C31_39  and  O6_40 
ROOT
HETATM    1  C1  UNL     1      21.750  24.113  19.620  1.00  0.00     0.018 C 
HETATM    2  C2  UNL     1      20.721  25.217  19.348  1.00  0.00    -0.014 C 
HETATM    3  C3  UNL     1      19.557  24.963  20.240  1.00  0.00     0.012 C 
HETATM    4  C4  UNL     1      18.793  23.751  19.683  1.00  0.00     0.007 C 
HETATM    5  C5  UNL     1      18.225  24.205  18.390  1.00  0.00    -0.001 C 
HETATM    6  C6  UNL     1      19.290  24.531  17.388  1.00  0.00    -0.003 C 
HETATM    7  C7  UNL     1      18.705  25.172  16.165  1.00  0.00     0.038 C 
HETATM    8  C8  UNL     1      17.492  24.528  15.621  1.00  0.00     0.127 C 
HETATM    9  C9  UNL     1      16.580  23.973  16.652  1.00  0.00     0.052 C 
HETATM   10  C10 UNL     1      15.423  23.240  16.072  1.00  0.00    -0.069 C 
HETATM   11  C23 UNL     1      14.965  22.190  16.718  1.00  0.00     0.053 C 
HETATM   12  C24 UNL     1      15.497  21.672  17.974  1.00  0.00     0.150 C 
HETATM   13  O5  UNL     1      15.304  20.496  18.356  1.00  0.00    -0.293 OA
HETATM   14  C25 UNL     1      16.289  22.672  18.759  1.00  0.00     0.093 C 
HETATM   15  C26 UNL     1      17.295  23.217  17.725  1.00  0.00    -0.024 C 
HETATM   16  C27 UNL     1      18.080  22.044  17.261  1.00  0.00     0.016 C 
HETATM   17  C28 UNL     1      20.412  25.352  17.903  1.00  0.00     0.001 C 
HETATM   18  C29 UNL     1      20.263  26.839  17.668  1.00  0.00     0.008 C 
HETATM   19  C30 UNL     1      21.458  27.361  18.479  1.00  0.00     0.033 C 
HETATM   20  C31 UNL     1      21.351  26.536  19.748  1.00  0.00     0.126 C 
ENDROOT
BRANCH  10  21
HETATM   21  C11 UNL     1      14.824  23.683  14.811  1.00  0.00     0.037 C 
BRANCH  21  22
HETATM   22  C12 UNL     1      15.314  23.004  13.584  1.00  0.00     0.040 C 
BRANCH  22  23
HETATM   23  C13 UNL     1      14.138  22.416  12.829  1.00  0.00     0.141 C 
BRANCH  23  24
HETATM   24  O2  UNL     1      14.515  22.061  11.529  1.00  0.00    -0.392 OA
ATOM     25  H2  UNL     1      13.868  21.485  11.138  1.00  0.00     0.210 HD
ENDBRANCH  23  24
BRANCH  23  26
HETATM   26  C14 UNL     1      13.649  21.172  13.517  1.00  0.00     0.001 C 
HETATM   27  C15 UNL     1      12.482  21.135  14.145  1.00  0.00    -0.023 C 
BRANCH  27  28
HETATM   28  C16 UNL     1      11.951  19.956  14.834  1.00  0.00     0.014 C 
HETATM   29  C17 UNL     1      11.510  20.252  16.250  1.00  0.00     0.052 C 
HETATM   30  C18 UNL     1      11.122  19.005  16.942  1.00  0.00     0.059 C 
HETATM   31  N1  UNL     1      10.461  18.021  16.207  1.00  0.00    -0.383 N 
HETATM   32  C21 UNL     1      10.392  18.092  14.797  1.00  0.00     0.123 C 
HETATM   33  C22 UNL     1      10.733  19.378  14.148  1.00  0.00     0.028 C 
BRANCH  31  34
HETATM   34  C19 UNL     1      10.337  16.738  16.777  1.00  0.00     0.234 C 
BRANCH  34  35
HETATM   35  C20 UNL     1       9.659  15.717  15.978  1.00  0.00     0.191 C 
HETATM   36  O3  UNL     1       8.403  15.658  15.968  1.00  0.00    -0.647 OA
HETATM   37  O4  UNL     1      10.389  14.805  15.224  1.00  0.00    -0.647 OA
ENDBRANCH  34  35
ENDBRANCH  31  34
ENDBRANCH  27  28
ENDBRANCH  23  26
ENDBRANCH  22  23
ENDBRANCH  21  22
ENDBRANCH  10  21
BRANCH   8  38
HETATM   38  O1  UNL     1      16.820  25.570  14.919  1.00  0.00    -0.395 OA
ATOM     39  H1  UNL     1      15.918  25.276  14.864  1.00  0.00     0.210 HD
ENDBRANCH   8  38
BRANCH  20  40
HETATM   40  O6  UNL     1      20.552  27.244  20.635  1.00  0.00    -0.395 OA
ATOM     41  H6  UNL     1      20.040  27.913  20.196  1.00  0.00     0.210 HD
ENDBRANCH  20  40
TORSDOF 10
ENDMDL
MODEL 2
REMARK VINA RESULT: -10.238364703      1.304      1.472
REMARK  10 active torsions:
REMARK  status: ('A' for Active; 'I' for Inactive)
REMARK    1  A    between atoms: C8_8  and  O1_9 
REMARK    2  A    between atoms: C10_12  and  C11_13 
REMARK    3  A    between atoms: C11_13  and  C12_14 
REMARK    4  A    between atoms: C12_14  and  C13_15 
REMARK    5  A    between atoms: C13_15  and  O2_16 
REMARK    6  A    between atoms: C13_15  and  C14_18 
REMARK    7  A    between atoms: C15_19  and  C16_20 
REMARK    8  A    between atoms: N1_23  and  C19_24 
REMARK    9  A    between atoms: C19_24  and  C20_25 
REMARK   10  A    between atoms: C31_39  and  O6_40 
ROOT
HETATM    1  C1  UNL     1      21.714  24.208  19.717  1.00  0.00     0.018 C 
HETATM    2  C2  UNL     1      21.021  25.404  19.052  1.00  0.00    -0.014 C 
HETATM    3  C3  UNL     1      19.735  25.620  19.768  1.00  0.00     0.012 C 
HETATM    4  C4  UNL     1      18.771  24.496  19.353  1.00  0.00     0.007 C 
HETATM    5  C5  UNL     1      18.484  24.734  17.917  1.00  0.00    -0.001 C 
HETATM    6  C6  UNL     1      19.706  24.580  17.064  1.00  0.00    -0.003 C 
HETATM    7  C7  UNL     1      19.441  25.015  15.654  1.00  0.00     0.038 C 
HETATM    8  C8  UNL     1      18.180  24.526  15.058  1.00  0.00     0.127 C 
HETATM    9  C9  UNL     1      17.046  24.438  16.013  1.00  0.00     0.052 C 
HETATM   10  C10 UNL     1      15.823  23.845  15.410  1.00  0.00    -0.069 C 
HETATM   11  C23 UNL     1      15.053  23.101  16.174  1.00  0.00     0.053 C 
HETATM   12  C24 UNL     1      15.293  22.800  17.581  1.00  0.00     0.150 C 
HETATM   13  O5  UNL     1      14.779  21.818  18.160  1.00  0.00    -0.293 OA
HETATM   14  C25 UNL     1      16.207  23.772  18.264  1.00  0.00     0.093 C 
HETATM   15  C26 UNL     1      17.428  23.831  17.324  1.00  0.00    -0.024 C 
HETATM   16  C27 UNL     1      17.956  22.444  17.253  1.00  0.00     0.016 C 
HETATM   17  C28 UNL     1      20.926  25.248  17.580  1.00  0.00     0.001 C 
HETATM   18  C29 UNL     1      21.168  26.632  17.020  1.00  0.00     0.008 C 
HETATM   19  C30 UNL     1      22.351  27.073  17.894  1.00  0.00     0.033 C 
HETATM   20  C31 UNL     1      21.900  26.619  19.270  1.00  0.00     0.126 C 
ENDROOT
BRANCH  10  21
HETATM   21  C11 UNL     1      15.500  24.087  14.002  1.00  0.00     0.037 C 
BRANCH  21  22
HETATM   22  C12 UNL     1      15.849  22.994  13.059  1.00  0.00     0.040 C 
BRANCH  22  23
HETATM   23  C13 UNL     1      14.584  22.467  12.407  1.00  0.00     0.141 C 
BRANCH  23  24
HETATM   24  O2  UNL     1      14.866  21.931  11.146  1.00  0.00    -0.392 OA
ATOM     25  H2  UNL     1      14.063  21.740  10.677  1.00  0.00     0.210 HD
ENDBRANCH  23  24
BRANCH  23  26
HETATM   26  C14 UNL     1      13.989  21.369  13.246  1.00  0.00     0.001 C 
HETATM   27  C15 UNL     1      12.783  21.480  13.785  1.00  0.00    -0.023 C 
BRANCH  27  28
HETATM   28  C16 UNL     1      12.148  20.449  14.610  1.00  0.00     0.014 C 
HETATM   29  C17 UNL     1      12.163  20.785  16.085  1.00  0.00     0.052 C 
HETATM   30  C18 UNL     1      11.644  19.651  16.878  1.00  0.00     0.059 C 
HETATM   31  N1  UNL     1      10.589  18.906  16.353  1.00  0.00    -0.383 N 
HETATM   32  C21 UNL     1      10.196  19.056  15.003  1.00  0.00     0.123 C 
HETATM   33  C22 UNL     1      10.692  20.238  14.262  1.00  0.00     0.028 C 
BRANCH  31  34
HETATM   34  C19 UNL     1      10.278  17.674  16.963  1.00  0.00     0.234 C 
BRANCH  34  35
HETATM   35  C20 UNL     1      10.988  17.345  18.200  1.00  0.00     0.191 C 
HETATM   36  O3  UNL     1      11.948  16.533  18.175  1.00  0.00    -0.647 OA
HETATM   37  O4  UNL     1      10.614  17.921  19.408  1.00  0.00    -0.647 OA
ENDBRANCH  34  35
ENDBRANCH  31  34
ENDBRANCH  27  28
ENDBRANCH  23  26
ENDBRANCH  22  23
ENDBRANCH  21  22
ENDBRANCH  10  21
BRANCH   8  38
HETATM   38  O1  UNL     1      17.866  25.485  14.052  1.00  0.00    -0.395 OA
ATOM     39  H1  UNL     1      16.994  25.247  13.761  1.00  0.00     0.210 HD
ENDBRANCH   8  38
BRANCH  20  40
HETATM   40  O6  UNL     1      21.198  27.669  19.844  1.00  0.00    -0.395 OA
ATOM     41  H6  UNL     1      20.405  27.873  19.360  1.00  0.00     0.210 HD
ENDBRANCH  20  40
TORSDOF 10
ENDMDL
MODEL 3
REMARK VINA RESULT: -10.011059252      2.169      4.204
REMARK  10 active torsions:
REMARK  status: ('A' for Active; 'I' for Inactive)
REMARK    1  A    between atoms: C8_8  and  O1_9 
REMARK    2  A    between atoms: C10_12  and  C11_13 
REMARK    3  A    between atoms: C11_13  and  C12_14 
REMARK    4  A    between atoms: C12_14  and  C13_15 
REMARK    5  A    between atoms: C13_15  and  O2_16 
REMARK    6  A    between atoms: C13_15  and  C14_18 
REMARK    7  A    between atoms: C15_19  and  C16_20 
REMARK    8  A    between atoms: N1_23  and  C19_24 
REMARK    9  A    between atoms: C19_24  and  C20_25 
REMARK   10  A    between atoms: C31_39  and  O6_40 
ROOT
HETATM    1  C1  UNL     1      19.926  27.341  15.088  1.00  0.00     0.018 C 
HETATM    2  C2  UNL     1      20.642  26.296  15.952  1.00  0.00    -0.014 C 
HETATM    3  C3  UNL     1      20.599  25.007  15.209  1.00  0.00     0.012 C 
HETATM    4  C4  UNL     1      19.162  24.468  15.284  1.00  0.00     0.007 C 
HETATM    5  C5  UNL     1      18.946  24.123  16.711  1.00  0.00    -0.001 C 
HETATM    6  C6  UNL     1      18.992  25.331  17.597  1.00  0.00    -0.003 C 
HETATM    7  C7  UNL     1      18.970  24.942  19.045  1.00  0.00     0.038 C 
HETATM    8  C8  UNL     1      17.976  23.913  19.418  1.00  0.00     0.127 C 
HETATM    9  C9  UNL     1      17.760  22.869  18.385  1.00  0.00     0.052 C 
HETATM   10  C10 UNL     1      16.681  21.911  18.744  1.00  0.00    -0.069 C 
HETATM   11  C23 UNL     1      15.935  21.425  17.776  1.00  0.00     0.053 C 
HETATM   12  C24 UNL     1      16.072  21.746  16.360  1.00  0.00     0.150 C 
HETATM   13  O5  UNL     1      15.145  21.581  15.536  1.00  0.00    -0.293 OA
HETATM   14  C25 UNL     1      17.417  22.287  15.985  1.00  0.00     0.093 C 
HETATM   15  C26 UNL     1      17.638  23.424  17.003  1.00  0.00    -0.024 C 
HETATM   16  C27 UNL     1      16.518  24.379  16.798  1.00  0.00     0.016 C 
HETATM   17  C28 UNL     1      20.118  26.261  17.339  1.00  0.00     0.001 C 
HETATM   18  C29 UNL     1      21.331  26.037  18.215  1.00  0.00     0.008 C 
HETATM   19  C30 UNL     1      22.322  27.007  17.554  1.00  0.00     0.033 C 
HETATM   20  C31 UNL     1      22.090  26.725  16.081  1.00  0.00     0.126 C 
ENDROOT
BRANCH  10  21
HETATM   21  C11 UNL     1      16.464  21.531  20.141  1.00  0.00     0.037 C 
BRANCH  21  22
HETATM   22  C12 UNL     1      15.071  21.166  20.506  1.00  0.00     0.040 C 
BRANCH  22  23
HETATM   23  C13 UNL     1      15.020  19.704  20.906  1.00  0.00     0.141 C 
BRANCH  23  24
HETATM   24  O2  UNL     1      14.335  19.547  22.116  1.00  0.00    -0.392 OA
ATOM     25  H2  UNL     1      13.497  19.123  21.974  1.00  0.00     0.210 HD
ENDBRANCH  23  24
BRANCH  23  26
HETATM   26  C14 UNL     1      14.288  18.906  19.862  1.00  0.00     0.001 C 
HETATM   27  C15 UNL     1      13.141  19.321  19.344  1.00  0.00    -0.023 C 
BRANCH  27  28
HETATM   28  C16 UNL     1      12.381  18.591  18.326  1.00  0.00     0.014 C 
HETATM   29  C17 UNL     1      11.596  17.431  18.898  1.00  0.00     0.052 C 
HETATM   30  C18 UNL     1      10.969  16.647  17.814  1.00  0.00     0.059 C 
HETATM   31  N1  UNL     1      10.474  17.333  16.705  1.00  0.00    -0.383 N 
HETATM   32  C21 UNL     1      10.787  18.695  16.495  1.00  0.00     0.123 C 
HETATM   33  C22 UNL     1      11.359  19.459  17.626  1.00  0.00     0.028 C 
BRANCH  31  34
HETATM   34  C19 UNL     1      10.131  16.584  15.561  1.00  0.00     0.234 C 
BRANCH  34  35
HETATM   35  C20 UNL     1       9.459  15.303  15.779  1.00  0.00     0.191 C 
HETATM   36  O3  UNL     1       8.225  15.275  16.024  1.00  0.00    -0.647 OA
HETATM   37  O4  UNL     1      10.168  14.110  15.720  1.00  0.00    -0.647 OA
ENDBRANCH  34  35
ENDBRANCH  31  34
ENDBRANCH  27  28
ENDBRANCH  23  26
ENDBRANCH  22  23
ENDBRANCH  21  22
ENDBRANCH  10  21
BRANCH   8  38
HETATM   38  O1  UNL     1      18.515  23.306  20.588  1.00  0.00    -0.395 OA
ATOM     39  H1  UNL     1      18.646  22.396  20.344  1.00  0.00     0.210 HD
ENDBRANCH   8  38
BRANCH  20  40
HETATM   40  O6  UNL     1      22.965  25.715  15.709  1.00  0.00    -0.395 OA
ATOM     41  H6  UNL     1      22.541  25.061  15.165  1.00  0.00     0.210 HD
ENDBRANCH  20  40
TORSDOF 10
ENDMDL
MODEL 4
REMARK VINA RESULT: -9.925422001      2.111      3.949
REMARK  10 active torsions:
REMARK  status: ('A' for Active; 'I' for Inactive)
REMARK    1  A    between atoms: C8_8  and  O1_9 
REMARK    2  A    between atoms: C10_12  and  C11_13 
REMARK    3  A    between atoms: C11_13  and  C12_14 
REMARK    4  A    between atoms: C12_14  and  C13_15 
REMARK    5  A    between atoms: C13_15  and  O2_16 
REMARK    6  A    between atoms: C13_15  and  C14_18 
REMARK    7  A    between atoms: C15_19  and  C16_20 
REMARK    8  A    between atoms: N1_23  and  C19_24 
REMARK    9  A    between atoms: C19_24  and  C20_25 
REMARK   10  A    between atoms: C31_39  and  O6_40 
ROOT
HETATM    1  C1  UNL     1      20.976  27.549  14.012  1.00  0.00     0.018 C 
HETATM    2  C2  UNL     1      21.244  26.557  15.151  1.00  0.00    -0.014 C 
HETATM    3  C3  UNL     1      21.160  25.189  14.571  1.00  0.00     0.012 C 
HETATM    4  C4  UNL     1      19.679  24.883  14.301  1.00  0.00     0.007 C 
HETATM    5  C5  UNL     1      19.044  24.798  15.639  1.00  0.00    -0.001 C 
HETATM    6  C6  UNL     1      19.080  26.108  16.365  1.00  0.00    -0.003 C 
HETATM    7  C7  UNL     1      18.616  25.955  17.783  1.00  0.00     0.038 C 
HETATM    8  C8  UNL     1      17.390  25.152  17.974  1.00  0.00     0.127 C 
HETATM    9  C9  UNL     1      17.261  24.003  17.043  1.00  0.00     0.052 C 
HETATM   10  C10 UNL     1      15.971  23.279  17.189  1.00  0.00    -0.069 C 
HETATM   11  C23 UNL     1      15.422  22.762  16.110  1.00  0.00     0.053 C 
HETATM   12  C24 UNL     1      15.975  22.837  14.762  1.00  0.00     0.150 C 
HETATM   13  O5  UNL     1      15.277  22.683  13.736  1.00  0.00    -0.293 OA
HETATM   14  C25 UNL     1      17.447  23.113  14.721  1.00  0.00     0.093 C 
HETATM   15  C26 UNL     1      17.601  24.350  15.629  1.00  0.00    -0.024 C 
HETATM   16  C27 UNL     1      16.764  25.413  15.016  1.00  0.00     0.016 C 
HETATM   17  C28 UNL     1      20.384  26.814  16.331  1.00  0.00     0.001 C 
HETATM   18  C29 UNL     1      21.269  26.555  17.530  1.00  0.00     0.008 C 
HETATM   19  C30 UNL     1      22.556  27.256  17.070  1.00  0.00     0.033 C 
HETATM   20  C31 UNL     1      22.663  26.787  15.631  1.00  0.00     0.126 C 
ENDROOT
BRANCH  10  21
HETATM   21  C11 UNL     1      15.336  23.155  18.503  1.00  0.00     0.037 C 
BRANCH  21  22
HETATM   22  C12 UNL     1      14.318  22.082  18.634  1.00  0.00     0.040 C 
BRANCH  22  23
HETATM   23  C13 UNL     1      15.002  20.781  19.010  1.00  0.00     0.141 C 
BRANCH  23  24
HETATM   24  O2  UNL     1      15.042  20.628  20.400  1.00  0.00    -0.392 OA
ATOM     25  H2  UNL     1      15.939  20.551  20.703  1.00  0.00     0.210 HD
ENDBRANCH  23  24
BRANCH  23  26
HETATM   26  C14 UNL     1      14.242  19.613  18.444  1.00  0.00     0.001 C 
HETATM   27  C15 UNL     1      12.920  19.621  18.351  1.00  0.00    -0.023 C 
BRANCH  27  28
HETATM   28  C16 UNL     1      12.123  18.516  17.811  1.00  0.00     0.014 C 
HETATM   29  C17 UNL     1      11.465  17.685  18.890  1.00  0.00     0.052 C 
HETATM   30  C18 UNL     1      10.797  16.506  18.298  1.00  0.00     0.059 C 
HETATM   31  N1  UNL     1      10.166  16.656  17.064  1.00  0.00    -0.383 N 
HETATM   32  C21 UNL     1      10.373  17.813  16.278  1.00  0.00     0.123 C 
HETATM   33  C22 UNL     1      10.992  18.991  16.926  1.00  0.00     0.028 C 
BRANCH  31  34
HETATM   34  C19 UNL     1       9.774  15.491  16.373  1.00  0.00     0.234 C 
BRANCH  34  35
HETATM   35  C20 UNL     1       8.427  14.983  16.635  1.00  0.00     0.191 C 
HETATM   36  O3  UNL     1       7.553  15.025  15.732  1.00  0.00    -0.647 OA
HETATM   37  O4  UNL     1       8.098  14.451  17.876  1.00  0.00    -0.647 OA
ENDBRANCH  34  35
ENDBRANCH  31  34
ENDBRANCH  27  28
ENDBRANCH  23  26
ENDBRANCH  22  23
ENDBRANCH  21  22
ENDBRANCH  10  21
BRANCH   8  38
HETATM   38  O1  UNL     1      17.491  24.661  19.307  1.00  0.00    -0.395 OA
ATOM     39  H1  UNL     1      16.591  24.511  19.573  1.00  0.00     0.210 HD
ENDBRANCH   8  38
BRANCH  20  40
HETATM   40  O6  UNL     1      23.406  25.615  15.631  1.00  0.00    -0.395 OA
ATOM     41  H6  UNL     1      23.109  25.007  14.964  1.00  0.00     0.210 HD
ENDBRANCH  20  40
TORSDOF 10
ENDMDL
MODEL 5
REMARK VINA RESULT: -9.883077387      0.888      1.378
REMARK  10 active torsions:
REMARK  status: ('A' for Active; 'I' for Inactive)
REMARK    1  A    between atoms: C8_8  and  O1_9 
REMARK    2  A    between atoms: C10_12  and  C11_13 
REMARK    3  A    between atoms: C11_13  and  C12_14 
REMARK    4  A    between atoms: C12_14  and  C13_15 
REMARK    5  A    between atoms: C13_15  and  O2_16 
REMARK    6  A    between atoms: C13_15  and  C14_18 
REMARK    7  A    between atoms: C15_19  and  C16_20 
REMARK    8  A    between atoms: N1_23  and  C19_24 
REMARK    9  A    between atoms: C19_24  and  C20_25 
REMARK   10  A    between atoms: C31_39  and  O6_40 
ROOT
HETATM    1  C1  UNL     1      21.699  24.044  19.522  1.00  0.00     0.018 C 
HETATM    2  C2  UNL     1      20.663  25.149  19.278  1.00  0.00    -0.014 C 
HETATM    3  C3  UNL     1      19.550  24.927  20.240  1.00  0.00     0.012 C 
HETATM    4  C4  UNL     1      18.748  23.707  19.758  1.00  0.00     0.007 C 
HETATM    5  C5  UNL     1      18.111  24.133  18.488  1.00  0.00    -0.001 C 
HETATM    6  C6  UNL     1      19.120  24.425  17.420  1.00  0.00    -0.003 C 
HETATM    7  C7  UNL     1      18.472  25.039  16.215  1.00  0.00     0.038 C 
HETATM    8  C8  UNL     1      17.227  24.390  15.756  1.00  0.00     0.127 C 
HETATM    9  C9  UNL     1      16.370  23.869  16.851  1.00  0.00     0.052 C 
HETATM   10  C10 UNL     1      15.178  23.131  16.355  1.00  0.00    -0.069 C 
HETATM   11  C23 UNL     1      14.750  22.101  17.053  1.00  0.00     0.053 C 
HETATM   12  C24 UNL     1      15.348  21.611  18.290  1.00  0.00     0.150 C 
HETATM   13  O5  UNL     1      15.169  20.447  18.713  1.00  0.00    -0.293 OA
HETATM   14  C25 UNL     1      16.189  22.624  19.003  1.00  0.00     0.093 C 
HETATM   15  C26 UNL     1      17.139  23.135  17.901  1.00  0.00    -0.024 C 
HETATM   16  C27 UNL     1      17.890  21.945  17.425  1.00  0.00     0.016 C 
HETATM   17  C28 UNL     1      20.275  25.250  17.850  1.00  0.00     0.001 C 
HETATM   18  C29 UNL     1      20.123  26.731  17.585  1.00  0.00     0.008 C 
HETATM   19  C30 UNL     1      21.365  27.264  18.314  1.00  0.00     0.033 C 
HETATM   20  C31 UNL     1      21.323  26.473  19.608  1.00  0.00     0.126 C 
ENDROOT
BRANCH  10  21
HETATM   21  C11 UNL     1      14.512  23.546  15.118  1.00  0.00     0.037 C 
BRANCH  21  22
HETATM   22  C12 UNL     1      13.067  23.218  15.017  1.00  0.00     0.040 C 
BRANCH  22  23
HETATM   23  C13 UNL     1      12.835  22.328  13.810  1.00  0.00     0.141 C 
BRANCH  23  24
HETATM   24  O2  UNL     1      14.025  22.145  13.097  1.00  0.00    -0.392 OA
ATOM     25  H2  UNL     1      14.275  21.228  13.094  1.00  0.00     0.210 HD
ENDBRANCH  23  24
BRANCH  23  26
HETATM   26  C14 UNL     1      12.354  20.973  14.250  1.00  0.00     0.001 C 
HETATM   27  C15 UNL     1      11.093  20.761  14.602  1.00  0.00    -0.023 C 
BRANCH  27  28
HETATM   28  C16 UNL     1      10.564  19.466  15.039  1.00  0.00     0.014 C 
HETATM   29  C17 UNL     1      10.923  18.337  14.099  1.00  0.00     0.052 C 
HETATM   30  C18 UNL     1      10.245  17.089  14.508  1.00  0.00     0.059 C 
HETATM   31  N1  UNL     1      10.104  16.832  15.871  1.00  0.00    -0.383 N 
HETATM   32  C21 UNL     1      10.361  17.837  16.831  1.00  0.00     0.123 C 
HETATM   33  C22 UNL     1      11.094  19.046  16.391  1.00  0.00     0.028 C 
BRANCH  31  34
HETATM   34  C19 UNL     1       9.227  15.799  16.264  1.00  0.00     0.234 C 
BRANCH  34  35
HETATM   35  C20 UNL     1       9.832  14.585  16.812  1.00  0.00     0.191 C 
HETATM   36  O3  UNL     1      10.348  13.736  16.040  1.00  0.00    -0.647 OA
HETATM   37  O4  UNL     1       9.845  14.354  18.182  1.00  0.00    -0.647 OA
ENDBRANCH  34  35
ENDBRANCH  31  34
ENDBRANCH  27  28
ENDBRANCH  23  26
ENDBRANCH  22  23
ENDBRANCH  21  22
ENDBRANCH  10  21
BRANCH   8  38
HETATM   38  O1  UNL     1      16.524  25.419  15.066  1.00  0.00    -0.395 OA
ATOM     39  H1  UNL     1      16.224  25.006  14.264  1.00  0.00     0.210 HD
ENDBRANCH   8  38
BRANCH  20  40
HETATM   40  O6  UNL     1      20.580  27.209  20.520  1.00  0.00    -0.395 OA
ATOM     41  H6  UNL     1      20.891  28.104  20.591  1.00  0.00     0.210 HD
ENDBRANCH  20  40
TORSDOF 10
ENDMDL
