MODEL 1
REMARK VINA RESULT: -10.259287862      0.000      0.000
REMARK  11 active torsions:
REMARK  status: ('A' for Active; 'I' for Inactive)
REMARK    1  A    between atoms: C2_2  and  N1_3 
REMARK    2  A    between atoms: N1_3  and  C4_6 
REMARK    3  A    between atoms: C4_6  and  C5_7 
REMARK    4  A    between atoms: C5_7  and  N2_8 
REMARK       I    between atoms: N2_8  and  C6_10 
REMARK    5  A    between atoms: C6_10  and  C7_12 
REMARK    6  A    between atoms: C7_12  and  C8_13 
REMARK    7  A    between atoms: C8_13  and  O3_14 
REMARK    8  A    between atoms: O3_14  and  C9_15 
REMARK    9  A    between atoms: C13_19  and  O4_20 
REMARK   10  A    between atoms: C21_29  and  O5_30 
REMARK   11  A    between atoms: C28_38  and  O6_39 
ROOT
HETATM    1  C9  UNL     1      17.385  24.318  16.118  1.00  0.00     0.064 C 
HETATM    2  C10 UNL     1      17.384  25.401  17.108  1.00  0.00     0.046 C 
HETATM    3  C11 UNL     1      18.418  23.239  16.340  1.00  0.00     0.041 C 
HETATM    4  C12 UNL     1      17.843  21.911  16.726  1.00  0.00     0.035 C 
HETATM    5  C13 UNL     1      16.626  22.181  17.581  1.00  0.00     0.127 C 
HETATM    6  C14 UNL     1      15.487  22.799  16.854  1.00  0.00    -0.005 C 
HETATM    7  C15 UNL     1      14.744  23.676  17.889  1.00  0.00     0.019 C 
HETATM    8  C16 UNL     1      14.432  21.895  16.321  1.00  0.00     0.005 C 
HETATM    9  C17 UNL     1      13.988  20.816  17.273  1.00  0.00     0.033 C 
HETATM   10  C18 UNL     1      12.636  20.369  16.841  1.00  0.00    -0.023 C 
HETATM   11  C19 UNL     1      12.354  20.417  15.555  1.00  0.00    -0.072 C 
HETATM   12  C20 UNL     1      10.994  19.964  15.147  1.00  0.00     0.066 C 
HETATM   13  C21 UNL     1      10.409  20.866  14.090  1.00  0.00     0.122 C 
HETATM   14  C22 UNL     1      11.125  22.191  14.174  1.00  0.00     0.033 C 
HETATM   15  C23 UNL     1      12.590  22.080  13.844  1.00  0.00     0.016 C 
HETATM   16  C24 UNL     1      13.258  20.880  14.477  1.00  0.00    -0.017 C 
HETATM   17  C25 UNL     1      13.492  19.821  13.419  1.00  0.00     0.020 C 
HETATM   18  C26 UNL     1      14.650  21.237  15.021  1.00  0.00     0.005 C 
HETATM   19  C27 UNL     1      15.362  22.010  13.981  1.00  0.00     0.038 C 
HETATM   20  C28 UNL     1      16.194  23.127  14.426  1.00  0.00     0.126 C 
HETATM   21  C29 UNL     1      16.025  23.699  15.792  1.00  0.00     0.059 C 
ENDROOT
BRANCH   1  22
HETATM   22  O3  UNL     1      17.780  24.951  14.907  1.00  0.00    -0.380 OA
BRANCH  22  23
HETATM   23  C8  UNL     1      19.132  24.940  14.723  1.00  0.00     0.178 C 
BRANCH  23  24
HETATM   24  C7  UNL     1      19.542  26.131  13.844  1.00  0.00     0.129 C 
BRANCH  24  25
HETATM   25  C6  UNL     1      20.290  27.116  14.705  1.00  0.00     0.219 C 
HETATM   26  N2  UNL     1      21.408  26.661  15.433  1.00  0.00    -0.359 N 
ATOM     27  H2  UNL     1      21.667  25.677  15.354  1.00  0.00     0.162 HD
HETATM   28  O2  UNL     1      19.925  28.312  14.769  1.00  0.00    -0.274 OA
BRANCH  26  29
HETATM   29  C5  UNL     1      22.205  27.511  16.287  1.00  0.00     0.159 C 
BRANCH  29  30
HETATM   30  C4  UNL     1      22.607  26.790  17.545  1.00  0.00     0.331 C 
BRANCH  30  31
HETATM   31  N1  UNL     1      21.456  26.809  18.456  1.00  0.00     0.011 N 
HETATM   32  C3  UNL     1      21.966  27.153  19.768  1.00  0.00     0.356 C 
HETATM   33  O1  UNL     1      20.649  27.809  18.035  1.00  0.00    -0.065 OA
BRANCH  31  34
HETATM   34  C2  UNL     1      20.799  25.529  18.468  1.00  0.00     0.307 C 
HETATM   35  C1  UNL     1      20.344  25.205  19.890  1.00  0.00     0.043 C 
ENDBRANCH  31  34
ENDBRANCH  30  31
ENDBRANCH  29  30
ENDBRANCH  26  29
ENDBRANCH  24  25
ENDBRANCH  23  24
ENDBRANCH  22  23
ENDBRANCH   1  22
BRANCH  20  36
HETATM   36  O6  UNL     1      16.017  24.206  13.513  1.00  0.00    -0.395 OA
ATOM     37  H6  UNL     1      15.985  23.848  12.634  1.00  0.00     0.210 HD
ENDBRANCH  20  36
BRANCH   5  38
HETATM   38  O4  UNL     1      16.371  21.076  18.342  1.00  0.00    -0.395 OA
ATOM     39  H4  UNL     1      15.735  20.534  17.889  1.00  0.00     0.210 HD
ENDBRANCH   5  38
BRANCH  13  40
HETATM   40  O5  UNL     1       9.056  21.107  14.329  1.00  0.00    -0.395 OA
ATOM     41  H5  UNL     1       8.630  21.457  13.555  1.00  0.00     0.210 HD
ENDBRANCH  13  40
TORSDOF 11
ENDMDL
MODEL 2
REMARK VINA RESULT: -10.049576899      1.178      1.807
REMARK  11 active torsions:
REMARK  status: ('A' for Active; 'I' for Inactive)
REMARK    1  A    between atoms: C2_2  and  N1_3 
REMARK    2  A    between atoms: N1_3  and  C4_6 
REMARK    3  A    between atoms: C4_6  and  C5_7 
REMARK    4  A    between atoms: C5_7  and  N2_8 
REMARK       I    between atoms: N2_8  and  C6_10 
REMARK    5  A    between atoms: C6_10  and  C7_12 
REMARK    6  A    between atoms: C7_12  and  C8_13 
REMARK    7  A    between atoms: C8_13  and  O3_14 
REMARK    8  A    between atoms: O3_14  and  C9_15 
REMARK    9  A    between atoms: C13_19  and  O4_20 
REMARK   10  A    between atoms: C21_29  and  O5_30 
REMARK   11  A    between atoms: C28_38  and  O6_39 
ROOT
HETATM    1  C9  UNL     1      17.346  24.266  16.177  1.00  0.00     0.064 C 
HETATM    2  C10 UNL     1      17.345  25.339  17.177  1.00  0.00     0.046 C 
HETATM    3  C11 UNL     1      18.373  23.179  16.395  1.00  0.00     0.041 C 
HETATM    4  C12 UNL     1      17.789  21.851  16.767  1.00  0.00     0.035 C 
HETATM    5  C13 UNL     1      16.567  22.120  17.617  1.00  0.00     0.127 C 
HETATM    6  C14 UNL     1      15.437  22.749  16.889  1.00  0.00    -0.005 C 
HETATM    7  C15 UNL     1      14.691  23.621  17.926  1.00  0.00     0.019 C 
HETATM    8  C16 UNL     1      14.380  21.856  16.341  1.00  0.00     0.005 C 
HETATM    9  C17 UNL     1      13.924  20.772  17.282  1.00  0.00     0.033 C 
HETATM   10  C18 UNL     1      12.573  20.335  16.838  1.00  0.00    -0.023 C 
HETATM   11  C19 UNL     1      12.299  20.396  15.550  1.00  0.00    -0.072 C 
HETATM   12  C20 UNL     1      10.939  19.953  15.131  1.00  0.00     0.066 C 
HETATM   13  C21 UNL     1      10.365  20.867  14.077  1.00  0.00     0.122 C 
HETATM   14  C22 UNL     1      11.087  22.187  14.177  1.00  0.00     0.033 C 
HETATM   15  C23 UNL     1      12.554  22.072  13.855  1.00  0.00     0.016 C 
HETATM   16  C24 UNL     1      13.212  20.863  14.482  1.00  0.00    -0.017 C 
HETATM   17  C25 UNL     1      13.447  19.812  13.416  1.00  0.00     0.020 C 
HETATM   18  C26 UNL     1      14.602  21.209  15.037  1.00  0.00     0.005 C 
HETATM   19  C27 UNL     1      15.325  21.987  14.008  1.00  0.00     0.038 C 
HETATM   20  C28 UNL     1      16.159  23.095  14.468  1.00  0.00     0.126 C 
HETATM   21  C29 UNL     1      15.985  23.656  15.838  1.00  0.00     0.059 C 
ENDROOT
BRANCH   1  22
HETATM   22  O3  UNL     1      17.752  24.906  14.974  1.00  0.00    -0.380 OA
BRANCH  22  23
HETATM   23  C8  UNL     1      19.090  25.170  14.941  1.00  0.00     0.178 C 
BRANCH  23  24
HETATM   24  C7  UNL     1      19.331  26.539  14.289  1.00  0.00     0.129 C 
BRANCH  24  25
HETATM   25  C6  UNL     1      20.137  27.381  15.245  1.00  0.00     0.219 C 
HETATM   26  N2  UNL     1      20.845  26.734  16.279  1.00  0.00    -0.359 N 
ATOM     27  H2  UNL     1      20.782  25.718  16.344  1.00  0.00     0.162 HD
HETATM   28  O2  UNL     1      20.176  28.625  15.121  1.00  0.00    -0.274 OA
BRANCH  26  29
HETATM   29  C5  UNL     1      21.655  27.433  17.251  1.00  0.00     0.159 C 
BRANCH  29  30
HETATM   30  C4  UNL     1      22.800  26.577  17.716  1.00  0.00     0.331 C 
BRANCH  30  31
HETATM   31  N1  UNL     1      23.917  26.781  16.786  1.00  0.00     0.011 N 
HETATM   32  C3  UNL     1      25.087  26.188  17.401  1.00  0.00     0.356 C 
HETATM   33  O1  UNL     1      23.619  26.079  15.668  1.00  0.00    -0.065 OA
BRANCH  31  34
HETATM   34  C2  UNL     1      24.112  28.183  16.529  1.00  0.00     0.307 C 
HETATM   35  C1  UNL     1      25.428  28.384  15.781  1.00  0.00     0.043 C 
ENDBRANCH  31  34
ENDBRANCH  30  31
ENDBRANCH  29  30
ENDBRANCH  26  29
ENDBRANCH  24  25
ENDBRANCH  23  24
ENDBRANCH  22  23
ENDBRANCH   1  22
BRANCH  20  36
HETATM   36  O6  UNL     1      15.993  24.183  13.563  1.00  0.00    -0.395 OA
ATOM     37  H6  UNL     1      15.733  24.948  14.062  1.00  0.00     0.210 HD
ENDBRANCH  20  36
BRANCH   5  38
HETATM   38  O4  UNL     1      16.302  21.009  18.366  1.00  0.00    -0.395 OA
ATOM     39  H4  UNL     1      15.609  20.515  17.945  1.00  0.00     0.210 HD
ENDBRANCH   5  38
BRANCH  13  40
HETATM   40  O5  UNL     1       9.012  21.114  14.310  1.00  0.00    -0.395 OA
ATOM     41  H5  UNL     1       8.482  20.366  14.063  1.00  0.00     0.210 HD
ENDBRANCH  13  40
TORSDOF 11
ENDMDL
MODEL 3
REMARK VINA RESULT: -9.960180758      3.600      8.795
REMARK  11 active torsions:
REMARK  status: ('A' for Active; 'I' for Inactive)
REMARK    1  A    between atoms: C2_2  and  N1_3 
REMARK    2  A    between atoms: N1_3  and  C4_6 
REMARK    3  A    between atoms: C4_6  and  C5_7 
REMARK    4  A    between atoms: C5_7  and  N2_8 
REMARK       I    between atoms: N2_8  and  C6_10 
REMARK    5  A    between atoms: C6_10  and  C7_12 
REMARK    6  A    between atoms: C7_12  and  C8_13 
REMARK    7  A    between atoms: C8_13  and  O3_14 
REMARK    8  A    between atoms: O3_14  and  C9_15 
REMARK    9  A    between atoms: C13_19  and  O4_20 
REMARK   10  A    between atoms: C21_29  and  O5_30 
REMARK   11  A    between atoms: C28_38  and  O6_39 
ROOT
HETATM    1  C9  UNL     1      14.755  21.928  15.718  1.00  0.00     0.064 C 
HETATM    2  C10 UNL     1      14.738  20.677  16.483  1.00  0.00     0.046 C 
HETATM    3  C11 UNL     1      13.647  22.902  16.044  1.00  0.00     0.041 C 
HETATM    4  C12 UNL     1      14.113  24.153  16.723  1.00  0.00     0.035 C 
HETATM    5  C13 UNL     1      15.271  23.774  17.618  1.00  0.00     0.127 C 
HETATM    6  C14 UNL     1      16.497  23.354  16.893  1.00  0.00    -0.005 C 
HETATM    7  C15 UNL     1      17.204  22.326  17.807  1.00  0.00     0.019 C 
HETATM    8  C16 UNL     1      17.539  24.385  16.636  1.00  0.00     0.005 C 
HETATM    9  C17 UNL     1      17.843  25.278  17.810  1.00  0.00     0.033 C 
HETATM   10  C18 UNL     1      19.198  25.854  17.592  1.00  0.00    -0.023 C 
HETATM   11  C19 UNL     1      19.584  26.065  16.350  1.00  0.00    -0.072 C 
HETATM   12  C20 UNL     1      20.945  26.644  16.159  1.00  0.00     0.066 C 
HETATM   13  C21 UNL     1      21.663  25.985  15.008  1.00  0.00     0.122 C 
HETATM   14  C22 UNL     1      21.020  24.641  14.777  1.00  0.00     0.033 C 
HETATM   15  C23 UNL     1      19.582  24.754  14.344  1.00  0.00     0.016 C 
HETATM   16  C24 UNL     1      18.798  25.782  15.128  1.00  0.00    -0.017 C 
HETATM   17  C25 UNL     1      18.589  27.014  14.271  1.00  0.00     0.020 C 
HETATM   18  C26 UNL     1      17.389  25.271  15.468  1.00  0.00     0.005 C 
HETATM   19  C27 UNL     1      16.808  24.683  14.242  1.00  0.00     0.038 C 
HETATM   20  C28 UNL     1      16.008  23.469  14.394  1.00  0.00     0.126 C 
HETATM   21  C29 UNL     1      16.099  22.653  15.637  1.00  0.00     0.059 C 
ENDROOT
BRANCH   1  22
HETATM   22  O3  UNL     1      14.495  21.524  14.379  1.00  0.00    -0.380 OA
BRANCH  22  23
HETATM   23  C8  UNL     1      13.775  20.367  14.307  1.00  0.00     0.178 C 
BRANCH  23  24
HETATM   24  C7  UNL     1      12.347  20.677  13.837  1.00  0.00     0.129 C 
BRANCH  24  25
HETATM   25  C6  UNL     1      11.396  20.315  14.949  1.00  0.00     0.219 C 
HETATM   26  N2  UNL     1      11.842  19.436  15.956  1.00  0.00    -0.359 N 
ATOM     27  H2  UNL     1      12.793  19.072  15.893  1.00  0.00     0.162 HD
HETATM   28  O2  UNL     1      10.238  20.788  14.976  1.00  0.00    -0.274 OA
BRANCH  26  29
HETATM   29  C5  UNL     1      11.024  19.021  17.074  1.00  0.00     0.159 C 
BRANCH  29  30
HETATM   30  C4  UNL     1      11.729  19.264  18.380  1.00  0.00     0.331 C 
BRANCH  30  31
HETATM   31  N1  UNL     1      12.222  17.971  18.869  1.00  0.00     0.011 N 
HETATM   32  C3  UNL     1      11.754  17.835  20.234  1.00  0.00     0.356 C 
HETATM   33  O1  UNL     1      11.623  17.022  18.114  1.00  0.00    -0.065 OA
BRANCH  31  34
HETATM   34  C2  UNL     1      13.658  17.916  18.799  1.00  0.00     0.307 C 
HETATM   35  C1  UNL     1      14.249  18.343  20.140  1.00  0.00     0.043 C 
ENDBRANCH  31  34
ENDBRANCH  30  31
ENDBRANCH  29  30
ENDBRANCH  26  29
ENDBRANCH  24  25
ENDBRANCH  23  24
ENDBRANCH  22  23
ENDBRANCH   1  22
BRANCH  20  36
HETATM   36  O6  UNL     1      16.319  22.594  13.314  1.00  0.00    -0.395 OA
ATOM     37  H6  UNL     1      15.567  22.034  13.159  1.00  0.00     0.210 HD
ENDBRANCH  20  36
BRANCH   5  38
HETATM   38  O4  UNL     1      15.400  24.722  18.592  1.00  0.00    -0.395 OA
ATOM     39  H4  UNL     1      15.645  24.294  19.404  1.00  0.00     0.210 HD
ENDBRANCH   5  38
BRANCH  13  40
HETATM   40  O5  UNL     1      23.004  25.758  15.318  1.00  0.00    -0.395 OA
ATOM     41  H5  UNL     1      23.357  26.465  15.845  1.00  0.00     0.210 HD
ENDBRANCH  13  40
TORSDOF 11
ENDMDL
MODEL 4
REMARK VINA RESULT: -9.875790079      3.706      9.111
REMARK  11 active torsions:
REMARK  status: ('A' for Active; 'I' for Inactive)
REMARK    1  A    between atoms: C2_2  and  N1_3 
REMARK    2  A    between atoms: N1_3  and  C4_6 
REMARK    3  A    between atoms: C4_6  and  C5_7 
REMARK    4  A    between atoms: C5_7  and  N2_8 
REMARK       I    between atoms: N2_8  and  C6_10 
REMARK    5  A    between atoms: C6_10  and  C7_12 
REMARK    6  A    between atoms: C7_12  and  C8_13 
REMARK    7  A    between atoms: C8_13  and  O3_14 
REMARK    8  A    between atoms: O3_14  and  C9_15 
REMARK    9  A    between atoms: C13_19  and  O4_20 
REMARK   10  A    between atoms: C21_29  and  O5_30 
REMARK   11  A    between atoms: C28_38  and  O6_39 
ROOT
HETATM    1  C9  UNL     1      14.828  21.962  15.655  1.00  0.00     0.064 C 
HETATM    2  C10 UNL     1      14.807  20.697  16.397  1.00  0.00     0.046 C 
HETATM    3  C11 UNL     1      13.719  22.930  15.994  1.00  0.00     0.041 C 
HETATM    4  C12 UNL     1      14.182  24.168  16.698  1.00  0.00     0.035 C 
HETATM    5  C13 UNL     1      15.336  23.772  17.591  1.00  0.00     0.127 C 
HETATM    6  C14 UNL     1      16.566  23.365  16.864  1.00  0.00    -0.005 C 
HETATM    7  C15 UNL     1      17.268  22.320  17.761  1.00  0.00     0.019 C 
HETATM    8  C16 UNL     1      17.609  24.400  16.630  1.00  0.00     0.005 C 
HETATM    9  C17 UNL     1      17.908  25.271  17.821  1.00  0.00     0.033 C 
HETATM   10  C18 UNL     1      19.264  25.851  17.620  1.00  0.00    -0.023 C 
HETATM   11  C19 UNL     1      19.656  26.085  16.384  1.00  0.00    -0.072 C 
HETATM   12  C20 UNL     1      21.018  26.666  16.209  1.00  0.00     0.066 C 
HETATM   13  C21 UNL     1      21.740  26.029  15.049  1.00  0.00     0.122 C 
HETATM   14  C22 UNL     1      21.097  24.689  14.791  1.00  0.00     0.033 C 
HETATM   15  C23 UNL     1      19.661  24.810  14.354  1.00  0.00     0.016 C 
HETATM   16  C24 UNL     1      18.874  25.824  15.153  1.00  0.00    -0.017 C 
HETATM   17  C25 UNL     1      18.670  27.072  14.319  1.00  0.00     0.020 C 
HETATM   18  C26 UNL     1      17.464  25.307  15.478  1.00  0.00     0.005 C 
HETATM   19  C27 UNL     1      16.888  24.743  14.239  1.00  0.00     0.038 C 
HETATM   20  C28 UNL     1      16.087  23.527  14.365  1.00  0.00     0.126 C 
HETATM   21  C29 UNL     1      16.173  22.688  15.593  1.00  0.00     0.059 C 
ENDROOT
BRANCH   1  22
HETATM   22  O3  UNL     1      14.573  21.583  14.308  1.00  0.00    -0.380 OA
BRANCH  22  23
HETATM   23  C8  UNL     1      13.875  20.415  14.211  1.00  0.00     0.178 C 
BRANCH  23  24
HETATM   24  C7  UNL     1      12.576  20.654  13.427  1.00  0.00     0.129 C 
BRANCH  24  25
HETATM   25  C6  UNL     1      11.414  20.406  14.354  1.00  0.00     0.219 C 
HETATM   26  N2  UNL     1      11.622  19.605  15.495  1.00  0.00    -0.359 N 
ATOM     27  H2  UNL     1      12.553  19.217  15.649  1.00  0.00     0.162 HD
HETATM   28  O2  UNL     1      10.291  20.903  14.114  1.00  0.00    -0.274 OA
BRANCH  26  29
HETATM   29  C5  UNL     1      10.587  19.301  16.457  1.00  0.00     0.159 C 
BRANCH  29  30
HETATM   30  C4  UNL     1      11.119  19.369  17.862  1.00  0.00     0.331 C 
BRANCH  30  31
HETATM   31  N1  UNL     1      11.193  17.996  18.377  1.00  0.00     0.011 N 
HETATM   32  C3  UNL     1      12.590  17.730  18.657  1.00  0.00     0.356 C 
HETATM   33  O1  UNL     1      10.513  17.987  19.546  1.00  0.00    -0.065 OA
BRANCH  31  34
HETATM   34  C2  UNL     1      10.664  17.065  17.417  1.00  0.00     0.307 C 
HETATM   35  C1  UNL     1      10.311  15.756  18.119  1.00  0.00     0.043 C 
ENDBRANCH  31  34
ENDBRANCH  30  31
ENDBRANCH  29  30
ENDBRANCH  26  29
ENDBRANCH  24  25
ENDBRANCH  23  24
ENDBRANCH  22  23
ENDBRANCH   1  22
BRANCH  20  36
HETATM   36  O6  UNL     1      16.402  22.671  13.270  1.00  0.00    -0.395 OA
ATOM     37  H6  UNL     1      17.341  22.528  13.266  1.00  0.00     0.210 HD
ENDBRANCH  20  36
BRANCH   5  38
HETATM   38  O4  UNL     1      15.462  24.702  18.583  1.00  0.00    -0.395 OA
ATOM     39  H4  UNL     1      15.243  25.556  18.230  1.00  0.00     0.210 HD
ENDBRANCH   5  38
BRANCH  13  40
HETATM   40  O5  UNL     1      23.080  25.795  15.360  1.00  0.00    -0.395 OA
ATOM     41  H5  UNL     1      23.266  24.864  15.389  1.00  0.00     0.210 HD
ENDBRANCH  13  40
TORSDOF 11
ENDMDL
MODEL 5
REMARK VINA RESULT: -9.749422429      3.659      8.514
REMARK  11 active torsions:
REMARK  status: ('A' for Active; 'I' for Inactive)
REMARK    1  A    between atoms: C2_2  and  N1_3 
REMARK    2  A    between atoms: N1_3  and  C4_6 
REMARK    3  A    between atoms: C4_6  and  C5_7 
REMARK    4  A    between atoms: C5_7  and  N2_8 
REMARK       I    between atoms: N2_8  and  C6_10 
REMARK    5  A    between atoms: C6_10  and  C7_12 
REMARK    6  A    between atoms: C7_12  and  C8_13 
REMARK    7  A    between atoms: C8_13  and  O3_14 
REMARK    8  A    between atoms: O3_14  and  C9_15 
REMARK    9  A    between atoms: C13_19  and  O4_20 
REMARK   10  A    between atoms: C21_29  and  O5_30 
REMARK   11  A    between atoms: C28_38  and  O6_39 
ROOT
HETATM    1  C9  UNL     1      11.753  20.732  14.641  1.00  0.00     0.064 C 
HETATM    2  C10 UNL     1      10.579  21.462  14.149  1.00  0.00     0.046 C 
HETATM    3  C11 UNL     1      12.279  19.656  13.720  1.00  0.00     0.041 C 
HETATM    4  C12 UNL     1      13.617  19.962  13.123  1.00  0.00     0.035 C 
HETATM    5  C13 UNL     1      13.673  21.455  12.887  1.00  0.00     0.127 C 
HETATM    6  C14 UNL     1      13.705  22.274  14.126  1.00  0.00    -0.005 C 
HETATM    7  C15 UNL     1      12.994  23.603  13.779  1.00  0.00     0.019 C 
HETATM    8  C16 UNL     1      15.034  22.698  14.643  1.00  0.00     0.005 C 
HETATM    9  C17 UNL     1      15.983  23.210  13.592  1.00  0.00     0.033 C 
HETATM   10  C18 UNL     1      16.996  24.056  14.279  1.00  0.00    -0.023 C 
HETATM   11  C19 UNL     1      17.322  23.741  15.516  1.00  0.00    -0.072 C 
HETATM   12  C20 UNL     1      18.340  24.603  16.183  1.00  0.00     0.066 C 
HETATM   13  C21 UNL     1      17.968  24.878  17.619  1.00  0.00     0.122 C 
HETATM   14  C22 UNL     1      16.483  24.658  17.756  1.00  0.00     0.033 C 
HETATM   15  C23 UNL     1      16.082  23.229  17.503  1.00  0.00     0.016 C 
HETATM   16  C24 UNL     1      16.775  22.615  16.307  1.00  0.00    -0.017 C 
HETATM   17  C25 UNL     1      17.852  21.662  16.786  1.00  0.00     0.020 C 
HETATM   18  C26 UNL     1      15.805  21.760  15.477  1.00  0.00     0.005 C 
HETATM   19  C27 UNL     1      15.044  20.898  16.407  1.00  0.00     0.038 C 
HETATM   20  C28 UNL     1      13.628  20.684  16.117  1.00  0.00     0.126 C 
HETATM   21  C29 UNL     1      12.902  21.586  15.179  1.00  0.00     0.059 C 
ENDROOT
BRANCH   1  22
HETATM   22  O3  UNL     1      11.276  20.029  15.781  1.00  0.00    -0.380 OA
BRANCH  22  23
HETATM   23  C8  UNL     1      10.159  19.292  15.518  1.00  0.00     0.178 C 
BRANCH  23  24
HETATM   24  C7  UNL     1      10.293  17.903  16.159  1.00  0.00     0.129 C 
BRANCH  24  25
HETATM   25  C6  UNL     1      10.939  18.069  17.511  1.00  0.00     0.219 C 
HETATM   26  N2  UNL     1      11.940  17.155  17.896  1.00  0.00    -0.359 N 
ATOM     27  H2  UNL     1      12.189  16.409  17.245  1.00  0.00     0.162 HD
HETATM   28  O2  UNL     1      10.591  18.999  18.272  1.00  0.00    -0.274 OA
BRANCH  26  29
HETATM   29  C5  UNL     1      12.633  17.215  19.163  1.00  0.00     0.159 C 
BRANCH  29  30
HETATM   30  C4  UNL     1      13.952  17.923  19.024  1.00  0.00     0.331 C 
BRANCH  30  31
HETATM   31  N1  UNL     1      14.138  18.758  20.217  1.00  0.00     0.011 N 
HETATM   32  C3  UNL     1      12.885  18.733  20.944  1.00  0.00     0.356 C 
HETATM   33  O1  UNL     1      15.082  18.147  20.970  1.00  0.00    -0.065 OA
BRANCH  31  34
HETATM   34  C2  UNL     1      14.503  20.099  19.846  1.00  0.00     0.307 C 
HETATM   35  C1  UNL     1      15.393  20.702  20.929  1.00  0.00     0.043 C 
ENDBRANCH  31  34
ENDBRANCH  30  31
ENDBRANCH  29  30
ENDBRANCH  26  29
ENDBRANCH  24  25
ENDBRANCH  23  24
ENDBRANCH  22  23
ENDBRANCH   1  22
BRANCH  20  36
HETATM   36  O6  UNL     1      12.911  20.720  17.348  1.00  0.00    -0.395 OA
ATOM     37  H6  UNL     1      12.572  21.600  17.468  1.00  0.00     0.210 HD
ENDBRANCH  20  36
BRANCH   5  38
HETATM   38  O4  UNL     1      14.611  21.713  11.929  1.00  0.00    -0.395 OA
ATOM     39  H4  UNL     1      14.171  21.833  11.096  1.00  0.00     0.210 HD
ENDBRANCH   5  38
BRANCH  13  40
HETATM   40  O5  UNL     1      18.226  26.206  17.958  1.00  0.00    -0.395 OA
ATOM     41  H5  UNL     1      18.888  26.263  18.637  1.00  0.00     0.210 HD
ENDBRANCH  13  40
TORSDOF 11
ENDMDL
