MODEL 1
REMARK VINA RESULT: -10.410499673      0.000      0.000
REMARK  9 active torsions:
REMARK  status: ('A' for Active; 'I' for Inactive)
REMARK    1  A    between atoms: C3_4  and  O2_5 
REMARK    2  A    between atoms: O2_5  and  C4_6 
REMARK    3  A    between atoms: C18_20  and  C19_21 
REMARK       I    between atoms: C19_21  and  N1_23 
REMARK    4  A    between atoms: N1_23  and  C20_25 
REMARK    5  A    between atoms: C20_25  and  C21_26 
REMARK    6  A    between atoms: C21_26  and  C22_27 
REMARK    7  A    between atoms: C22_27  and  C23_28 
REMARK    8  A    between atoms: C29_36  and  O6_37 
REMARK    9  A    between atoms: C30_39  and  O7_40 
ROOT
HETATM    1  C4  UNL     1      17.959  24.504  16.365  1.00  0.00     0.128 C 
HETATM    2  C5  UNL     1      17.884  22.997  16.242  1.00  0.00     0.033 C 
HETATM    3  C6  UNL     1      16.555  22.586  16.890  1.00  0.00     0.016 C 
HETATM    4  C7  UNL     1      15.388  23.047  16.061  1.00  0.00    -0.017 C 
HETATM    5  C8  UNL     1      14.357  23.757  16.911  1.00  0.00     0.020 C 
HETATM    6  C9  UNL     1      15.911  24.095  15.116  1.00  0.00    -0.072 C 
HETATM    7  C10 UNL     1      15.572  24.124  13.837  1.00  0.00    -0.023 C 
HETATM    8  C11 UNL     1      14.656  23.151  13.184  1.00  0.00     0.033 C 
HETATM    9  C12 UNL     1      13.798  22.541  14.307  1.00  0.00    -0.001 C 
HETATM   10  C13 UNL     1      14.782  21.924  15.254  1.00  0.00     0.003 C 
HETATM   11  C14 UNL     1      14.228  20.875  16.126  1.00  0.00     0.007 C 
HETATM   12  C15 UNL     1      13.286  19.909  15.475  1.00  0.00     0.011 C 
HETATM   13  C16 UNL     1      12.830  20.207  14.111  1.00  0.00    -0.028 C 
HETATM   14  C17 UNL     1      13.516  19.382  13.023  1.00  0.00     0.016 C 
HETATM   15  C18 UNL     1      11.342  19.868  14.004  1.00  0.00     0.086 C 
HETATM   16  C24 UNL     1      10.727  21.001  14.775  1.00  0.00     0.015 C 
HETATM   17  C25 UNL     1      11.416  22.190  14.113  1.00  0.00     0.007 C 
HETATM   18  C26 UNL     1      12.797  21.653  13.708  1.00  0.00    -0.001 C 
HETATM   19  C27 UNL     1      16.836  25.151  15.687  1.00  0.00     0.066 C 
ENDROOT
BRANCH   1  20
HETATM   20  O2  UNL     1      19.224  24.911  16.048  1.00  0.00    -0.356 OA
BRANCH  20  21
HETATM   21  C3  UNL     1      19.359  26.257  15.773  1.00  0.00     0.263 C 
HETATM   22  O1  UNL     1      20.316  26.774  16.648  1.00  0.00    -0.354 OA
HETATM   23  C2  UNL     1      21.433  25.975  16.647  1.00  0.00     0.151 C 
HETATM   24  C1  UNL     1      22.480  26.616  17.540  1.00  0.00     0.042 C 
HETATM   25  C30 UNL     1      22.054  25.828  15.281  1.00  0.00     0.175 C 
HETATM   26  C29 UNL     1      21.345  26.764  14.330  1.00  0.00     0.154 C 
HETATM   27  C28 UNL     1      19.884  26.473  14.374  1.00  0.00     0.095 C 
BRANCH  25  28
HETATM   28  O7  UNL     1      21.847  24.543  14.821  1.00  0.00    -0.390 OA
ATOM     29  H7  UNL     1      21.610  24.573  13.902  1.00  0.00     0.210 HD
ENDBRANCH  25  28
BRANCH  26  30
HETATM   30  O6  UNL     1      21.538  28.109  14.659  1.00  0.00    -0.393 OA
ATOM     31  H6  UNL     1      22.420  28.212  14.997  1.00  0.00     0.210 HD
ENDBRANCH  26  30
ENDBRANCH  20  21
ENDBRANCH   1  20
BRANCH  15  32
HETATM   32  C19 UNL     1      10.985  18.550  14.531  1.00  0.00     0.222 C 
HETATM   33  O3  UNL     1      10.895  17.559  13.776  1.00  0.00    -0.273 OA
HETATM   34  N1  UNL     1      10.740  18.387  15.909  1.00  0.00    -0.361 N 
ATOM     35  H1  UNL     1      10.812  19.189  16.535  1.00  0.00     0.162 HD
BRANCH  34  36
HETATM   36  C20 UNL     1      10.389  17.096  16.437  1.00  0.00     0.123 C 
BRANCH  36  37
HETATM   37  C21 UNL     1      10.788  16.958  17.895  1.00  0.00     0.030 C 
BRANCH  37  38
HETATM   38  C22 UNL     1      11.179  18.289  18.487  1.00  0.00     0.114 C 
BRANCH  38  39
HETATM   39  C23 UNL     1      11.940  18.153  19.734  1.00  0.00     0.172 C 
HETATM   40  O4  UNL     1      11.476  18.597  20.797  1.00  0.00    -0.648 OA
HETATM   41  O5  UNL     1      13.188  17.534  19.773  1.00  0.00    -0.648 OA
ENDBRANCH  38  39
ENDBRANCH  37  38
ENDBRANCH  36  37
ENDBRANCH  34  36
ENDBRANCH  15  32
TORSDOF 9
ENDMDL
MODEL 2
REMARK VINA RESULT: -10.304610654      0.979      1.511
REMARK  9 active torsions:
REMARK  status: ('A' for Active; 'I' for Inactive)
REMARK    1  A    between atoms: C3_4  and  O2_5 
REMARK    2  A    between atoms: O2_5  and  C4_6 
REMARK    3  A    between atoms: C18_20  and  C19_21 
REMARK       I    between atoms: C19_21  and  N1_23 
REMARK    4  A    between atoms: N1_23  and  C20_25 
REMARK    5  A    between atoms: C20_25  and  C21_26 
REMARK    6  A    between atoms: C21_26  and  C22_27 
REMARK    7  A    between atoms: C22_27  and  C23_28 
REMARK    8  A    between atoms: C29_36  and  O6_37 
REMARK    9  A    between atoms: C30_39  and  O7_40 
ROOT
HETATM    1  C4  UNL     1      18.476  24.518  16.499  1.00  0.00     0.128 C 
HETATM    2  C5  UNL     1      18.297  23.017  16.418  1.00  0.00     0.033 C 
HETATM    3  C6  UNL     1      16.909  22.725  17.003  1.00  0.00     0.016 C 
HETATM    4  C7  UNL     1      15.826  23.239  16.095  1.00  0.00    -0.017 C 
HETATM    5  C8  UNL     1      14.805  24.051  16.863  1.00  0.00     0.020 C 
HETATM    6  C9  UNL     1      16.474  24.214  15.149  1.00  0.00    -0.072 C 
HETATM    7  C10 UNL     1      16.208  24.222  13.853  1.00  0.00    -0.023 C 
HETATM    8  C11 UNL     1      15.259  23.296  13.180  1.00  0.00     0.033 C 
HETATM    9  C12 UNL     1      14.299  22.788  14.271  1.00  0.00    -0.001 C 
HETATM   10  C13 UNL     1      15.182  22.136  15.291  1.00  0.00     0.003 C 
HETATM   11  C14 UNL     1      14.507  21.160  16.162  1.00  0.00     0.007 C 
HETATM   12  C15 UNL     1      13.532  20.242  15.489  1.00  0.00     0.011 C 
HETATM   13  C16 UNL     1      13.173  20.524  14.093  1.00  0.00    -0.028 C 
HETATM   14  C17 UNL     1      13.855  19.615  13.071  1.00  0.00     0.016 C 
HETATM   15  C18 UNL     1      11.673  20.290  13.913  1.00  0.00     0.086 C 
HETATM   16  C24 UNL     1      11.103  21.491  14.613  1.00  0.00     0.015 C 
HETATM   17  C25 UNL     1      11.912  22.603  13.954  1.00  0.00     0.007 C 
HETATM   18  C26 UNL     1      13.269  21.954  13.644  1.00  0.00    -0.001 C 
HETATM   19  C27 UNL     1      17.443  25.220  15.738  1.00  0.00     0.066 C 
ENDROOT
BRANCH   1  20
HETATM   20  O2  UNL     1      19.784  24.822  16.241  1.00  0.00    -0.356 OA
BRANCH  20  21
HETATM   21  C3  UNL     1      20.571  25.030  17.354  1.00  0.00     0.263 C 
HETATM   22  O1  UNL     1      21.860  25.330  16.911  1.00  0.00    -0.354 OA
HETATM   23  C2  UNL     1      21.809  26.296  15.938  1.00  0.00     0.151 C 
HETATM   24  C1  UNL     1      23.231  26.656  15.545  1.00  0.00     0.042 C 
HETATM   25  C30 UNL     1      21.148  27.570  16.402  1.00  0.00     0.175 C 
HETATM   26  C29 UNL     1      20.886  27.459  17.886  1.00  0.00     0.154 C 
HETATM   27  C28 UNL     1      20.090  26.226  18.141  1.00  0.00     0.095 C 
BRANCH  25  28
HETATM   28  O7  UNL     1      19.922  27.700  15.779  1.00  0.00    -0.390 OA
ATOM     29  H7  UNL     1      19.710  28.622  15.694  1.00  0.00     0.210 HD
ENDBRANCH  25  28
BRANCH  26  30
HETATM   30  O6  UNL     1      22.067  27.385  18.633  1.00  0.00    -0.393 OA
ATOM     31  H6  UNL     1      22.742  26.997  18.089  1.00  0.00     0.210 HD
ENDBRANCH  26  30
ENDBRANCH  20  21
ENDBRANCH   1  20
BRANCH  15  32
HETATM   32  C19 UNL     1      11.192  19.020  14.460  1.00  0.00     0.222 C 
HETATM   33  O3  UNL     1      11.045  18.020  13.726  1.00  0.00    -0.273 OA
HETATM   34  N1  UNL     1      10.890  18.915  15.831  1.00  0.00    -0.361 N 
ATOM     35  H1  UNL     1      11.008  19.725  16.440  1.00  0.00     0.162 HD
BRANCH  34  36
HETATM   36  C20 UNL     1      10.417  17.671  16.379  1.00  0.00     0.123 C 
BRANCH  36  37
HETATM   37  C21 UNL     1      11.088  17.349  17.701  1.00  0.00     0.030 C 
BRANCH  37  38
HETATM   38  C22 UNL     1      11.514  18.602  18.424  1.00  0.00     0.114 C 
BRANCH  38  39
HETATM   39  C23 UNL     1      12.074  18.329  19.752  1.00  0.00     0.172 C 
HETATM   40  O4  UNL     1      11.406  18.570  20.771  1.00  0.00    -0.648 OA
HETATM   41  O5  UNL     1      13.353  17.801  19.918  1.00  0.00    -0.648 OA
ENDBRANCH  38  39
ENDBRANCH  37  38
ENDBRANCH  36  37
ENDBRANCH  34  36
ENDBRANCH  15  32
TORSDOF 9
ENDMDL
MODEL 3
REMARK VINA RESULT: -10.051598882      1.171      1.396
REMARK  9 active torsions:
REMARK  status: ('A' for Active; 'I' for Inactive)
REMARK    1  A    between atoms: C3_4  and  O2_5 
REMARK    2  A    between atoms: O2_5  and  C4_6 
REMARK    3  A    between atoms: C18_20  and  C19_21 
REMARK       I    between atoms: C19_21  and  N1_23 
REMARK    4  A    between atoms: N1_23  and  C20_25 
REMARK    5  A    between atoms: C20_25  and  C21_26 
REMARK    6  A    between atoms: C21_26  and  C22_27 
REMARK    7  A    between atoms: C22_27  and  C23_28 
REMARK    8  A    between atoms: C29_36  and  O6_37 
REMARK    9  A    between atoms: C30_39  and  O7_40 
ROOT
HETATM    1  C4  UNL     1      18.671  24.747  17.331  1.00  0.00     0.128 C 
HETATM    2  C5  UNL     1      18.651  23.313  16.849  1.00  0.00     0.033 C 
HETATM    3  C6  UNL     1      17.319  22.723  17.333  1.00  0.00     0.016 C 
HETATM    4  C7  UNL     1      16.161  23.338  16.598  1.00  0.00    -0.017 C 
HETATM    5  C8  UNL     1      15.083  23.796  17.557  1.00  0.00     0.020 C 
HETATM    6  C9  UNL     1      16.673  24.597  15.951  1.00  0.00    -0.072 C 
HETATM    7  C10 UNL     1      16.369  24.923  14.704  1.00  0.00    -0.023 C 
HETATM    8  C11 UNL     1      15.504  24.112  13.806  1.00  0.00     0.033 C 
HETATM    9  C12 UNL     1      14.637  23.227  14.721  1.00  0.00    -0.001 C 
HETATM   10  C13 UNL     1      15.615  22.427  15.526  1.00  0.00     0.003 C 
HETATM   11  C14 UNL     1      15.074  21.185  16.101  1.00  0.00     0.007 C 
HETATM   12  C15 UNL     1      14.183  20.379  15.206  1.00  0.00     0.011 C 
HETATM   13  C16 UNL     1      13.754  20.984  13.938  1.00  0.00    -0.028 C 
HETATM   14  C17 UNL     1      14.497  20.464  12.709  1.00  0.00     0.016 C 
HETATM   15  C18 UNL     1      12.282  20.642  13.702  1.00  0.00     0.086 C 
HETATM   16  C24 UNL     1      11.609  21.540  14.700  1.00  0.00     0.015 C 
HETATM   17  C25 UNL     1      12.274  22.871  14.366  1.00  0.00     0.007 C 
HETATM   18  C26 UNL     1      13.683  22.483  13.892  1.00  0.00    -0.001 C 
HETATM   19  C27 UNL     1      17.546  25.509  16.789  1.00  0.00     0.066 C 
ENDROOT
BRANCH   1  20
HETATM   20  O2  UNL     1      19.931  25.252  17.164  1.00  0.00    -0.356 OA
BRANCH  20  21
HETATM   21  C3  UNL     1      20.019  26.629  17.171  1.00  0.00     0.263 C 
HETATM   22  O1  UNL     1      21.184  26.975  17.859  1.00  0.00    -0.354 OA
HETATM   23  C2  UNL     1      22.242  26.238  17.389  1.00  0.00     0.151 C 
HETATM   24  C1  UNL     1      23.502  26.704  18.098  1.00  0.00     0.042 C 
HETATM   25  C30 UNL     1      22.480  26.420  15.911  1.00  0.00     0.175 C 
HETATM   26  C29 UNL     1      21.568  27.515  15.410  1.00  0.00     0.154 C 
HETATM   27  C28 UNL     1      20.163  27.168  15.768  1.00  0.00     0.095 C 
BRANCH  25  28
HETATM   28  O7  UNL     1      22.131  25.261  15.247  1.00  0.00    -0.390 OA
ATOM     29  H7  UNL     1      21.548  25.475  14.527  1.00  0.00     0.210 HD
ENDBRANCH  25  28
BRANCH  26  30
HETATM   30  O6  UNL     1      21.871  28.761  15.970  1.00  0.00    -0.393 OA
ATOM     31  H6  UNL     1      21.116  29.329  15.865  1.00  0.00     0.210 HD
ENDBRANCH  26  30
ENDBRANCH  20  21
ENDBRANCH   1  20
BRANCH  15  32
HETATM   32  C19 UNL     1      11.956  19.226  13.886  1.00  0.00     0.222 C 
HETATM   33  O3  UNL     1      12.396  18.359  13.102  1.00  0.00    -0.273 OA
HETATM   34  N1  UNL     1      11.136  18.828  14.959  1.00  0.00    -0.361 N 
ATOM     35  H1  UNL     1      10.772  19.527  15.606  1.00  0.00     0.162 HD
BRANCH  34  36
HETATM   36  C20 UNL     1      10.810  17.439  15.148  1.00  0.00     0.123 C 
BRANCH  36  37
HETATM   37  C21 UNL     1      10.161  17.194  16.498  1.00  0.00     0.030 C 
BRANCH  37  38
HETATM   38  C22 UNL     1      11.166  17.293  17.619  1.00  0.00     0.114 C 
BRANCH  38  39
HETATM   39  C23 UNL     1      10.948  18.463  18.476  1.00  0.00     0.172 C 
HETATM   40  O4  UNL     1      10.762  19.580  17.967  1.00  0.00    -0.648 OA
HETATM   41  O5  UNL     1      10.942  18.368  19.866  1.00  0.00    -0.648 OA
ENDBRANCH  38  39
ENDBRANCH  37  38
ENDBRANCH  36  37
ENDBRANCH  34  36
ENDBRANCH  15  32
TORSDOF 9
ENDMDL
MODEL 4
REMARK VINA RESULT: -9.813499779      1.351      1.819
REMARK  9 active torsions:
REMARK  status: ('A' for Active; 'I' for Inactive)
REMARK    1  A    between atoms: C3_4  and  O2_5 
REMARK    2  A    between atoms: O2_5  and  C4_6 
REMARK    3  A    between atoms: C18_20  and  C19_21 
REMARK       I    between atoms: C19_21  and  N1_23 
REMARK    4  A    between atoms: N1_23  and  C20_25 
REMARK    5  A    between atoms: C20_25  and  C21_26 
REMARK    6  A    between atoms: C21_26  and  C22_27 
REMARK    7  A    between atoms: C22_27  and  C23_28 
REMARK    8  A    between atoms: C29_36  and  O6_37 
REMARK    9  A    between atoms: C30_39  and  O7_40 
ROOT
HETATM    1  C4  UNL     1      18.537  24.502  17.846  1.00  0.00     0.128 C 
HETATM    2  C5  UNL     1      18.371  23.026  17.555  1.00  0.00     0.033 C 
HETATM    3  C6  UNL     1      16.925  22.680  17.937  1.00  0.00     0.016 C 
HETATM    4  C7  UNL     1      15.951  23.319  16.986  1.00  0.00    -0.017 C 
HETATM    5  C8  UNL     1      14.848  24.039  17.731  1.00  0.00     0.020 C 
HETATM    6  C9  UNL     1      16.702  24.398  16.252  1.00  0.00    -0.072 C 
HETATM    7  C10 UNL     1      16.585  24.575  14.945  1.00  0.00    -0.023 C 
HETATM    8  C11 UNL     1      15.720  23.753  14.056  1.00  0.00     0.033 C 
HETATM    9  C12 UNL     1      14.643  23.123  14.958  1.00  0.00    -0.001 C 
HETATM   10  C13 UNL     1      15.406  22.335  15.979  1.00  0.00     0.003 C 
HETATM   11  C14 UNL     1      14.638  21.265  16.636  1.00  0.00     0.007 C 
HETATM   12  C15 UNL     1      13.748  20.453  15.745  1.00  0.00     0.011 C 
HETATM   13  C16 UNL     1      13.549  20.915  14.366  1.00  0.00    -0.028 C 
HETATM   14  C17 UNL     1      14.344  20.135  13.320  1.00  0.00     0.016 C 
HETATM   15  C18 UNL     1      12.079  20.725  13.988  1.00  0.00     0.086 C 
HETATM   16  C24 UNL     1      11.431  21.833  14.768  1.00  0.00     0.015 C 
HETATM   17  C25 UNL     1      12.308  23.010  14.352  1.00  0.00     0.007 C 
HETATM   18  C26 UNL     1      13.693  22.389  14.117  1.00  0.00    -0.001 C 
HETATM   19  C27 UNL     1      17.595  25.309  17.070  1.00  0.00     0.066 C 
ENDROOT
BRANCH   1  20
HETATM   20  O2  UNL     1      19.864  24.820  17.779  1.00  0.00    -0.356 OA
BRANCH  20  21
HETATM   21  C3  UNL     1      20.150  26.032  17.186  1.00  0.00     0.263 C 
HETATM   22  O1  UNL     1      20.202  26.996  18.195  1.00  0.00    -0.354 OA
HETATM   23  C2  UNL     1      20.991  26.552  19.227  1.00  0.00     0.151 C 
HETATM   24  C1  UNL     1      21.092  27.660  20.261  1.00  0.00     0.042 C 
HETATM   25  C30 UNL     1      22.399  26.225  18.797  1.00  0.00     0.175 C 
HETATM   26  C29 UNL     1      22.573  26.655  17.359  1.00  0.00     0.154 C 
HETATM   27  C28 UNL     1      21.514  26.007  16.535  1.00  0.00     0.095 C 
BRANCH  25  28
HETATM   28  O7  UNL     1      22.583  24.858  18.840  1.00  0.00    -0.390 OA
ATOM     29  H7  UNL     1      21.876  24.431  18.371  1.00  0.00     0.210 HD
ENDBRANCH  25  28
BRANCH  26  30
HETATM   30  O6  UNL     1      22.471  28.041  17.200  1.00  0.00    -0.393 OA
ATOM     31  H6  UNL     1      21.553  28.281  17.234  1.00  0.00     0.210 HD
ENDBRANCH  26  30
ENDBRANCH  20  21
ENDBRANCH   1  20
BRANCH  15  32
HETATM   32  C19 UNL     1      11.542  19.401  14.311  1.00  0.00     0.222 C 
HETATM   33  O3  UNL     1      11.613  18.462  13.490  1.00  0.00    -0.273 OA
HETATM   34  N1  UNL     1      10.936  19.175  15.562  1.00  0.00    -0.361 N 
ATOM     35  H1  UNL     1      10.874  19.934  16.240  1.00  0.00     0.162 HD
BRANCH  34  36
HETATM   36  C20 UNL     1      10.405  17.878  15.888  1.00  0.00     0.123 C 
BRANCH  36  37
HETATM   37  C21 UNL     1      10.691  17.501  17.330  1.00  0.00     0.030 C 
BRANCH  37  38
HETATM   38  C22 UNL     1      11.337  18.639  18.080  1.00  0.00     0.114 C 
BRANCH  38  39
HETATM   39  C23 UNL     1      11.949  18.211  19.343  1.00  0.00     0.172 C 
HETATM   40  O4  UNL     1      12.956  17.484  19.332  1.00  0.00    -0.648 OA
HETATM   41  O5  UNL     1      11.434  18.596  20.579  1.00  0.00    -0.648 OA
ENDBRANCH  38  39
ENDBRANCH  37  38
ENDBRANCH  36  37
ENDBRANCH  34  36
ENDBRANCH  15  32
TORSDOF 9
ENDMDL
MODEL 5
REMARK VINA RESULT: -9.636589619      1.667      2.324
REMARK  9 active torsions:
REMARK  status: ('A' for Active; 'I' for Inactive)
REMARK    1  A    between atoms: C3_4  and  O2_5 
REMARK    2  A    between atoms: O2_5  and  C4_6 
REMARK    3  A    between atoms: C18_20  and  C19_21 
REMARK       I    between atoms: C19_21  and  N1_23 
REMARK    4  A    between atoms: N1_23  and  C20_25 
REMARK    5  A    between atoms: C20_25  and  C21_26 
REMARK    6  A    between atoms: C21_26  and  C22_27 
REMARK    7  A    between atoms: C22_27  and  C23_28 
REMARK    8  A    between atoms: C29_36  and  O6_37 
REMARK    9  A    between atoms: C30_39  and  O7_40 
ROOT
HETATM    1  C4  UNL     1      19.624  24.936  17.667  1.00  0.00     0.128 C 
HETATM    2  C5  UNL     1      19.547  23.583  16.992  1.00  0.00     0.033 C 
HETATM    3  C6  UNL     1      18.203  22.976  17.414  1.00  0.00     0.016 C 
HETATM    4  C7  UNL     1      17.057  23.724  16.791  1.00  0.00    -0.017 C 
HETATM    5  C8  UNL     1      16.008  24.080  17.822  1.00  0.00     0.020 C 
HETATM    6  C9  UNL     1      17.604  25.043  16.314  1.00  0.00    -0.072 C 
HETATM    7  C10 UNL     1      17.295  25.547  15.130  1.00  0.00    -0.023 C 
HETATM    8  C11 UNL     1      16.391  24.896  14.144  1.00  0.00     0.033 C 
HETATM    9  C12 UNL     1      15.506  23.922  14.943  1.00  0.00    -0.001 C 
HETATM   10  C13 UNL     1      16.466  22.987  15.613  1.00  0.00     0.003 C 
HETATM   11  C14 UNL     1      15.890  21.696  16.022  1.00  0.00     0.007 C 
HETATM   12  C15 UNL     1      14.961  21.051  15.040  1.00  0.00     0.011 C 
HETATM   13  C16 UNL     1      14.537  21.838  13.875  1.00  0.00    -0.028 C 
HETATM   14  C17 UNL     1      15.246  21.468  12.573  1.00  0.00     0.016 C 
HETATM   15  C18 UNL     1      13.051  21.580  13.619  1.00  0.00     0.086 C 
HETATM   16  C24 UNL     1      12.422  22.353  14.743  1.00  0.00     0.015 C 
HETATM   17  C25 UNL     1      13.128  23.695  14.583  1.00  0.00     0.007 C 
HETATM   18  C26 UNL     1      14.517  23.331  14.036  1.00  0.00    -0.001 C 
HETATM   19  C27 UNL     1      18.519  25.801  17.254  1.00  0.00     0.066 C 
ENDROOT
BRANCH   1  20
HETATM   20  O2  UNL     1      20.897  25.418  17.550  1.00  0.00    -0.356 OA
BRANCH  20  21
HETATM   21  C3  UNL     1      21.014  26.792  17.600  1.00  0.00     0.263 C 
HETATM   22  O1  UNL     1      22.229  27.091  18.219  1.00  0.00    -0.354 OA
HETATM   23  C2  UNL     1      23.239  26.353  17.652  1.00  0.00     0.151 C 
HETATM   24  C1  UNL     1      24.552  26.770  18.290  1.00  0.00     0.042 C 
HETATM   25  C30 UNL     1      23.381  26.586  16.169  1.00  0.00     0.175 C 
HETATM   26  C29 UNL     1      22.459  27.715  15.771  1.00  0.00     0.154 C 
HETATM   27  C28 UNL     1      21.075  27.381  16.210  1.00  0.00     0.095 C 
BRANCH  25  28
HETATM   28  O7  UNL     1      22.963  25.459  15.489  1.00  0.00    -0.390 OA
ATOM     29  H7  UNL     1      23.673  25.139  14.944  1.00  0.00     0.210 HD
ENDBRANCH  25  28
BRANCH  26  30
HETATM   30  O6  UNL     1      22.825  28.934  16.353  1.00  0.00    -0.393 OA
ATOM     31  H6  UNL     1      22.956  29.570  15.660  1.00  0.00     0.210 HD
ENDBRANCH  26  30
ENDBRANCH  20  21
ENDBRANCH   1  20
BRANCH  15  32
HETATM   32  C19 UNL     1      12.679  20.163  13.612  1.00  0.00     0.222 C 
HETATM   33  O3  UNL     1      13.337  19.330  12.955  1.00  0.00    -0.273 OA
HETATM   34  N1  UNL     1      11.565  19.726  14.355  1.00  0.00    -0.361 N 
ATOM     35  H1  UNL     1      11.021  20.398  14.896  1.00  0.00     0.162 HD
BRANCH  34  36
HETATM   36  C20 UNL     1      11.191  18.337  14.355  1.00  0.00     0.123 C 
BRANCH  36  37
HETATM   37  C21 UNL     1      10.397  17.969  15.595  1.00  0.00     0.030 C 
BRANCH  37  38
HETATM   38  C22 UNL     1      10.204  19.161  16.500  1.00  0.00     0.114 C 
BRANCH  38  39
HETATM   39  C23 UNL     1      11.172  19.200  17.601  1.00  0.00     0.172 C 
HETATM   40  O4  UNL     1      10.880  18.708  18.703  1.00  0.00    -0.648 OA
HETATM   41  O5  UNL     1      12.430  19.780  17.456  1.00  0.00    -0.648 OA
ENDBRANCH  38  39
ENDBRANCH  37  38
ENDBRANCH  36  37
ENDBRANCH  34  36
ENDBRANCH  15  32
TORSDOF 9
ENDMDL
