MODEL 1
REMARK VINA RESULT: -8.832349819      0.000      0.000
REMARK  7 active torsions:
REMARK  status: ('A' for Active; 'I' for Inactive)
REMARK    1  A    between atoms: C2_2  and  C3_3 
REMARK    2  A    between atoms: C3_3  and  N1_4 
REMARK       I    between atoms: N1_4  and  C4_6 
REMARK    3  A    between atoms: C4_6  and  C5_8 
REMARK    4  A    between atoms: C5_8  and  C6_9 
REMARK    5  A    between atoms: C5_8  and  C25_36 
REMARK    6  A    between atoms: C6_9  and  C7_10 
REMARK    7  A    between atoms: C21_28  and  N3_29 
ROOT
HETATM    1  C7  UNL     1      12.204  20.270  16.524  1.00  0.00     0.095 C 
HETATM    2  C8  UNL     1      13.218  20.918  17.415  1.00  0.00     0.099 C 
HETATM    3  S1  UNL     1      14.457  19.744  18.048  1.00  0.00    -0.167 SA
HETATM    4  C9  UNL     1      14.908  20.127  19.759  1.00  0.00     0.074 C 
HETATM    5  C10 UNL     1      15.762  21.383  19.839  1.00  0.00     0.012 C 
HETATM    6  C11 UNL     1      17.216  21.083  19.609  1.00  0.00     0.020 C 
HETATM    7  C12 UNL     1      18.102  21.883  20.505  1.00  0.00     0.122 C 
HETATM    8  N2  UNL     1      17.753  23.265  20.639  1.00  0.00    -0.361 N 
ATOM      9  H2  UNL     1      17.084  23.508  21.369  1.00  0.00     0.162 HD
HETATM   10  C13 UNL     1      18.260  24.327  19.841  1.00  0.00     0.217 C 
HETATM   11  O2  UNL     1      18.627  25.408  20.377  1.00  0.00    -0.274 OA
HETATM   12  C14 UNL     1      18.397  24.263  18.359  1.00  0.00     0.103 C 
HETATM   13  C15 UNL     1      17.997  25.625  17.833  1.00  0.00     0.009 C 
HETATM   14  C16 UNL     1      17.373  25.576  16.472  1.00  0.00     0.000 C 
HETATM   15  C17 UNL     1      18.026  24.621  15.524  1.00  0.00     0.000 C 
HETATM   16  C18 UNL     1      17.050  24.219  14.469  1.00  0.00     0.000 C 
HETATM   17  C19 UNL     1      16.507  22.829  14.832  1.00  0.00     0.003 C 
HETATM   18  C20 UNL     1      15.184  22.734  14.113  1.00  0.00     0.045 C 
HETATM   19  C21 UNL     1      14.487  21.418  14.273  1.00  0.00     0.313 C 
HETATM   20  C24 UNL     1      13.033  21.641  14.532  1.00  0.00     0.251 C 
HETATM   21  O3  UNL     1      12.553  22.757  14.111  1.00  0.00    -0.271 OA
HETATM   22  N4  UNL     1      12.153  20.772  15.175  1.00  0.00    -0.354 N 
ATOM     23  H4  UNL     1      11.365  20.447  14.614  1.00  0.00     0.162 HD
ENDROOT
BRANCH   1  24
HETATM   24  C6  UNL     1      10.863  20.114  17.146  1.00  0.00     0.051 C 
BRANCH  24  25
HETATM   25  C5  UNL     1      10.315  18.731  17.244  1.00  0.00     0.180 C 
BRANCH  25  26
HETATM   26  C4  UNL     1      10.280  17.961  15.994  1.00  0.00     0.232 C 
HETATM   27  N1  UNL     1      10.428  16.554  15.907  1.00  0.00    -0.360 N 
ATOM     28  H1  UNL     1      10.581  16.043  16.777  1.00  0.00     0.162 HD
HETATM   29  O1  UNL     1      10.102  18.571  14.892  1.00  0.00    -0.273 OA
BRANCH  27  30
HETATM   30  C3  UNL     1      10.381  15.788  14.685  1.00  0.00     0.122 C 
BRANCH  30  31
HETATM   31  C2  UNL     1       9.611  14.528  14.867  1.00  0.00     0.015 C 
HETATM   32  C1  UNL     1       9.730  14.043  16.317  1.00  0.00     0.006 C 
ENDBRANCH  30  31
ENDBRANCH  27  30
ENDBRANCH  25  26
BRANCH  25  33
HETATM   33  C25 UNL     1      11.183  18.004  18.223  1.00  0.00     0.186 C 
HETATM   34  O4  UNL     1      11.929  17.052  17.882  1.00  0.00    -0.647 OA
HETATM   35  O5  UNL     1      11.164  18.390  19.540  1.00  0.00    -0.647 OA
ENDBRANCH  25  33
ENDBRANCH  24  25
ENDBRANCH   1  24
BRANCH  19  36
HETATM   36  N3  UNL     1      14.672  20.548  13.127  1.00  0.00     0.093 N 
HETATM   37  C22 UNL     1      13.648  19.578  12.936  1.00  0.00     0.310 C 
HETATM   38  C23 UNL     1      14.901  21.265  11.907  1.00  0.00     0.310 C 
ENDBRANCH  19  36
TORSDOF 7
ENDMDL
MODEL 2
REMARK VINA RESULT: -7.526893197      2.507      8.645
REMARK  7 active torsions:
REMARK  status: ('A' for Active; 'I' for Inactive)
REMARK    1  A    between atoms: C2_2  and  C3_3 
REMARK    2  A    between atoms: C3_3  and  N1_4 
REMARK       I    between atoms: N1_4  and  C4_6 
REMARK    3  A    between atoms: C4_6  and  C5_8 
REMARK    4  A    between atoms: C5_8  and  C6_9 
REMARK    5  A    between atoms: C5_8  and  C25_36 
REMARK    6  A    between atoms: C6_9  and  C7_10 
REMARK    7  A    between atoms: C21_28  and  N3_29 
ROOT
HETATM    1  C7  UNL     1      16.329  21.656  16.630  1.00  0.00     0.095 C 
HETATM    2  C8  UNL     1      15.462  20.546  17.138  1.00  0.00     0.099 C 
HETATM    3  S1  UNL     1      14.516  21.009  18.622  1.00  0.00    -0.167 SA
HETATM    4  C9  UNL     1      14.397  19.624  19.782  1.00  0.00     0.074 C 
HETATM    5  C10 UNL     1      13.451  18.550  19.267  1.00  0.00     0.012 C 
HETATM    6  C11 UNL     1      12.021  18.857  19.613  1.00  0.00     0.020 C 
HETATM    7  C12 UNL     1      11.263  17.630  20.001  1.00  0.00     0.122 C 
HETATM    8  N2  UNL     1      11.484  16.484  19.172  1.00  0.00    -0.361 N 
ATOM      9  H2  UNL     1      12.262  15.873  19.419  1.00  0.00     0.162 HD
HETATM   10  C13 UNL     1      10.711  16.124  18.034  1.00  0.00     0.217 C 
HETATM   11  O2  UNL     1      10.352  14.928  17.859  1.00  0.00    -0.274 OA
HETATM   12  C14 UNL     1      10.273  17.089  16.987  1.00  0.00     0.103 C 
HETATM   13  C15 UNL     1      10.406  16.372  15.661  1.00  0.00     0.009 C 
HETATM   14  C16 UNL     1      10.732  17.287  14.521  1.00  0.00     0.000 C 
HETATM   15  C17 UNL     1       9.999  18.591  14.542  1.00  0.00     0.000 C 
HETATM   16  C18 UNL     1      10.768  19.609  13.769  1.00  0.00     0.000 C 
HETATM   17  C19 UNL     1      11.520  20.496  14.772  1.00  0.00     0.003 C 
HETATM   18  C20 UNL     1      12.664  21.083  13.983  1.00  0.00     0.045 C 
HETATM   19  C21 UNL     1      13.515  22.046  14.752  1.00  0.00     0.313 C 
HETATM   20  C24 UNL     1      14.959  21.783  14.476  1.00  0.00     0.251 C 
HETATM   21  O3  UNL     1      15.218  21.196  13.361  1.00  0.00    -0.271 OA
HETATM   22  N4  UNL     1      16.042  22.106  15.292  1.00  0.00    -0.354 N 
ATOM     23  H4  UNL     1      16.724  22.747  14.887  1.00  0.00     0.162 HD
ENDROOT
BRANCH   1  24
HETATM   24  C6  UNL     1      17.780  21.458  16.886  1.00  0.00     0.051 C 
BRANCH  24  25
HETATM   25  C5  UNL     1      18.524  22.594  17.501  1.00  0.00     0.180 C 
BRANCH  25  26
HETATM   26  C4  UNL     1      18.820  23.727  16.614  1.00  0.00     0.232 C 
HETATM   27  N1  UNL     1      19.709  24.786  16.927  1.00  0.00    -0.360 N 
ATOM     28  H1  UNL     1      20.166  24.763  17.838  1.00  0.00     0.162 HD
HETATM   29  O1  UNL     1      18.257  23.790  15.475  1.00  0.00    -0.273 OA
BRANCH  27  30
HETATM   30  C3  UNL     1      20.016  25.896  16.056  1.00  0.00     0.122 C 
BRANCH  30  31
HETATM   31  C2  UNL     1      21.370  25.753  15.458  1.00  0.00     0.015 C 
HETATM   32  C1  UNL     1      21.368  24.633  14.410  1.00  0.00     0.006 C 
ENDBRANCH  30  31
ENDBRANCH  27  30
ENDBRANCH  25  26
BRANCH  25  33
HETATM   33  C25 UNL     1      17.677  23.087  18.632  1.00  0.00     0.186 C 
HETATM   34  O4  UNL     1      17.539  22.439  19.700  1.00  0.00    -0.647 OA
HETATM   35  O5  UNL     1      17.028  24.290  18.499  1.00  0.00    -0.647 OA
ENDBRANCH  25  33
ENDBRANCH  24  25
ENDBRANCH   1  24
BRANCH  19  36
HETATM   36  N3  UNL     1      13.186  23.430  14.465  1.00  0.00     0.093 N 
HETATM   37  C22 UNL     1      12.082  23.615  13.585  1.00  0.00     0.310 C 
HETATM   38  C23 UNL     1      13.009  24.224  15.645  1.00  0.00     0.310 C 
ENDBRANCH  19  36
TORSDOF 7
ENDMDL
MODEL 3
REMARK VINA RESULT: -7.462195588      2.466      8.412
REMARK  7 active torsions:
REMARK  status: ('A' for Active; 'I' for Inactive)
REMARK    1  A    between atoms: C2_2  and  C3_3 
REMARK    2  A    between atoms: C3_3  and  N1_4 
REMARK       I    between atoms: N1_4  and  C4_6 
REMARK    3  A    between atoms: C4_6  and  C5_8 
REMARK    4  A    between atoms: C5_8  and  C6_9 
REMARK    5  A    between atoms: C5_8  and  C25_36 
REMARK    6  A    between atoms: C6_9  and  C7_10 
REMARK    7  A    between atoms: C21_28  and  N3_29 
ROOT
HETATM    1  C7  UNL     1      16.336  21.701  16.688  1.00  0.00     0.095 C 
HETATM    2  C8  UNL     1      15.471  20.585  17.186  1.00  0.00     0.099 C 
HETATM    3  S1  UNL     1      14.506  21.041  18.660  1.00  0.00    -0.167 SA
HETATM    4  C9  UNL     1      14.383  19.655  19.818  1.00  0.00     0.074 C 
HETATM    5  C10 UNL     1      13.450  18.575  19.292  1.00  0.00     0.012 C 
HETATM    6  C11 UNL     1      12.015  18.872  19.623  1.00  0.00     0.020 C 
HETATM    7  C12 UNL     1      11.261  17.640  20.002  1.00  0.00     0.122 C 
HETATM    8  N2  UNL     1      11.498  16.496  19.175  1.00  0.00    -0.361 N 
ATOM      9  H2  UNL     1      12.278  15.890  19.431  1.00  0.00     0.162 HD
HETATM   10  C13 UNL     1      10.741  16.131  18.029  1.00  0.00     0.217 C 
HETATM   11  O2  UNL     1      10.391  14.933  17.849  1.00  0.00    -0.274 OA
HETATM   12  C14 UNL     1      10.307  17.093  16.977  1.00  0.00     0.103 C 
HETATM   13  C15 UNL     1      10.460  16.377  15.653  1.00  0.00     0.009 C 
HETATM   14  C16 UNL     1      10.792  17.295  14.516  1.00  0.00     0.000 C 
HETATM   15  C17 UNL     1      10.051  18.593  14.530  1.00  0.00     0.000 C 
HETATM   16  C18 UNL     1      10.821  19.617  13.765  1.00  0.00     0.000 C 
HETATM   17  C19 UNL     1      11.556  20.509  14.777  1.00  0.00     0.003 C 
HETATM   18  C20 UNL     1      12.705  21.104  14.001  1.00  0.00     0.045 C 
HETATM   19  C21 UNL     1      13.541  22.073  14.779  1.00  0.00     0.313 C 
HETATM   20  C24 UNL     1      14.990  21.819  14.519  1.00  0.00     0.251 C 
HETATM   21  O3  UNL     1      15.265  21.234  13.407  1.00  0.00    -0.271 OA
HETATM   22  N4  UNL     1      16.061  22.149  15.348  1.00  0.00    -0.354 N 
ATOM     23  H4  UNL     1      16.743  22.794  14.950  1.00  0.00     0.162 HD
ENDROOT
BRANCH   1  24
HETATM   24  C6  UNL     1      17.785  21.512  16.961  1.00  0.00     0.051 C 
BRANCH  24  25
HETATM   25  C5  UNL     1      18.486  22.600  17.700  1.00  0.00     0.180 C 
BRANCH  25  26
HETATM   26  C4  UNL     1      19.189  23.592  16.875  1.00  0.00     0.232 C 
HETATM   27  N1  UNL     1      18.866  23.896  15.528  1.00  0.00    -0.360 N 
ATOM     28  H1  UNL     1      18.097  23.380  15.101  1.00  0.00     0.162 HD
HETATM   29  O1  UNL     1      20.159  24.245  17.376  1.00  0.00    -0.273 OA
BRANCH  27  30
HETATM   30  C3  UNL     1      19.542  24.878  14.714  1.00  0.00     0.122 C 
BRANCH  30  31
HETATM   31  C2  UNL     1      18.576  25.649  13.887  1.00  0.00     0.015 C 
HETATM   32  C1  UNL     1      17.138  25.314  14.304  1.00  0.00     0.006 C 
ENDBRANCH  30  31
ENDBRANCH  27  30
ENDBRANCH  25  26
BRANCH  25  33
HETATM   33  C25 UNL     1      17.438  23.307  18.500  1.00  0.00     0.186 C 
HETATM   34  O4  UNL     1      17.218  23.037  19.707  1.00  0.00    -0.647 OA
HETATM   35  O5  UNL     1      16.688  24.285  17.894  1.00  0.00    -0.647 OA
ENDBRANCH  25  33
ENDBRANCH  24  25
ENDBRANCH   1  24
BRANCH  19  36
HETATM   36  N3  UNL     1      13.206  23.454  14.489  1.00  0.00     0.093 N 
HETATM   37  C22 UNL     1      12.089  23.632  13.624  1.00  0.00     0.310 C 
HETATM   38  C23 UNL     1      13.046  24.255  15.667  1.00  0.00     0.310 C 
ENDBRANCH  19  36
TORSDOF 7
ENDMDL
MODEL 4
REMARK VINA RESULT: -7.302138022      3.370      6.365
REMARK  7 active torsions:
REMARK  status: ('A' for Active; 'I' for Inactive)
REMARK    1  A    between atoms: C2_2  and  C3_3 
REMARK    2  A    between atoms: C3_3  and  N1_4 
REMARK       I    between atoms: N1_4  and  C4_6 
REMARK    3  A    between atoms: C4_6  and  C5_8 
REMARK    4  A    between atoms: C5_8  and  C6_9 
REMARK    5  A    between atoms: C5_8  and  C25_36 
REMARK    6  A    between atoms: C6_9  and  C7_10 
REMARK    7  A    between atoms: C21_28  and  N3_29 
ROOT
HETATM    1  C7  UNL     1      16.024  22.895  14.842  1.00  0.00     0.095 C 
HETATM    2  C8  UNL     1      17.292  23.682  14.945  1.00  0.00     0.099 C 
HETATM    3  S1  UNL     1      17.023  25.478  14.823  1.00  0.00    -0.167 SA
HETATM    4  C9  UNL     1      18.357  26.280  13.900  1.00  0.00     0.074 C 
HETATM    5  C10 UNL     1      19.644  26.324  14.711  1.00  0.00     0.012 C 
HETATM    6  C11 UNL     1      19.679  27.510  15.632  1.00  0.00     0.020 C 
HETATM    7  C12 UNL     1      21.039  28.123  15.705  1.00  0.00     0.122 C 
HETATM    8  N2  UNL     1      22.124  27.197  15.820  1.00  0.00    -0.361 N 
ATOM      9  H2  UNL     1      22.522  26.835  14.953  1.00  0.00     0.162 HD
HETATM   10  C13 UNL     1      22.696  26.739  17.039  1.00  0.00     0.217 C 
HETATM   11  O2  UNL     1      23.948  26.672  17.171  1.00  0.00    -0.274 OA
HETATM   12  C14 UNL     1      21.900  26.314  18.224  1.00  0.00     0.103 C 
HETATM   13  C15 UNL     1      22.607  25.109  18.804  1.00  0.00     0.009 C 
HETATM   14  C16 UNL     1      21.677  24.136  19.464  1.00  0.00     0.000 C 
HETATM   15  C17 UNL     1      20.588  24.767  20.271  1.00  0.00     0.000 C 
HETATM   16  C18 UNL     1      19.441  23.821  20.389  1.00  0.00     0.000 C 
HETATM   17  C19 UNL     1      18.366  24.253  19.379  1.00  0.00     0.003 C 
HETATM   18  C20 UNL     1      17.547  23.010  19.135  1.00  0.00     0.045 C 
HETATM   19  C21 UNL     1      16.383  23.208  18.213  1.00  0.00     0.313 C 
HETATM   20  C24 UNL     1      16.300  22.073  17.246  1.00  0.00     0.251 C 
HETATM   21  O3  UNL     1      16.843  20.971  17.627  1.00  0.00    -0.271 OA
HETATM   22  N4  UNL     1      15.700  22.085  15.988  1.00  0.00    -0.354 N 
ATOM     23  H4  UNL     1      14.927  21.432  15.862  1.00  0.00     0.162 HD
ENDROOT
BRANCH   1  24
HETATM   24  C6  UNL     1      15.859  22.179  13.549  1.00  0.00     0.051 C 
BRANCH  24  25
HETATM   25  C5  UNL     1      14.847  21.084  13.502  1.00  0.00     0.180 C 
BRANCH  25  26
HETATM   26  C4  UNL     1      13.636  21.290  14.307  1.00  0.00     0.232 C 
HETATM   27  N1  UNL     1      12.901  20.256  14.939  1.00  0.00    -0.360 N 
ATOM     28  H1  UNL     1      13.234  19.299  14.816  1.00  0.00     0.162 HD
HETATM   29  O1  UNL     1      13.190  22.470  14.471  1.00  0.00    -0.273 OA
BRANCH  27  30
HETATM   30  C3  UNL     1      11.719  20.450  15.744  1.00  0.00     0.122 C 
BRANCH  30  31
HETATM   31  C2  UNL     1      10.504  19.952  15.045  1.00  0.00     0.015 C 
HETATM   32  C1  UNL     1       9.822  21.099  14.290  1.00  0.00     0.006 C 
ENDBRANCH  30  31
ENDBRANCH  27  30
ENDBRANCH  25  26
BRANCH  25  33
HETATM   33  C25 UNL     1      14.443  20.948  12.067  1.00  0.00     0.186 C 
HETATM   34  O4  UNL     1      13.695  20.022  11.665  1.00  0.00    -0.647 OA
HETATM   35  O5  UNL     1      14.908  21.865  11.157  1.00  0.00    -0.647 OA
ENDBRANCH  25  33
ENDBRANCH  24  25
ENDBRANCH   1  24
BRANCH  19  36
HETATM   36  N3  UNL     1      15.130  23.361  18.927  1.00  0.00     0.093 N 
HETATM   37  C22 UNL     1      14.107  24.042  18.208  1.00  0.00     0.310 C 
HETATM   38  C23 UNL     1      14.622  22.124  19.447  1.00  0.00     0.310 C 
ENDBRANCH  19  36
TORSDOF 7
ENDMDL
MODEL 5
REMARK VINA RESULT: -7.026821941      3.328      6.277
REMARK  7 active torsions:
REMARK  status: ('A' for Active; 'I' for Inactive)
REMARK    1  A    between atoms: C2_2  and  C3_3 
REMARK    2  A    between atoms: C3_3  and  N1_4 
REMARK       I    between atoms: N1_4  and  C4_6 
REMARK    3  A    between atoms: C4_6  and  C5_8 
REMARK    4  A    between atoms: C5_8  and  C6_9 
REMARK    5  A    between atoms: C5_8  and  C25_36 
REMARK    6  A    between atoms: C6_9  and  C7_10 
REMARK    7  A    between atoms: C21_28  and  N3_29 
ROOT
HETATM    1  C7  UNL     1      16.030  22.358  14.713  1.00  0.00     0.095 C 
HETATM    2  C8  UNL     1      17.250  23.221  14.801  1.00  0.00     0.099 C 
HETATM    3  S1  UNL     1      16.900  24.977  14.471  1.00  0.00    -0.167 SA
HETATM    4  C9  UNL     1      18.248  25.750  13.543  1.00  0.00     0.074 C 
HETATM    5  C10 UNL     1      19.478  25.950  14.415  1.00  0.00     0.012 C 
HETATM    6  C11 UNL     1      19.399  27.226  15.204  1.00  0.00     0.020 C 
HETATM    7  C12 UNL     1      20.720  27.918  15.285  1.00  0.00     0.122 C 
HETATM    8  N2  UNL     1      21.840  27.071  15.560  1.00  0.00    -0.361 N 
ATOM      9  H2  UNL     1      22.307  26.642  14.761  1.00  0.00     0.162 HD
HETATM   10  C13 UNL     1      22.358  26.775  16.851  1.00  0.00     0.217 C 
HETATM   11  O2  UNL     1      23.602  26.792  17.059  1.00  0.00    -0.274 OA
HETATM   12  C14 UNL     1      21.512  26.434  18.029  1.00  0.00     0.103 C 
HETATM   13  C15 UNL     1      22.241  25.337  18.774  1.00  0.00     0.009 C 
HETATM   14  C16 UNL     1      21.321  24.388  19.482  1.00  0.00     0.000 C 
HETATM   15  C17 UNL     1      20.155  25.039  20.155  1.00  0.00     0.000 C 
HETATM   16  C18 UNL     1      19.050  24.048  20.309  1.00  0.00     0.000 C 
HETATM   17  C19 UNL     1      18.020  24.312  19.200  1.00  0.00     0.003 C 
HETATM   18  C20 UNL     1      17.280  23.006  19.046  1.00  0.00     0.045 C 
HETATM   19  C21 UNL     1      16.166  23.042  18.045  1.00  0.00     0.313 C 
HETATM   20  C24 UNL     1      16.199  21.809  17.203  1.00  0.00     0.251 C 
HETATM   21  O3  UNL     1      16.771  20.785  17.730  1.00  0.00    -0.271 OA
HETATM   22  N4  UNL     1      15.677  21.656  15.919  1.00  0.00    -0.354 N 
ATOM     23  H4  UNL     1      14.946  20.952  15.822  1.00  0.00     0.162 HD
ENDROOT
BRANCH   1  24
HETATM   24  C6  UNL     1      15.981  21.502  13.498  1.00  0.00     0.051 C 
BRANCH  24  25
HETATM   25  C5  UNL     1      14.670  21.394  12.795  1.00  0.00     0.180 C 
BRANCH  25  26
HETATM   26  C4  UNL     1      13.660  20.545  13.442  1.00  0.00     0.232 C 
HETATM   27  N1  UNL     1      12.781  20.975  14.467  1.00  0.00    -0.360 N 
ATOM     28  H1  UNL     1      12.864  21.941  14.784  1.00  0.00     0.162 HD
HETATM   29  O1  UNL     1      13.539  19.333  13.076  1.00  0.00    -0.273 OA
BRANCH  27  30
HETATM   30  C3  UNL     1      11.777  20.153  15.098  1.00  0.00     0.122 C 
BRANCH  30  31
HETATM   31  C2  UNL     1      10.558  20.045  14.253  1.00  0.00     0.015 C 
HETATM   32  C1  UNL     1       9.573  21.167  14.601  1.00  0.00     0.006 C 
ENDBRANCH  30  31
ENDBRANCH  27  30
ENDBRANCH  25  26
BRANCH  25  33
HETATM   33  C25 UNL     1      14.128  22.785  12.699  1.00  0.00     0.186 C 
HETATM   34  O4  UNL     1      13.089  23.144  13.307  1.00  0.00    -0.647 OA
HETATM   35  O5  UNL     1      14.789  23.702  11.920  1.00  0.00    -0.647 OA
ENDBRANCH  25  33
ENDBRANCH  24  25
ENDBRANCH   1  24
BRANCH  19  36
HETATM   36  N3  UNL     1      14.865  23.199  18.668  1.00  0.00     0.093 N 
HETATM   37  C22 UNL     1      13.963  24.050  17.969  1.00  0.00     0.310 C 
HETATM   38  C23 UNL     1      14.228  21.950  18.966  1.00  0.00     0.310 C 
ENDBRANCH  19  36
TORSDOF 7
ENDMDL
