MODEL 1
REMARK VINA RESULT: -9.672029551      0.000      0.000
REMARK  10 active torsions:
REMARK  status: ('A' for Active; 'I' for Inactive)
REMARK    1  A    between atoms: C2_2  and  C3_3 
REMARK    2  A    between atoms: C3_3  and  C5_5 
REMARK    3  A    between atoms: C5_5  and  N1_6 
REMARK    4  A    between atoms: C5_5  and  C12_14 
REMARK    5  A    between atoms: C12_14  and  O1_15 
REMARK    6  A    between atoms: C12_14  and  C13_17 
REMARK    7  A    between atoms: C13_17  and  C14_18 
REMARK    8  A    between atoms: C18_22  and  C19_23 
REMARK    9  A    between atoms: C23_32  and  C24_33 
REMARK   10  A    between atoms: C24_33  and  C25_34 
ROOT
HETATM    1  C14 UNL     1      18.118  23.235  18.875  1.00  0.00     0.080 C 
HETATM    2  C15 UNL     1      19.154  22.700  19.819  1.00  0.00     0.014 C 
HETATM    3  C16 UNL     1      20.049  23.849  20.305  1.00  0.00     0.003 C 
HETATM    4  C17 UNL     1      21.472  23.614  19.835  1.00  0.00     0.034 C 
HETATM    5  C18 UNL     1      22.253  24.869  19.730  1.00  0.00     0.174 C 
HETATM    6  N3  UNL     1      21.941  25.774  18.660  1.00  0.00    -0.344 N 
ATOM      7  H3  UNL     1      22.644  26.497  18.510  1.00  0.00     0.163 HD
HETATM    8  C20 UNL     1      20.857  25.847  17.790  1.00  0.00     0.246 C 
HETATM    9  O3  UNL     1      20.064  26.849  17.951  1.00  0.00    -0.268 OA
HETATM   10  C21 UNL     1      20.437  24.955  16.678  1.00  0.00     0.007 C 
HETATM   11  C22 UNL     1      21.442  24.937  15.537  1.00  0.00     0.051 C 
HETATM   12  C23 UNL     1      19.022  25.036  16.319  1.00  0.00     0.134 C 
HETATM   13  N5  UNL     1      18.457  23.662  16.359  1.00  0.00    -0.351 N 
ATOM     14  H5  UNL     1      18.044  23.300  15.499  1.00  0.00     0.163 HD
HETATM   15  C30 UNL     1      18.444  22.830  17.469  1.00  0.00     0.222 C 
HETATM   16  O4  UNL     1      18.731  21.592  17.332  1.00  0.00    -0.273 OA
ENDROOT
BRANCH   1  17
HETATM   17  C13 UNL     1      16.702  22.894  19.231  1.00  0.00     0.052 C 
BRANCH  17  18
HETATM   18  C12 UNL     1      15.641  23.673  18.561  1.00  0.00     0.164 C 
BRANCH  18  19
HETATM   19  C5  UNL     1      14.732  22.712  17.777  1.00  0.00     0.019 C 
BRANCH  19  20
HETATM   20  C3  UNL     1      14.887  22.903  16.296  1.00  0.00     0.029 C 
HETATM   21  C4  UNL     1      13.524  23.284  15.684  1.00  0.00     0.016 C 
BRANCH  20  22
HETATM   22  C2  UNL     1      15.507  21.801  15.527  1.00  0.00     0.006 C 
HETATM   23  C1  UNL     1      15.034  21.727  14.078  1.00  0.00     0.006 C 
ENDBRANCH  20  22
ENDBRANCH  19  20
BRANCH  19  24
HETATM   24  N1  UNL     1      14.599  21.460  18.256  1.00  0.00    -0.367 N 
HETATM   25  C6  UNL     1      14.094  20.425  18.521  1.00  0.00    -0.014 C 
HETATM   26  C7  UNL     1      14.902  19.353  19.239  1.00  0.00     0.052 C 
HETATM   27  C11 UNL     1      12.699  20.019  18.226  1.00  0.00     0.052 C 
HETATM   28  C8  UNL     1      14.112  18.935  20.461  1.00  0.00     0.006 C 
HETATM   29  C9  UNL     1      12.740  18.413  20.101  1.00  0.00     0.001 C 
HETATM   30  C10 UNL     1      12.436  18.569  18.642  1.00  0.00     0.006 C 
ATOM     31  H1  UNL     1      15.536  21.308  18.630  1.00  0.00     0.165 HD
ENDBRANCH  19  24
ENDBRANCH  18  19
BRANCH  18  32
HETATM   32  O1  UNL     1      15.961  24.724  17.788  1.00  0.00    -0.390 OA
ATOM     33  H1  UNL     1      15.279  25.384  17.847  1.00  0.00     0.210 HD
ENDBRANCH  18  32
ENDBRANCH  17  18
ENDBRANCH   1  17
BRANCH  12  34
HETATM   34  C24 UNL     1      18.476  25.688  15.142  1.00  0.00     0.033 A 
HETATM   35  C28 UNL     1      17.120  25.818  14.648  1.00  0.00     0.020 A 
HETATM   36  C29 UNL     1      17.996  24.829  13.968  1.00  0.00     0.020 A 
BRANCH  34  37
HETATM   37  C25 UNL     1      19.396  26.808  14.635  1.00  0.00     0.061 A 
HETATM   38  N4  UNL     1      19.945  27.780  15.314  1.00  0.00    -0.362 N 
HETATM   39  C26 UNL     1      20.703  28.648  14.714  1.00  0.00     0.096 A 
ATOM     40  H4  UNL     1      19.780  27.856  16.318  1.00  0.00     0.165 HD
HETATM   41  C27 UNL     1      20.888  28.492  13.362  1.00  0.00     0.068 A 
HETATM   42  S1  UNL     1      19.953  27.096  13.048  1.00  0.00    -0.086 SA
ENDBRANCH  34  37
ENDBRANCH  12  34
BRANCH   5  43
HETATM   43  C19 UNL     1      22.161  25.543  21.065  1.00  0.00     0.254 C 
HETATM   44  N2  UNL     1      21.538  26.789  21.255  1.00  0.00    -0.060 NA
HETATM   45  O2  UNL     1      22.680  24.934  22.062  1.00  0.00    -0.275 OA
ENDBRANCH   5  43
TORSDOF 10
ENDMDL
MODEL 2
REMARK VINA RESULT: -9.512016724      1.273      2.908
REMARK  10 active torsions:
REMARK  status: ('A' for Active; 'I' for Inactive)
REMARK    1  A    between atoms: C2_2  and  C3_3 
REMARK    2  A    between atoms: C3_3  and  C5_5 
REMARK    3  A    between atoms: C5_5  and  N1_6 
REMARK    4  A    between atoms: C5_5  and  C12_14 
REMARK    5  A    between atoms: C12_14  and  O1_15 
REMARK    6  A    between atoms: C12_14  and  C13_17 
REMARK    7  A    between atoms: C13_17  and  C14_18 
REMARK    8  A    between atoms: C18_22  and  C19_23 
REMARK    9  A    between atoms: C23_32  and  C24_33 
REMARK   10  A    between atoms: C24_33  and  C25_34 
ROOT
HETATM    1  C14 UNL     1      17.382  24.068  17.811  1.00  0.00     0.080 C 
HETATM    2  C15 UNL     1      18.039  23.245  18.880  1.00  0.00     0.014 C 
HETATM    3  C16 UNL     1      19.046  24.111  19.649  1.00  0.00     0.003 C 
HETATM    4  C17 UNL     1      20.444  23.558  19.447  1.00  0.00     0.034 C 
HETATM    5  C18 UNL     1      21.496  24.586  19.629  1.00  0.00     0.174 C 
HETATM    6  N3  UNL     1      21.638  25.596  18.618  1.00  0.00    -0.344 N 
ATOM      7  H3  UNL     1      22.504  26.131  18.685  1.00  0.00     0.163 HD
HETATM    8  C20 UNL     1      20.814  25.980  17.564  1.00  0.00     0.246 C 
HETATM    9  O3  UNL     1      20.257  27.136  17.670  1.00  0.00    -0.268 OA
HETATM   10  C21 UNL     1      20.452  25.279  16.305  1.00  0.00     0.007 C 
HETATM   11  C22 UNL     1      21.648  25.076  15.388  1.00  0.00     0.051 C 
HETATM   12  C23 UNL     1      19.205  25.725  15.685  1.00  0.00     0.134 C 
HETATM   13  N5  UNL     1      18.344  24.532  15.470  1.00  0.00    -0.351 N 
ATOM     14  H5  UNL     1      18.056  24.330  14.512  1.00  0.00     0.163 HD
HETATM   15  C30 UNL     1      17.902  23.671  16.463  1.00  0.00     0.222 C 
HETATM   16  O4  UNL     1      17.920  22.410  16.257  1.00  0.00    -0.273 OA
ENDROOT
BRANCH   1  17
HETATM   17  C13 UNL     1      15.883  24.068  17.845  1.00  0.00     0.052 C 
BRANCH  17  18
HETATM   18  C12 UNL     1      15.237  23.062  18.712  1.00  0.00     0.164 C 
BRANCH  18  19
HETATM   19  C5  UNL     1      15.190  21.716  17.972  1.00  0.00     0.019 C 
BRANCH  19  20
HETATM   20  C3  UNL     1      14.493  20.668  18.792  1.00  0.00     0.029 C 
HETATM   21  C4  UNL     1      15.266  20.450  20.108  1.00  0.00     0.016 C 
BRANCH  20  22
HETATM   22  C2  UNL     1      14.208  19.370  18.141  1.00  0.00     0.006 C 
HETATM   23  C1  UNL     1      14.374  18.172  19.071  1.00  0.00     0.006 C 
ENDBRANCH  20  22
ENDBRANCH  19  20
BRANCH  19  24
HETATM   24  N1  UNL     1      14.967  21.749  16.644  1.00  0.00    -0.367 N 
HETATM   25  C6  UNL     1      14.377  21.834  15.623  1.00  0.00    -0.014 C 
HETATM   26  C7  UNL     1      15.133  21.728  14.305  1.00  0.00     0.052 C 
HETATM   27  C11 UNL     1      12.919  22.040  15.457  1.00  0.00     0.052 C 
HETATM   28  C8  UNL     1      14.450  20.659  13.479  1.00  0.00     0.006 C 
HETATM   29  C9  UNL     1      12.993  20.973  13.231  1.00  0.00     0.001 C 
HETATM   30  C10 UNL     1      12.537  22.188  13.981  1.00  0.00     0.006 C 
ATOM     31  H1  UNL     1      15.917  21.617  16.296  1.00  0.00     0.165 HD
ENDBRANCH  19  24
ENDBRANCH  18  19
BRANCH  18  32
HETATM   32  O1  UNL     1      14.040  23.317  19.265  1.00  0.00    -0.390 OA
ATOM     33  H1  UNL     1      14.116  24.046  19.871  1.00  0.00     0.210 HD
ENDBRANCH  18  32
ENDBRANCH  17  18
ENDBRANCH   1  17
BRANCH  12  34
HETATM   34  C24 UNL     1      19.091  26.554  14.497  1.00  0.00     0.033 A 
HETATM   35  C28 UNL     1      17.956  26.909  13.670  1.00  0.00     0.020 A 
HETATM   36  C29 UNL     1      18.888  25.882  13.136  1.00  0.00     0.020 A 
BRANCH  34  37
HETATM   37  C25 UNL     1      20.224  27.585  14.414  1.00  0.00     0.061 A 
HETATM   38  N4  UNL     1      20.788  28.256  15.384  1.00  0.00    -0.362 N 
HETATM   39  C26 UNL     1      21.743  29.098  15.125  1.00  0.00     0.096 A 
ATOM     40  H4  UNL     1      20.478  28.117  16.346  1.00  0.00     0.165 HD
HETATM   41  C27 UNL     1      22.116  29.241  13.811  1.00  0.00     0.068 A 
HETATM   42  S1  UNL     1      21.059  28.145  13.034  1.00  0.00    -0.086 SA
ENDBRANCH  34  37
ENDBRANCH  12  34
BRANCH   5  43
HETATM   43  C19 UNL     1      21.275  25.189  20.982  1.00  0.00     0.254 C 
HETATM   44  N2  UNL     1      21.073  26.566  21.186  1.00  0.00    -0.060 NA
HETATM   45  O2  UNL     1      21.273  24.393  21.982  1.00  0.00    -0.275 OA
ENDBRANCH   5  43
TORSDOF 10
ENDMDL
MODEL 3
REMARK VINA RESULT: -9.372929627      1.207      1.359
REMARK  10 active torsions:
REMARK  status: ('A' for Active; 'I' for Inactive)
REMARK    1  A    between atoms: C2_2  and  C3_3 
REMARK    2  A    between atoms: C3_3  and  C5_5 
REMARK    3  A    between atoms: C5_5  and  N1_6 
REMARK    4  A    between atoms: C5_5  and  C12_14 
REMARK    5  A    between atoms: C12_14  and  O1_15 
REMARK    6  A    between atoms: C12_14  and  C13_17 
REMARK    7  A    between atoms: C13_17  and  C14_18 
REMARK    8  A    between atoms: C18_22  and  C19_23 
REMARK    9  A    between atoms: C23_32  and  C24_33 
REMARK   10  A    between atoms: C24_33  and  C25_34 
ROOT
HETATM    1  C14 UNL     1      17.090  23.880  17.528  1.00  0.00     0.080 C 
HETATM    2  C15 UNL     1      17.669  22.957  18.560  1.00  0.00     0.014 C 
HETATM    3  C16 UNL     1      18.662  23.728  19.441  1.00  0.00     0.003 C 
HETATM    4  C17 UNL     1      20.051  23.146  19.263  1.00  0.00     0.034 C 
HETATM    5  C18 UNL     1      21.123  24.120  19.573  1.00  0.00     0.174 C 
HETATM    6  N3  UNL     1      21.346  25.198  18.651  1.00  0.00    -0.344 N 
ATOM      7  H3  UNL     1      22.223  25.698  18.800  1.00  0.00     0.163 HD
HETATM    8  C20 UNL     1      20.587  25.688  17.592  1.00  0.00     0.246 C 
HETATM    9  O3  UNL     1      20.060  26.851  17.760  1.00  0.00    -0.268 OA
HETATM   10  C21 UNL     1      20.267  25.098  16.266  1.00  0.00     0.007 C 
HETATM   11  C22 UNL     1      21.500  24.924  15.394  1.00  0.00     0.051 C 
HETATM   12  C23 UNL     1      19.066  25.630  15.625  1.00  0.00     0.134 C 
HETATM   13  N5  UNL     1      18.182  24.487  15.278  1.00  0.00    -0.351 N 
ATOM     14  H5  UNL     1      17.935  24.367  14.295  1.00  0.00     0.163 HD
HETATM   15  C30 UNL     1      17.665  23.569  16.180  1.00  0.00     0.222 C 
HETATM   16  O4  UNL     1      17.656  22.327  15.878  1.00  0.00    -0.273 OA
ENDROOT
BRANCH   1  17
HETATM   17  C13 UNL     1      15.593  23.927  17.491  1.00  0.00     0.052 C 
BRANCH  17  18
HETATM   18  C12 UNL     1      14.875  23.001  18.391  1.00  0.00     0.164 C 
BRANCH  18  19
HETATM   19  C5  UNL     1      14.099  21.979  17.545  1.00  0.00     0.019 C 
BRANCH  19  20
HETATM   20  C3  UNL     1      14.312  22.213  16.077  1.00  0.00     0.029 C 
HETATM   21  C4  UNL     1      13.171  23.092  15.528  1.00  0.00     0.016 C 
BRANCH  20  22
HETATM   22  C2  UNL     1      14.506  21.024  15.218  1.00  0.00     0.006 C 
HETATM   23  C1  UNL     1      14.822  21.368  13.765  1.00  0.00     0.006 C 
ENDBRANCH  20  22
ENDBRANCH  19  20
BRANCH  19  24
HETATM   24  N1  UNL     1      14.056  20.711  17.997  1.00  0.00    -0.367 N 
HETATM   25  C6  UNL     1      13.604  19.679  18.356  1.00  0.00    -0.014 C 
HETATM   26  C7  UNL     1      14.539  18.553  18.777  1.00  0.00     0.052 C 
HETATM   27  C11 UNL     1      12.168  19.327  18.453  1.00  0.00     0.052 C 
HETATM   28  C8  UNL     1      14.108  18.101  20.156  1.00  0.00     0.006 C 
HETATM   29  C9  UNL     1      12.670  17.635  20.180  1.00  0.00     0.001 C 
HETATM   30  C10 UNL     1      11.975  17.867  18.873  1.00  0.00     0.006 C 
ATOM     31  H1  UNL     1      15.053  20.515  18.085  1.00  0.00     0.165 HD
ENDBRANCH  19  24
ENDBRANCH  18  19
BRANCH  18  32
HETATM   32  O1  UNL     1      14.080  23.484  19.360  1.00  0.00    -0.390 OA
ATOM     33  H1  UNL     1      13.666  22.764  19.823  1.00  0.00     0.210 HD
ENDBRANCH  18  32
ENDBRANCH  17  18
ENDBRANCH   1  17
BRANCH  12  34
HETATM   34  C24 UNL     1      19.035  26.550  14.500  1.00  0.00     0.033 A 
HETATM   35  C28 UNL     1      17.950  27.020  13.664  1.00  0.00     0.020 A 
HETATM   36  C29 UNL     1      18.854  25.992  13.086  1.00  0.00     0.020 A 
BRANCH  34  37
HETATM   37  C25 UNL     1      20.218  27.528  14.535  1.00  0.00     0.061 A 
HETATM   38  N4  UNL     1      20.751  28.124  15.568  1.00  0.00    -0.362 N 
HETATM   39  C26 UNL     1      21.758  28.930  15.408  1.00  0.00     0.096 A 
ATOM     40  H4  UNL     1      20.377  27.956  16.502  1.00  0.00     0.165 HD
HETATM   41  C27 UNL     1      22.216  29.116  14.128  1.00  0.00     0.068 A 
HETATM   42  S1  UNL     1      21.160  28.110  13.236  1.00  0.00    -0.086 SA
ENDBRANCH  34  37
ENDBRANCH  12  34
BRANCH   5  43
HETATM   43  C19 UNL     1      20.853  24.627  20.957  1.00  0.00     0.254 C 
HETATM   44  N2  UNL     1      20.728  25.993  21.264  1.00  0.00    -0.060 NA
HETATM   45  O2  UNL     1      20.734  23.755  21.884  1.00  0.00    -0.275 OA
ENDBRANCH   5  43
TORSDOF 10
ENDMDL
MODEL 4
REMARK VINA RESULT: -9.184773869      2.829      5.573
REMARK  10 active torsions:
REMARK  status: ('A' for Active; 'I' for Inactive)
REMARK    1  A    between atoms: C2_2  and  C3_3 
REMARK    2  A    between atoms: C3_3  and  C5_5 
REMARK    3  A    between atoms: C5_5  and  N1_6 
REMARK    4  A    between atoms: C5_5  and  C12_14 
REMARK    5  A    between atoms: C12_14  and  O1_15 
REMARK    6  A    between atoms: C12_14  and  C13_17 
REMARK    7  A    between atoms: C13_17  and  C14_18 
REMARK    8  A    between atoms: C18_22  and  C19_23 
REMARK    9  A    between atoms: C23_32  and  C24_33 
REMARK   10  A    between atoms: C24_33  and  C25_34 
ROOT
HETATM    1  C14 UNL     1      18.982  24.981  16.396  1.00  0.00     0.080 C 
HETATM    2  C15 UNL     1      18.844  26.157  15.475  1.00  0.00     0.014 C 
HETATM    3  C16 UNL     1      20.234  26.720  15.147  1.00  0.00     0.003 C 
HETATM    4  C17 UNL     1      20.345  28.135  15.682  1.00  0.00     0.034 C 
HETATM    5  C18 UNL     1      21.746  28.539  15.943  1.00  0.00     0.174 C 
HETATM    6  N3  UNL     1      22.421  27.953  17.067  1.00  0.00    -0.344 N 
ATOM      7  H3  UNL     1      23.288  28.425  17.323  1.00  0.00     0.163 HD
HETATM    8  C20 UNL     1      22.111  26.860  17.872  1.00  0.00     0.246 C 
HETATM    9  O3  UNL     1      22.874  25.829  17.750  1.00  0.00    -0.268 OA
HETATM   10  C21 UNL     1      21.032  26.662  18.874  1.00  0.00     0.007 C 
HETATM   11  C22 UNL     1      21.171  27.591  20.069  1.00  0.00     0.051 C 
HETATM   12  C23 UNL     1      20.692  25.267  19.150  1.00  0.00     0.134 C 
HETATM   13  N5  UNL     1      19.228  25.101  18.955  1.00  0.00    -0.351 N 
ATOM     14  H5  UNL     1      18.684  24.773  19.754  1.00  0.00     0.163 HD
HETATM   15  C30 UNL     1      18.540  25.356  17.778  1.00  0.00     0.222 C 
HETATM   16  O4  UNL     1      17.418  25.966  17.825  1.00  0.00    -0.273 OA
ENDROOT
BRANCH   1  17
HETATM   17  C13 UNL     1      18.311  23.727  15.925  1.00  0.00     0.052 C 
BRANCH  17  18
HETATM   18  C12 UNL     1      16.891  23.553  16.294  1.00  0.00     0.164 C 
BRANCH  18  19
HETATM   19  C5  UNL     1      16.508  22.073  16.134  1.00  0.00     0.019 C 
BRANCH  19  20
HETATM   20  C3  UNL     1      16.369  21.400  17.469  1.00  0.00     0.029 C 
HETATM   21  C4  UNL     1      15.142  21.972  18.206  1.00  0.00     0.016 C 
BRANCH  20  22
HETATM   22  C2  UNL     1      17.551  21.399  18.360  1.00  0.00     0.006 C 
HETATM   23  C1  UNL     1      17.313  22.110  19.689  1.00  0.00     0.006 C 
ENDBRANCH  20  22
ENDBRANCH  19  20
BRANCH  19  24
HETATM   24  N1  UNL     1      15.629  21.765  15.162  1.00  0.00    -0.367 N 
HETATM   25  C6  UNL     1      14.594  21.644  14.603  1.00  0.00    -0.014 C 
HETATM   26  C7  UNL     1      14.560  21.063  13.197  1.00  0.00     0.052 C 
HETATM   27  C11 UNL     1      13.256  22.006  15.129  1.00  0.00     0.052 C 
HETATM   28  C8  UNL     1      13.571  19.916  13.206  1.00  0.00     0.006 C 
HETATM   29  C9  UNL     1      12.190  20.358  13.632  1.00  0.00     0.001 C 
HETATM   30  C10 UNL     1      12.163  21.787  14.080  1.00  0.00     0.006 C 
ATOM     31  H1  UNL     1      16.264  21.402  14.450  1.00  0.00     0.165 HD
ENDBRANCH  19  24
ENDBRANCH  18  19
BRANCH  18  32
HETATM   32  O1  UNL     1      15.948  24.327  15.733  1.00  0.00    -0.390 OA
ATOM     33  H1  UNL     1      15.803  24.055  14.833  1.00  0.00     0.210 HD
ENDBRANCH  18  32
ENDBRANCH  17  18
ENDBRANCH   1  17
BRANCH  12  34
HETATM   34  C24 UNL     1      21.051  24.521  20.344  1.00  0.00     0.033 A 
HETATM   35  C28 UNL     1      20.373  23.465  21.067  1.00  0.00     0.020 A 
HETATM   36  C29 UNL     1      20.329  24.827  21.659  1.00  0.00     0.020 A 
BRANCH  34  37
HETATM   37  C25 UNL     1      22.570  24.504  20.567  1.00  0.00     0.061 A 
HETATM   38  N4  UNL     1      23.494  23.935  19.838  1.00  0.00    -0.362 N 
HETATM   39  C26 UNL     1      24.743  24.023  20.184  1.00  0.00     0.096 A 
ATOM     40  H4  UNL     1      23.233  23.422  18.996  1.00  0.00     0.165 HD
HETATM   41  C27 UNL     1      25.031  24.727  21.327  1.00  0.00     0.068 A 
HETATM   42  S1  UNL     1      23.472  25.218  21.828  1.00  0.00    -0.086 SA
ENDBRANCH  34  37
ENDBRANCH  12  34
BRANCH   5  43
HETATM   43  C19 UNL     1      22.502  28.313  14.669  1.00  0.00     0.254 C 
HETATM   44  N2  UNL     1      22.009  28.689  13.407  1.00  0.00    -0.060 NA
HETATM   45  O2  UNL     1      23.647  27.752  14.762  1.00  0.00    -0.275 OA
ENDBRANCH   5  43
TORSDOF 10
ENDMDL
MODEL 5
REMARK VINA RESULT: -9.086509234      0.978      1.297
REMARK  10 active torsions:
REMARK  status: ('A' for Active; 'I' for Inactive)
REMARK    1  A    between atoms: C2_2  and  C3_3 
REMARK    2  A    between atoms: C3_3  and  C5_5 
REMARK    3  A    between atoms: C5_5  and  N1_6 
REMARK    4  A    between atoms: C5_5  and  C12_14 
REMARK    5  A    between atoms: C12_14  and  O1_15 
REMARK    6  A    between atoms: C12_14  and  C13_17 
REMARK    7  A    between atoms: C13_17  and  C14_18 
REMARK    8  A    between atoms: C18_22  and  C19_23 
REMARK    9  A    between atoms: C23_32  and  C24_33 
REMARK   10  A    between atoms: C24_33  and  C25_34 
ROOT
HETATM    1  C14 UNL     1      17.605  23.904  18.167  1.00  0.00     0.080 C 
HETATM    2  C15 UNL     1      18.384  23.163  19.213  1.00  0.00     0.014 C 
HETATM    3  C16 UNL     1      19.390  24.116  19.877  1.00  0.00     0.003 C 
HETATM    4  C17 UNL     1      20.801  23.637  19.593  1.00  0.00     0.034 C 
HETATM    5  C18 UNL     1      21.798  24.730  19.662  1.00  0.00     0.174 C 
HETATM    6  N3  UNL     1      21.808  25.706  18.608  1.00  0.00    -0.344 N 
ATOM      7  H3  UNL     1      22.643  26.292  18.593  1.00  0.00     0.163 HD
HETATM    8  C20 UNL     1      20.890  25.999  17.604  1.00  0.00     0.246 C 
HETATM    9  O3  UNL     1      20.273  27.125  17.709  1.00  0.00    -0.268 OA
HETATM   10  C21 UNL     1      20.483  25.230  16.400  1.00  0.00     0.007 C 
HETATM   11  C22 UNL     1      21.622  25.060  15.407  1.00  0.00     0.051 C 
HETATM   12  C23 UNL     1      19.171  25.578  15.857  1.00  0.00     0.134 C 
HETATM   13  N5  UNL     1      18.371  24.330  15.747  1.00  0.00    -0.351 N 
ATOM     14  H5  UNL     1      18.029  24.073  14.821  1.00  0.00     0.163 HD
HETATM   15  C30 UNL     1      18.052  23.485  16.800  1.00  0.00     0.222 C 
HETATM   16  O4  UNL     1      18.132  22.220  16.637  1.00  0.00    -0.273 OA
ENDROOT
BRANCH   1  17
HETATM   17  C13 UNL     1      16.116  23.818  18.309  1.00  0.00     0.052 C 
BRANCH  17  18
HETATM   18  C12 UNL     1      15.564  22.526  18.764  1.00  0.00     0.164 C 
BRANCH  18  19
HETATM   19  C5  UNL     1      14.361  22.155  17.883  1.00  0.00     0.019 C 
BRANCH  19  20
HETATM   20  C3  UNL     1      14.666  22.366  16.428  1.00  0.00     0.029 C 
HETATM   21  C4  UNL     1      13.643  23.351  15.828  1.00  0.00     0.016 C 
BRANCH  20  22
HETATM   22  C2  UNL     1      14.785  21.163  15.574  1.00  0.00     0.006 C 
HETATM   23  C1  UNL     1      14.848  21.478  14.083  1.00  0.00     0.006 C 
ENDBRANCH  20  22
ENDBRANCH  19  20
BRANCH  19  24
HETATM   24  N1  UNL     1      13.644  21.072  18.242  1.00  0.00    -0.367 N 
HETATM   25  C6  UNL     1      13.389  20.025  18.728  1.00  0.00    -0.014 C 
HETATM   26  C7  UNL     1      11.986  19.451  18.589  1.00  0.00     0.052 C 
HETATM   27  C11 UNL     1      14.314  19.156  19.494  1.00  0.00     0.052 C 
HETATM   28  C8  UNL     1      12.124  18.052  18.027  1.00  0.00     0.006 C 
HETATM   29  C9  UNL     1      12.976  17.166  18.906  1.00  0.00     0.001 C 
HETATM   30  C10 UNL     1      13.596  17.919  20.043  1.00  0.00     0.006 C 
ATOM     31  H1  UNL     1      12.741  21.306  17.828  1.00  0.00     0.165 HD
ENDBRANCH  19  24
ENDBRANCH  18  19
BRANCH  18  32
HETATM   32  O1  UNL     1      15.251  22.344  20.058  1.00  0.00    -0.390 OA
ATOM     33  H1  UNL     1      15.629  23.043  20.580  1.00  0.00     0.210 HD
ENDBRANCH  18  32
ENDBRANCH  17  18
ENDBRANCH   1  17
BRANCH  12  34
HETATM   34  C24 UNL     1      18.924  26.351  14.652  1.00  0.00     0.033 A 
HETATM   35  C28 UNL     1      17.710  26.627  13.911  1.00  0.00     0.020 A 
HETATM   36  C29 UNL     1      18.637  25.616  13.340  1.00  0.00     0.020 A 
BRANCH  34  37
HETATM   37  C25 UNL     1      20.002  27.421  14.433  1.00  0.00     0.061 A 
HETATM   38  N4  UNL     1      20.546  28.221  15.312  1.00  0.00    -0.362 N 
HETATM   39  C26 UNL     1      21.453  29.075  14.943  1.00  0.00     0.096 A 
ATOM     40  H4  UNL     1      20.258  28.174  16.289  1.00  0.00     0.165 HD
HETATM   41  C27 UNL     1      21.798  29.090  13.614  1.00  0.00     0.068 A 
HETATM   42  S1  UNL     1      20.787  27.865  12.983  1.00  0.00    -0.086 SA
ENDBRANCH  34  37
ENDBRANCH  12  34
BRANCH   5  43
HETATM   43  C19 UNL     1      21.637  25.373  21.006  1.00  0.00     0.254 C 
HETATM   44  N2  UNL     1      21.214  26.703  21.175  1.00  0.00    -0.060 NA
HETATM   45  O2  UNL     1      21.902  24.656  22.030  1.00  0.00    -0.275 OA
ENDBRANCH   5  43
TORSDOF 10
ENDMDL
