MODEL 1
REMARK VINA RESULT: -9.392215539      0.000      0.000
REMARK  10 active torsions:
REMARK  status: ('A' for Active; 'I' for Inactive)
REMARK    1  A    between atoms: C2_2  and  O1_3 
REMARK    2  A    between atoms: O1_3  and  C3_4 
REMARK    3  A    between atoms: C3_4  and  C4_6 
REMARK    4  A    between atoms: C6_8  and  C7_9 
REMARK    5  A    between atoms: C7_9  and  N1_10 
REMARK       I    between atoms: N1_10  and  C8_11 
REMARK    6  A    between atoms: C8_11  and  C9_13 
REMARK    7  A    between atoms: C9_13  and  C10_14 
REMARK    8  A    between atoms: C23_28  and  O5_29 
REMARK    9  A    between atoms: O5_29  and  N2_30 
REMARK       I    between atoms: N2_30  and  C24_32 
REMARK   10  A    between atoms: C25_37  and  C26_38 
ROOT
HETATM    1  C4  UNL     1      21.974  27.853  16.169  1.00  0.00     0.014 C 
HETATM    2  C5  UNL     1      21.211  27.756  17.226  1.00  0.00     0.000 C 
HETATM    3  C6  UNL     1      21.281  26.835  18.328  1.00  0.00     0.097 C 
HETATM    4  C20 UNL     1      22.506  26.315  18.878  1.00  0.00     0.063 C 
HETATM    5  O4  UNL     1      22.767  26.913  20.130  1.00  0.00    -0.354 OA
HETATM    6  C21 UNL     1      22.767  26.031  21.176  1.00  0.00     0.178 C 
HETATM    7  C22 UNL     1      23.643  24.844  21.039  1.00  0.00     0.066 C 
HETATM    8  C23 UNL     1      24.345  24.552  19.814  1.00  0.00     0.184 C 
HETATM    9  C25 UNL     1      24.903  25.628  18.933  1.00  0.00    -0.033 C 
HETATM   10  C30 UNL     1      23.760  26.137  18.102  1.00  0.00    -0.022 C 
HETATM   11  C31 UNL     1      24.109  27.123  17.044  1.00  0.00     0.046 C 
HETATM   12  C32 UNL     1      23.143  27.027  15.837  1.00  0.00     0.049 C 
ENDROOT
BRANCH   3  13
HETATM   13  C7  UNL     1      20.216  25.727  18.020  1.00  0.00     0.237 C 
BRANCH  13  14
HETATM   14  N1  UNL     1      19.828  25.050  19.140  1.00  0.00    -0.414 NA
HETATM   15  C8  UNL     1      19.436  24.369  20.266  1.00  0.00     0.287 C 
HETATM   16  O3  UNL     1      19.549  24.816  21.429  1.00  0.00    -0.258 OA
BRANCH  15  17
HETATM   17  C9  UNL     1      18.824  23.002  20.178  1.00  0.00     0.128 C 
BRANCH  17  18
HETATM   18  C10 UNL     1      17.697  22.831  19.236  1.00  0.00    -0.030 C 
HETATM   19  C11 UNL     1      18.206  22.119  18.010  1.00  0.00     0.014 C 
HETATM   20  C12 UNL     1      17.090  21.712  17.083  1.00  0.00    -0.013 C 
HETATM   21  C13 UNL     1      16.411  22.993  16.635  1.00  0.00     0.009 C 
HETATM   22  C17 UNL     1      16.113  20.826  17.781  1.00  0.00     0.009 C 
HETATM   23  C14 UNL     1      15.840  23.660  17.861  1.00  0.00    -0.013 C 
HETATM   24  C15 UNL     1      14.831  22.775  18.529  1.00  0.00     0.009 C 
HETATM   25  C19 UNL     1      16.931  24.045  18.852  1.00  0.00     0.014 C 
HETATM   26  C16 UNL     1      15.590  21.548  19.014  1.00  0.00    -0.013 C 
HETATM   27  C18 UNL     1      16.698  21.887  19.939  1.00  0.00     0.014 C 
ENDBRANCH  17  18
ENDBRANCH  15  17
ENDBRANCH  13  14
ENDBRANCH   3  13
BRANCH   1  28
HETATM   28  C3  UNL     1      21.652  28.884  15.226  1.00  0.00     0.289 C 
HETATM   29  O2  UNL     1      22.491  29.747  14.876  1.00  0.00    -0.260 OA
BRANCH  28  30
HETATM   30  O1  UNL     1      20.371  28.984  14.645  1.00  0.00    -0.318 OA
BRANCH  30  31
HETATM   31  C2  UNL     1      20.123  28.298  13.411  1.00  0.00     0.174 C 
HETATM   32  C1  UNL     1      19.293  27.087  13.673  1.00  0.00     0.034 C 
ENDBRANCH  30  31
ENDBRANCH  28  30
ENDBRANCH   1  28
BRANCH   9  33
HETATM   33  C26 UNL     1      26.008  26.423  19.401  1.00  0.00    -0.025 C 
HETATM   34  C27 UNL     1      26.521  26.268  20.816  1.00  0.00     0.019 C 
HETATM   35  C28 UNL     1      26.016  27.912  19.172  1.00  0.00     0.019 C 
HETATM   36  C29 UNL     1      27.308  26.056  18.603  1.00  0.00     0.019 C 
ENDBRANCH   9  33
BRANCH   8  37
HETATM   37  O5  UNL     1      25.335  23.592  20.101  1.00  0.00    -0.268 OA
BRANCH  37  38
HETATM   38  N2  UNL     1      25.298  22.509  19.338  1.00  0.00    -0.238 N 
HETATM   39  C24 UNL     1      25.797  21.275  19.842  1.00  0.00     0.205 C 
HETATM   40  N3  UNL     1      25.563  20.194  19.174  1.00  0.00    -0.372 N 
HETATM   41  N4  UNL     1      26.543  21.157  21.037  1.00  0.00    -0.062 NA
ATOM     42  H32 UNL     1      25.024  20.279  18.311  1.00  0.00     0.158 HD
ATOM     43  H31 UNL     1      25.920  19.310  19.535  1.00  0.00     0.158 HD
ATOM     44  H2  UNL     1      24.915  22.559  18.395  1.00  0.00     0.197 HD
ENDBRANCH  37  38
ENDBRANCH   8  37
TORSDOF 10
ENDMDL
MODEL 2
REMARK VINA RESULT: -9.281279011      1.237      2.121
REMARK  10 active torsions:
REMARK  status: ('A' for Active; 'I' for Inactive)
REMARK    1  A    between atoms: C2_2  and  O1_3 
REMARK    2  A    between atoms: O1_3  and  C3_4 
REMARK    3  A    between atoms: C3_4  and  C4_6 
REMARK    4  A    between atoms: C6_8  and  C7_9 
REMARK    5  A    between atoms: C7_9  and  N1_10 
REMARK       I    between atoms: N1_10  and  C8_11 
REMARK    6  A    between atoms: C8_11  and  C9_13 
REMARK    7  A    between atoms: C9_13  and  C10_14 
REMARK    8  A    between atoms: C23_28  and  O5_29 
REMARK    9  A    between atoms: O5_29  and  N2_30 
REMARK       I    between atoms: N2_30  and  C24_32 
REMARK   10  A    between atoms: C25_37  and  C26_38 
ROOT
HETATM    1  C4  UNL     1      21.964  27.699  16.271  1.00  0.00     0.014 C 
HETATM    2  C5  UNL     1      21.462  27.707  17.478  1.00  0.00     0.000 C 
HETATM    3  C6  UNL     1      21.745  26.850  18.598  1.00  0.00     0.097 C 
HETATM    4  C20 UNL     1      23.042  26.296  18.890  1.00  0.00     0.063 C 
HETATM    5  O4  UNL     1      23.608  26.952  20.005  1.00  0.00    -0.354 OA
HETATM    6  C21 UNL     1      23.813  26.134  21.083  1.00  0.00     0.178 C 
HETATM    7  C22 UNL     1      24.585  24.895  20.835  1.00  0.00     0.066 C 
HETATM    8  C23 UNL     1      24.974  24.491  19.507  1.00  0.00     0.184 C 
HETATM    9  C25 UNL     1      25.357  25.481  18.449  1.00  0.00    -0.033 C 
HETATM   10  C30 UNL     1      24.075  26.003  17.865  1.00  0.00    -0.022 C 
HETATM   11  C31 UNL     1      24.211  26.903  16.689  1.00  0.00     0.046 C 
HETATM   12  C32 UNL     1      22.991  26.791  15.742  1.00  0.00     0.049 C 
ENDROOT
BRANCH   3  13
HETATM   13  C7  UNL     1      20.594  25.787  18.618  1.00  0.00     0.237 C 
BRANCH  13  14
HETATM   14  N1  UNL     1      20.317  25.293  17.377  1.00  0.00    -0.414 NA
HETATM   15  C8  UNL     1      20.039  24.796  16.127  1.00  0.00     0.287 C 
HETATM   16  O3  UNL     1      20.911  24.476  15.291  1.00  0.00    -0.258 OA
BRANCH  15  17
HETATM   17  C9  UNL     1      18.626  24.591  15.667  1.00  0.00     0.128 C 
BRANCH  17  18
HETATM   18  C10 UNL     1      17.765  23.728  16.504  1.00  0.00    -0.030 C 
HETATM   19  C11 UNL     1      17.072  24.593  17.523  1.00  0.00     0.014 C 
HETATM   20  C12 UNL     1      16.015  23.839  18.287  1.00  0.00    -0.013 C 
HETATM   21  C13 UNL     1      16.728  22.723  19.026  1.00  0.00     0.009 C 
HETATM   22  C17 UNL     1      14.990  23.273  17.362  1.00  0.00     0.009 C 
HETATM   23  C14 UNL     1      17.356  21.821  17.994  1.00  0.00    -0.013 C 
HETATM   24  C15 UNL     1      16.312  21.228  17.097  1.00  0.00     0.009 C 
HETATM   25  C19 UNL     1      18.399  22.556  17.162  1.00  0.00     0.014 C 
HETATM   26  C16 UNL     1      15.688  22.390  16.337  1.00  0.00    -0.013 C 
HETATM   27  C18 UNL     1      16.682  23.167  15.559  1.00  0.00     0.014 C 
ENDBRANCH  17  18
ENDBRANCH  15  17
ENDBRANCH  13  14
ENDBRANCH   3  13
BRANCH   1  28
HETATM   28  C3  UNL     1      21.477  28.688  15.356  1.00  0.00     0.289 C 
HETATM   29  O2  UNL     1      22.224  29.574  14.877  1.00  0.00    -0.260 OA
BRANCH  28  30
HETATM   30  O1  UNL     1      20.128  28.721  14.948  1.00  0.00    -0.318 OA
BRANCH  30  31
HETATM   31  C2  UNL     1      19.694  27.797  13.940  1.00  0.00     0.174 C 
HETATM   32  C1  UNL     1      19.995  28.356  12.591  1.00  0.00     0.034 C 
ENDBRANCH  30  31
ENDBRANCH  28  30
ENDBRANCH   1  28
BRANCH   9  33
HETATM   33  C26 UNL     1      26.572  26.239  18.596  1.00  0.00    -0.025 C 
HETATM   34  C27 UNL     1      27.447  26.056  19.817  1.00  0.00     0.019 C 
HETATM   35  C28 UNL     1      26.562  27.730  18.376  1.00  0.00     0.019 C 
HETATM   36  C29 UNL     1      27.592  25.842  17.473  1.00  0.00     0.019 C 
ENDBRANCH   9  33
BRANCH   8  37
HETATM   37  O5  UNL     1      25.962  23.497  19.628  1.00  0.00    -0.268 OA
BRANCH  37  38
HETATM   38  N2  UNL     1      25.707  22.373  18.973  1.00  0.00    -0.238 N 
HETATM   39  C24 UNL     1      25.812  21.124  19.647  1.00  0.00     0.205 C 
HETATM   40  N3  UNL     1      25.359  20.066  19.061  1.00  0.00    -0.372 N 
HETATM   41  N4  UNL     1      26.390  20.968  20.927  1.00  0.00    -0.062 NA
ATOM     42  H32 UNL     1      24.942  20.179  18.136  1.00  0.00     0.158 HD
ATOM     43  H31 UNL     1      25.434  19.171  19.544  1.00  0.00     0.158 HD
ATOM     44  H2  UNL     1      25.436  22.404  17.991  1.00  0.00     0.197 HD
ENDBRANCH  37  38
ENDBRANCH   8  37
TORSDOF 10
ENDMDL
MODEL 3
REMARK VINA RESULT: -9.198968865      3.011      7.413
REMARK  10 active torsions:
REMARK  status: ('A' for Active; 'I' for Inactive)
REMARK    1  A    between atoms: C2_2  and  O1_3 
REMARK    2  A    between atoms: O1_3  and  C3_4 
REMARK    3  A    between atoms: C3_4  and  C4_6 
REMARK    4  A    between atoms: C6_8  and  C7_9 
REMARK    5  A    between atoms: C7_9  and  N1_10 
REMARK       I    between atoms: N1_10  and  C8_11 
REMARK    6  A    between atoms: C8_11  and  C9_13 
REMARK    7  A    between atoms: C9_13  and  C10_14 
REMARK    8  A    between atoms: C23_28  and  O5_29 
REMARK    9  A    between atoms: O5_29  and  N2_30 
REMARK       I    between atoms: N2_30  and  C24_32 
REMARK   10  A    between atoms: C25_37  and  C26_38 
ROOT
HETATM    1  C4  UNL     1      15.901  22.891  16.556  1.00  0.00     0.014 C 
HETATM    2  C5  UNL     1      16.304  23.372  17.703  1.00  0.00     0.000 C 
HETATM    3  C6  UNL     1      17.598  23.870  18.087  1.00  0.00     0.097 C 
HETATM    4  C20 UNL     1      18.488  24.584  17.210  1.00  0.00     0.063 C 
HETATM    5  O4  UNL     1      18.513  25.953  17.557  1.00  0.00    -0.354 OA
HETATM    6  C21 UNL     1      19.738  26.394  17.980  1.00  0.00     0.178 C 
HETATM    7  C22 UNL     1      20.885  26.124  17.083  1.00  0.00     0.066 C 
HETATM    8  C23 UNL     1      20.751  25.311  15.899  1.00  0.00     0.184 C 
HETATM    9  C25 UNL     1      19.511  25.318  15.058  1.00  0.00    -0.033 C 
HETATM   10  C30 UNL     1      18.527  24.409  15.736  1.00  0.00    -0.022 C 
HETATM   11  C31 UNL     1      17.262  24.149  14.999  1.00  0.00     0.046 C 
HETATM   12  C32 UNL     1      16.691  22.746  15.326  1.00  0.00     0.049 C 
ENDROOT
BRANCH   3  13
HETATM   13  C7  UNL     1      18.291  22.693  18.856  1.00  0.00     0.237 C 
BRANCH  13  14
HETATM   14  N1  UNL     1      18.955  23.117  19.970  1.00  0.00    -0.414 NA
HETATM   15  C8  UNL     1      19.624  23.544  21.091  1.00  0.00     0.287 C 
HETATM   16  O3  UNL     1      19.935  22.799  22.046  1.00  0.00    -0.258 OA
BRANCH  15  17
HETATM   17  C9  UNL     1      20.044  24.975  21.251  1.00  0.00     0.128 C 
BRANCH  17  18
HETATM   18  C10 UNL     1      21.495  25.257  21.215  1.00  0.00    -0.030 C 
HETATM   19  C11 UNL     1      22.094  24.518  20.047  1.00  0.00     0.014 C 
HETATM   20  C12 UNL     1      23.528  24.907  19.801  1.00  0.00    -0.013 C 
HETATM   21  C13 UNL     1      24.303  24.521  21.047  1.00  0.00     0.009 C 
HETATM   22  C17 UNL     1      23.648  26.373  19.552  1.00  0.00     0.009 C 
HETATM   23  C14 UNL     1      23.744  25.322  22.197  1.00  0.00    -0.013 C 
HETATM   24  C15 UNL     1      23.906  26.792  21.951  1.00  0.00     0.009 C 
HETATM   25  C19 UNL     1      22.277  24.997  22.451  1.00  0.00     0.014 C 
HETATM   26  C16 UNL     1      23.052  27.122  20.735  1.00  0.00    -0.013 C 
HETATM   27  C18 UNL     1      21.625  26.767  20.923  1.00  0.00     0.014 C 
ENDBRANCH  17  18
ENDBRANCH  15  17
ENDBRANCH  13  14
ENDBRANCH   3  13
BRANCH   1  28
HETATM   28  C3  UNL     1      14.535  22.464  16.473  1.00  0.00     0.289 C 
HETATM   29  O2  UNL     1      14.085  21.539  17.188  1.00  0.00    -0.260 OA
BRANCH  28  30
HETATM   30  O1  UNL     1      13.625  23.061  15.576  1.00  0.00    -0.318 OA
BRANCH  30  31
HETATM   31  C2  UNL     1      12.758  22.211  14.814  1.00  0.00     0.174 C 
HETATM   32  C1  UNL     1      13.479  21.722  13.603  1.00  0.00     0.034 C 
ENDBRANCH  30  31
ENDBRANCH  28  30
ENDBRANCH   1  28
BRANCH   9  33
HETATM   33  C26 UNL     1      19.171  26.500  14.310  1.00  0.00    -0.025 C 
HETATM   34  C27 UNL     1      19.719  27.851  14.717  1.00  0.00     0.019 C 
HETATM   35  C28 UNL     1      17.733  26.781  13.957  1.00  0.00     0.019 C 
HETATM   36  C29 UNL     1      19.755  26.402  12.857  1.00  0.00     0.019 C 
ENDBRANCH   9  33
BRANCH   8  37
HETATM   37  O5  UNL     1      21.889  25.524  15.098  1.00  0.00    -0.268 OA
BRANCH  37  38
HETATM   38  N2  UNL     1      22.978  25.888  15.759  1.00  0.00    -0.238 N 
HETATM   39  C24 UNL     1      23.466  27.219  15.637  1.00  0.00     0.205 C 
HETATM   40  N3  UNL     1      24.394  27.614  16.445  1.00  0.00    -0.372 N 
HETATM   41  N4  UNL     1      22.997  28.143  14.676  1.00  0.00    -0.062 NA
ATOM     42  H32 UNL     1      24.732  26.946  17.139  1.00  0.00     0.158 HD
ATOM     43  H31 UNL     1      24.743  28.567  16.357  1.00  0.00     0.158 HD
ATOM     44  H2  UNL     1      23.464  25.217  16.353  1.00  0.00     0.197 HD
ENDBRANCH  37  38
ENDBRANCH   8  37
TORSDOF 10
ENDMDL
MODEL 4
REMARK VINA RESULT: -9.166352514      3.008      7.413
REMARK  10 active torsions:
REMARK  status: ('A' for Active; 'I' for Inactive)
REMARK    1  A    between atoms: C2_2  and  O1_3 
REMARK    2  A    between atoms: O1_3  and  C3_4 
REMARK    3  A    between atoms: C3_4  and  C4_6 
REMARK    4  A    between atoms: C6_8  and  C7_9 
REMARK    5  A    between atoms: C7_9  and  N1_10 
REMARK       I    between atoms: N1_10  and  C8_11 
REMARK    6  A    between atoms: C8_11  and  C9_13 
REMARK    7  A    between atoms: C9_13  and  C10_14 
REMARK    8  A    between atoms: C23_28  and  O5_29 
REMARK    9  A    between atoms: O5_29  and  N2_30 
REMARK       I    between atoms: N2_30  and  C24_32 
REMARK   10  A    between atoms: C25_37  and  C26_38 
ROOT
HETATM    1  C4  UNL     1      15.919  22.926  16.554  1.00  0.00     0.014 C 
HETATM    2  C5  UNL     1      16.332  23.397  17.701  1.00  0.00     0.000 C 
HETATM    3  C6  UNL     1      17.630  23.888  18.079  1.00  0.00     0.097 C 
HETATM    4  C20 UNL     1      18.517  24.606  17.200  1.00  0.00     0.063 C 
HETATM    5  O4  UNL     1      18.549  25.972  17.556  1.00  0.00    -0.354 OA
HETATM    6  C21 UNL     1      19.778  26.406  17.974  1.00  0.00     0.178 C 
HETATM    7  C22 UNL     1      20.917  26.137  17.065  1.00  0.00     0.066 C 
HETATM    8  C23 UNL     1      20.772  25.334  15.877  1.00  0.00     0.184 C 
HETATM    9  C25 UNL     1      19.526  25.352  15.045  1.00  0.00    -0.033 C 
HETATM   10  C30 UNL     1      18.543  24.441  15.724  1.00  0.00    -0.022 C 
HETATM   11  C31 UNL     1      17.272  24.190  14.996  1.00  0.00     0.046 C 
HETATM   12  C32 UNL     1      16.698  22.788  15.317  1.00  0.00     0.049 C 
ENDROOT
BRANCH   3  13
HETATM   13  C7  UNL     1      18.326  22.703  18.834  1.00  0.00     0.237 C 
BRANCH  13  14
HETATM   14  N1  UNL     1      18.984  23.114  19.956  1.00  0.00    -0.414 NA
HETATM   15  C8  UNL     1      19.646  23.527  21.086  1.00  0.00     0.287 C 
HETATM   16  O3  UNL     1      19.923  22.778  22.048  1.00  0.00    -0.258 OA
BRANCH  15  17
HETATM   17  C9  UNL     1      20.102  24.947  21.247  1.00  0.00     0.128 C 
BRANCH  17  18
HETATM   18  C10 UNL     1      21.536  25.223  21.016  1.00  0.00    -0.030 C 
HETATM   19  C11 UNL     1      21.694  26.687  20.702  1.00  0.00     0.014 C 
HETATM   20  C12 UNL     1      23.140  27.108  20.657  1.00  0.00    -0.013 C 
HETATM   21  C13 UNL     1      23.788  26.315  19.538  1.00  0.00     0.009 C 
HETATM   22  C17 UNL     1      23.820  26.819  21.954  1.00  0.00     0.009 C 
HETATM   23  C14 UNL     1      23.689  24.853  19.898  1.00  0.00    -0.013 C 
HETATM   24  C15 UNL     1      24.410  24.570  21.181  1.00  0.00     0.009 C 
HETATM   25  C19 UNL     1      22.241  24.395  20.003  1.00  0.00     0.014 C 
HETATM   26  C16 UNL     1      23.670  25.337  22.268  1.00  0.00    -0.013 C 
HETATM   27  C18 UNL     1      22.240  24.959  22.364  1.00  0.00     0.014 C 
ENDBRANCH  17  18
ENDBRANCH  15  17
ENDBRANCH  13  14
ENDBRANCH   3  13
BRANCH   1  28
HETATM   28  C3  UNL     1      14.551  22.505  16.478  1.00  0.00     0.289 C 
HETATM   29  O2  UNL     1      14.105  21.569  17.183  1.00  0.00    -0.260 OA
BRANCH  28  30
HETATM   30  O1  UNL     1      13.633  23.119  15.601  1.00  0.00    -0.318 OA
BRANCH  30  31
HETATM   31  C2  UNL     1      12.773  22.284  14.814  1.00  0.00     0.174 C 
HETATM   32  C1  UNL     1      13.538  21.732  13.659  1.00  0.00     0.034 C 
ENDBRANCH  30  31
ENDBRANCH  28  30
ENDBRANCH   1  28
BRANCH   9  33
HETATM   33  C26 UNL     1      19.184  26.540  14.308  1.00  0.00    -0.025 C 
HETATM   34  C27 UNL     1      19.712  27.890  14.741  1.00  0.00     0.019 C 
HETATM   35  C28 UNL     1      17.748  26.812  13.940  1.00  0.00     0.019 C 
HETATM   36  C29 UNL     1      19.788  26.467  12.862  1.00  0.00     0.019 C 
ENDBRANCH   9  33
BRANCH   8  37
HETATM   37  O5  UNL     1      21.904  25.549  15.068  1.00  0.00    -0.268 OA
BRANCH  37  38
HETATM   38  N2  UNL     1      22.996  25.918  15.722  1.00  0.00    -0.238 N 
HETATM   39  C24 UNL     1      23.470  27.254  15.606  1.00  0.00     0.205 C 
HETATM   40  N3  UNL     1      24.402  27.651  16.408  1.00  0.00    -0.372 N 
HETATM   41  N4  UNL     1      22.984  28.181  14.656  1.00  0.00    -0.062 NA
ATOM     42  H32 UNL     1      24.753  26.982  17.093  1.00  0.00     0.158 HD
ATOM     43  H31 UNL     1      24.742  28.609  16.324  1.00  0.00     0.158 HD
ATOM     44  H2  UNL     1      23.494  25.247  16.307  1.00  0.00     0.197 HD
ENDBRANCH  37  38
ENDBRANCH   8  37
TORSDOF 10
ENDMDL
MODEL 5
REMARK VINA RESULT: -9.137935367      2.904      7.544
REMARK  10 active torsions:
REMARK  status: ('A' for Active; 'I' for Inactive)
REMARK    1  A    between atoms: C2_2  and  O1_3 
REMARK    2  A    between atoms: O1_3  and  C3_4 
REMARK    3  A    between atoms: C3_4  and  C4_6 
REMARK    4  A    between atoms: C6_8  and  C7_9 
REMARK    5  A    between atoms: C7_9  and  N1_10 
REMARK       I    between atoms: N1_10  and  C8_11 
REMARK    6  A    between atoms: C8_11  and  C9_13 
REMARK    7  A    between atoms: C9_13  and  C10_14 
REMARK    8  A    between atoms: C23_28  and  O5_29 
REMARK    9  A    between atoms: O5_29  and  N2_30 
REMARK       I    between atoms: N2_30  and  C24_32 
REMARK   10  A    between atoms: C25_37  and  C26_38 
ROOT
HETATM    1  C4  UNL     1      15.925  22.808  16.739  1.00  0.00     0.014 C 
HETATM    2  C5  UNL     1      16.349  23.309  17.868  1.00  0.00     0.000 C 
HETATM    3  C6  UNL     1      17.648  23.821  18.217  1.00  0.00     0.097 C 
HETATM    4  C20 UNL     1      18.514  24.527  17.309  1.00  0.00     0.063 C 
HETATM    5  O4  UNL     1      18.538  25.901  17.634  1.00  0.00    -0.354 OA
HETATM    6  C21 UNL     1      19.768  26.356  18.024  1.00  0.00     0.178 C 
HETATM    7  C22 UNL     1      20.897  26.079  17.106  1.00  0.00     0.066 C 
HETATM    8  C23 UNL     1      20.744  25.247  15.938  1.00  0.00     0.184 C 
HETATM    9  C25 UNL     1      19.486  25.234  15.124  1.00  0.00    -0.033 C 
HETATM   10  C30 UNL     1      18.522  24.329  15.838  1.00  0.00    -0.022 C 
HETATM   11  C31 UNL     1      17.243  24.049  15.133  1.00  0.00     0.046 C 
HETATM   12  C32 UNL     1      16.688  22.649  15.494  1.00  0.00     0.049 C 
ENDROOT
BRANCH   3  13
HETATM   13  C7  UNL     1      18.365  22.661  18.988  1.00  0.00     0.237 C 
BRANCH  13  14
HETATM   14  N1  UNL     1      19.029  23.102  20.095  1.00  0.00    -0.414 NA
HETATM   15  C8  UNL     1      19.699  23.547  21.209  1.00  0.00     0.287 C 
HETATM   16  O3  UNL     1      20.013  22.817  22.174  1.00  0.00    -0.258 OA
BRANCH  15  17
HETATM   17  C9  UNL     1      20.115  24.981  21.348  1.00  0.00     0.128 C 
BRANCH  17  18
HETATM   18  C10 UNL     1      21.562  25.271  21.264  1.00  0.00    -0.030 C 
HETATM   19  C11 UNL     1      22.132  24.518  20.092  1.00  0.00     0.014 C 
HETATM   20  C12 UNL     1      23.556  24.912  19.797  1.00  0.00    -0.013 C 
HETATM   21  C13 UNL     1      24.368  24.551  21.026  1.00  0.00     0.009 C 
HETATM   22  C17 UNL     1      23.658  26.375  19.522  1.00  0.00     0.009 C 
HETATM   23  C14 UNL     1      23.838  25.367  22.179  1.00  0.00    -0.013 C 
HETATM   24  C15 UNL     1      23.984  26.833  21.906  1.00  0.00     0.009 C 
HETATM   25  C19 UNL     1      22.382  25.036  22.481  1.00  0.00     0.014 C 
HETATM   26  C16 UNL     1      23.092  27.138  20.710  1.00  0.00    -0.013 C 
HETATM   27  C18 UNL     1      21.674  26.777  20.945  1.00  0.00     0.014 C 
ENDBRANCH  17  18
ENDBRANCH  15  17
ENDBRANCH  13  14
ENDBRANCH   3  13
BRANCH   1  28
HETATM   28  C3  UNL     1      14.560  22.371  16.691  1.00  0.00     0.289 C 
HETATM   29  O2  UNL     1      13.808  22.651  15.729  1.00  0.00    -0.260 OA
BRANCH  28  30
HETATM   30  O1  UNL     1      13.989  21.607  17.730  1.00  0.00    -0.318 OA
BRANCH  30  31
HETATM   31  C2  UNL     1      14.241  20.196  17.760  1.00  0.00     0.174 C 
HETATM   32  C1  UNL     1      15.088  19.867  18.942  1.00  0.00     0.034 C 
ENDBRANCH  30  31
ENDBRANCH  28  30
ENDBRANCH   1  28
BRANCH   9  33
HETATM   33  C26 UNL     1      19.121  26.402  14.365  1.00  0.00    -0.025 C 
HETATM   34  C27 UNL     1      19.657  27.764  14.749  1.00  0.00     0.019 C 
HETATM   35  C28 UNL     1      17.676  26.660  14.027  1.00  0.00     0.019 C 
HETATM   36  C29 UNL     1      19.689  26.292  12.906  1.00  0.00     0.019 C 
ENDBRANCH   9  33
BRANCH   8  37
HETATM   37  O5  UNL     1      21.862  25.455  15.109  1.00  0.00    -0.268 OA
BRANCH  37  38
HETATM   38  N2  UNL     1      22.957  25.854  15.738  1.00  0.00    -0.238 N 
HETATM   39  C24 UNL     1      23.398  27.201  15.603  1.00  0.00     0.205 C 
HETATM   40  N3  UNL     1      24.336  27.625  16.383  1.00  0.00    -0.372 N 
HETATM   41  N4  UNL     1      22.871  28.109  14.656  1.00  0.00    -0.062 NA
ATOM     42  H32 UNL     1      24.716  26.970  17.066  1.00  0.00     0.158 HD
ATOM     43  H31 UNL     1      24.652  28.590  16.285  1.00  0.00     0.158 HD
ATOM     44  H2  UNL     1      23.482  25.200  16.317  1.00  0.00     0.197 HD
ENDBRANCH  37  38
ENDBRANCH   8  37
TORSDOF 10
ENDMDL
