MODEL 1
REMARK VINA RESULT: -10.996301174      0.000      0.000
REMARK  13 active torsions:
REMARK  status: ('A' for Active; 'I' for Inactive)
REMARK    1  A    between atoms: C5_8  and  C6_9 
REMARK    2  A    between atoms: C6_9  and  C7_10 
REMARK    3  A    between atoms: C6_9  and  N2_22 
REMARK    4  A    between atoms: C7_10  and  C8_11 
REMARK    5  A    between atoms: C8_11  and  C9_12 
REMARK    6  A    between atoms: N2_22  and  C19_24 
REMARK    7  A    between atoms: C19_24  and  O1_25 
REMARK    8  A    between atoms: C19_24  and  C20_27 
REMARK    9  A    between atoms: C20_27  and  N3_28 
REMARK   10  A    between atoms: C20_27  and  C28_42 
REMARK       I    between atoms: N3_28  and  C21_30 
REMARK   11  A    between atoms: C21_30  and  O3_32 
REMARK   12  A    between atoms: O3_32  and  C22_33 
REMARK   13  A    between atoms: C26_38  and  C27_39 
ROOT
HETATM    1  C19 UNL     1      15.924  24.675  18.100  1.00  0.00     0.139 C 
ENDROOT
BRANCH   1   2
HETATM    2  N2  UNL     1      16.567  25.554  17.225  1.00  0.00    -0.346 N 
ATOM      3  H2  UNL     1      16.491  26.555  17.404  1.00  0.00     0.167 HD
BRANCH   2   4
HETATM    4  C6  UNL     1      17.346  25.115  16.065  1.00  0.00    -0.005 C 
BRANCH   4   5
HETATM    5  C5  UNL     1      18.760  25.380  16.032  1.00  0.00     0.062 C 
HETATM    6  C2  UNL     1      19.195  26.698  15.407  1.00  0.00     0.018 C 
HETATM    7  C1  UNL     1      19.405  26.616  13.917  1.00  0.00     0.012 C 
HETATM    8  C3  UNL     1      20.663  26.573  15.931  1.00  0.00     0.237 C 
HETATM    9  N1  UNL     1      20.990  25.285  15.336  1.00  0.00    -0.074 N 
HETATM   10  C4  UNL     1      19.774  24.463  15.492  1.00  0.00     0.243 C 
ATOM     11  H12 UNL     1      21.321  25.349  14.373  1.00  0.00     0.277 HD
ATOM     12  H11 UNL     1      21.829  24.855  15.723  1.00  0.00     0.277 HD
ENDBRANCH   4   5
BRANCH   4  13
HETATM   13  C7  UNL     1      16.518  25.284  14.818  1.00  0.00     0.054 C 
BRANCH  13  14
HETATM   14  C8  UNL     1      16.456  24.172  13.859  1.00  0.00     0.015 C 
BRANCH  14  15
HETATM   15  C9  UNL     1      15.295  23.230  14.087  1.00  0.00    -0.039 C 
HETATM   16  C10 UNL     1      14.192  23.983  14.828  1.00  0.00     0.014 C 
HETATM   17  C11 UNL     1      13.025  23.100  15.119  1.00  0.00    -0.013 C 
HETATM   18  C12 UNL     1      12.493  22.535  13.835  1.00  0.00     0.009 C 
HETATM   19  C16 UNL     1      13.456  21.977  16.036  1.00  0.00     0.009 C 
HETATM   20  C13 UNL     1      13.609  21.718  13.186  1.00  0.00    -0.013 C 
HETATM   21  C14 UNL     1      14.042  20.617  14.097  1.00  0.00     0.009 C 
HETATM   22  C18 UNL     1      14.709  22.689  12.834  1.00  0.00     0.014 C 
HETATM   23  C15 UNL     1      14.569  21.227  15.384  1.00  0.00    -0.013 C 
HETATM   24  C17 UNL     1      15.740  22.112  15.000  1.00  0.00     0.014 C 
ENDBRANCH  14  15
ENDBRANCH  13  14
ENDBRANCH   4  13
ENDBRANCH   2   4
ENDBRANCH   1   2
BRANCH   1  25
HETATM   25  O1  UNL     1      14.631  24.818  18.120  1.00  0.00    -0.348 OA
ATOM     26  H1  UNL     1      14.159  24.007  17.971  1.00  0.00     0.219 HD
ENDBRANCH   1  25
BRANCH   1  27
HETATM   27  C20 UNL     1      16.402  23.641  18.995  1.00  0.00     0.165 C 
BRANCH  27  28
HETATM   28  N3  UNL     1      15.947  22.306  18.586  1.00  0.00    -0.324 N 
HETATM   29  C21 UNL     1      15.352  21.465  19.532  1.00  0.00     0.361 C 
HETATM   30  O2  UNL     1      15.186  21.780  20.746  1.00  0.00    -0.238 OA
ATOM     31  H3  UNL     1      16.064  21.994  17.622  1.00  0.00     0.165 HD
BRANCH  29  32
HETATM   32  O3  UNL     1      14.902  20.205  19.162  1.00  0.00    -0.296 OA
BRANCH  32  33
HETATM   33  C22 UNL     1      13.540  19.812  19.168  1.00  0.00     0.166 C 
HETATM   34  C23 UNL     1      13.250  18.858  20.317  1.00  0.00     0.068 C 
HETATM   35  C24 UNL     1      13.085  17.590  19.485  1.00  0.00     0.141 C 
HETATM   36  O4  UNL     1      14.158  17.745  18.574  1.00  0.00    -0.376 OA
HETATM   37  C26 UNL     1      12.185  17.969  18.341  1.00  0.00     0.147 C 
HETATM   38  C25 UNL     1      13.386  18.794  18.036  1.00  0.00     0.168 C 
BRANCH  37  39
HETATM   39  C27 UNL     1      10.931  18.636  18.677  1.00  0.00     0.182 C 
HETATM   40  O5  UNL     1      10.292  18.333  19.712  1.00  0.00    -0.648 OA
HETATM   41  O6  UNL     1      10.442  19.613  17.847  1.00  0.00    -0.648 OA
ENDBRANCH  37  39
ENDBRANCH  32  33
ENDBRANCH  29  32
ENDBRANCH  27  28
BRANCH  27  42
HETATM   42  C28 UNL     1      17.922  23.603  19.135  1.00  0.00     0.016 C 
HETATM   43  C29 UNL     1      18.517  24.876  19.594  1.00  0.00     0.007 C 
HETATM   44  C30 UNL     1      19.572  24.681  20.661  1.00  0.00     0.000 C 
HETATM   45  C31 UNL     1      20.563  23.674  20.126  1.00  0.00     0.000 C 
HETATM   46  C32 UNL     1      19.893  22.346  20.026  1.00  0.00     0.000 C 
HETATM   47  C33 UNL     1      18.416  22.375  19.823  1.00  0.00     0.007 C 
ENDBRANCH  27  42
ENDBRANCH   1  27
TORSDOF 13
ENDMDL
MODEL 2
REMARK VINA RESULT: -10.954751964      2.608      8.921
REMARK  13 active torsions:
REMARK  status: ('A' for Active; 'I' for Inactive)
REMARK    1  A    between atoms: C5_8  and  C6_9 
REMARK    2  A    between atoms: C6_9  and  C7_10 
REMARK    3  A    between atoms: C6_9  and  N2_22 
REMARK    4  A    between atoms: C7_10  and  C8_11 
REMARK    5  A    between atoms: C8_11  and  C9_12 
REMARK    6  A    between atoms: N2_22  and  C19_24 
REMARK    7  A    between atoms: C19_24  and  O1_25 
REMARK    8  A    between atoms: C19_24  and  C20_27 
REMARK    9  A    between atoms: C20_27  and  N3_28 
REMARK   10  A    between atoms: C20_27  and  C28_42 
REMARK       I    between atoms: N3_28  and  C21_30 
REMARK   11  A    between atoms: C21_30  and  O3_32 
REMARK   12  A    between atoms: O3_32  and  C22_33 
REMARK   13  A    between atoms: C26_38  and  C27_39 
ROOT
HETATM    1  C19 UNL     1      14.338  23.519  17.390  1.00  0.00     0.139 C 
ENDROOT
BRANCH   1   2
HETATM    2  N2  UNL     1      13.673  22.557  18.156  1.00  0.00    -0.346 N 
ATOM      3  H2  UNL     1      12.699  22.729  18.406  1.00  0.00     0.167 HD
BRANCH   2   4
HETATM    4  C6  UNL     1      14.298  21.317  18.619  1.00  0.00    -0.005 C 
BRANCH   4   5
HETATM    5  C5  UNL     1      13.459  20.209  18.992  1.00  0.00     0.062 C 
HETATM    6  C2  UNL     1      14.162  18.967  19.524  1.00  0.00     0.018 C 
HETATM    7  C1  UNL     1      14.572  17.999  18.444  1.00  0.00     0.012 C 
HETATM    8  C3  UNL     1      12.834  18.316  20.032  1.00  0.00     0.237 C 
HETATM    9  N1  UNL     1      12.104  18.316  18.772  1.00  0.00    -0.074 N 
HETATM   10  C4  UNL     1      12.432  19.605  18.131  1.00  0.00     0.243 C 
ATOM     11  H12 UNL     1      12.297  17.505  18.185  1.00  0.00     0.277 HD
ATOM     12  H11 UNL     1      11.103  18.153  18.877  1.00  0.00     0.277 HD
ENDBRANCH   4   5
BRANCH   4  13
HETATM   13  C7  UNL     1      15.517  21.650  19.439  1.00  0.00     0.054 C 
BRANCH  13  14
HETATM   14  C8  UNL     1      16.839  21.555  18.805  1.00  0.00     0.015 C 
BRANCH  14  15
HETATM   15  C9  UNL     1      17.880  22.463  19.421  1.00  0.00    -0.039 C 
HETATM   16  C10 UNL     1      17.173  23.652  20.067  1.00  0.00     0.014 C 
HETATM   17  C11 UNL     1      18.146  24.610  20.666  1.00  0.00    -0.013 C 
HETATM   18  C12 UNL     1      18.991  23.897  21.681  1.00  0.00     0.009 C 
HETATM   19  C16 UNL     1      19.026  25.185  19.578  1.00  0.00     0.009 C 
HETATM   20  C13 UNL     1      19.743  22.779  20.961  1.00  0.00    -0.013 C 
HETATM   21  C14 UNL     1      20.601  23.346  19.879  1.00  0.00     0.009 C 
HETATM   22  C18 UNL     1      18.702  21.804  20.468  1.00  0.00     0.014 C 
HETATM   23  C15 UNL     1      19.714  24.062  18.876  1.00  0.00    -0.013 C 
HETATM   24  C17 UNL     1      18.753  23.026  18.325  1.00  0.00     0.014 C 
ENDBRANCH  14  15
ENDBRANCH  13  14
ENDBRANCH   4  13
ENDBRANCH   2   4
ENDBRANCH   1   2
BRANCH   1  25
HETATM   25  O1  UNL     1      14.557  24.629  18.030  1.00  0.00    -0.348 OA
ATOM     26  H1  UNL     1      13.825  25.234  17.996  1.00  0.00     0.219 HD
ENDBRANCH   1  25
BRANCH   1  27
HETATM   27  C20 UNL     1      14.829  23.533  16.027  1.00  0.00     0.165 C 
BRANCH  27  28
HETATM   28  N3  UNL     1      16.294  23.613  15.971  1.00  0.00    -0.324 N 
HETATM   29  C21 UNL     1      16.897  24.657  15.264  1.00  0.00     0.361 C 
HETATM   30  O2  UNL     1      16.251  25.552  14.645  1.00  0.00    -0.238 OA
ATOM     31  H3  UNL     1      16.867  22.912  16.443  1.00  0.00     0.165 HD
BRANCH  29  32
HETATM   32  O3  UNL     1      18.280  24.759  15.210  1.00  0.00    -0.296 OA
BRANCH  32  33
HETATM   33  C22 UNL     1      19.003  25.944  15.490  1.00  0.00     0.166 C 
HETATM   34  C23 UNL     1      19.382  26.671  14.209  1.00  0.00     0.068 C 
HETATM   35  C24 UNL     1      20.875  26.360  14.238  1.00  0.00     0.141 C 
HETATM   36  O4  UNL     1      20.841  25.000  14.631  1.00  0.00    -0.376 OA
HETATM   37  C26 UNL     1      21.326  26.655  15.642  1.00  0.00     0.147 C 
HETATM   38  C25 UNL     1      20.416  25.500  15.877  1.00  0.00     0.168 C 
BRANCH  37  39
HETATM   39  C27 UNL     1      20.973  27.961  16.190  1.00  0.00     0.182 C 
HETATM   40  O5  UNL     1      20.658  28.096  17.395  1.00  0.00    -0.648 OA
HETATM   41  O6  UNL     1      20.986  29.063  15.371  1.00  0.00    -0.648 OA
ENDBRANCH  37  39
ENDBRANCH  32  33
ENDBRANCH  29  32
ENDBRANCH  27  28
BRANCH  27  42
HETATM   42  C28 UNL     1      14.386  22.328  15.200  1.00  0.00     0.016 C 
HETATM   43  C29 UNL     1      12.933  22.059  15.258  1.00  0.00     0.007 C 
HETATM   44  C30 UNL     1      12.339  21.747  13.902  1.00  0.00     0.000 C 
HETATM   45  C31 UNL     1      13.167  20.635  13.300  1.00  0.00     0.000 C 
HETATM   46  C32 UNL     1      14.527  21.162  12.992  1.00  0.00     0.000 C 
HETATM   47  C33 UNL     1      14.994  22.296  13.839  1.00  0.00     0.007 C 
ENDBRANCH  27  42
ENDBRANCH   1  27
TORSDOF 13
ENDMDL
MODEL 3
REMARK VINA RESULT: -10.932839255      2.606      8.923
REMARK  13 active torsions:
REMARK  status: ('A' for Active; 'I' for Inactive)
REMARK    1  A    between atoms: C5_8  and  C6_9 
REMARK    2  A    between atoms: C6_9  and  C7_10 
REMARK    3  A    between atoms: C6_9  and  N2_22 
REMARK    4  A    between atoms: C7_10  and  C8_11 
REMARK    5  A    between atoms: C8_11  and  C9_12 
REMARK    6  A    between atoms: N2_22  and  C19_24 
REMARK    7  A    between atoms: C19_24  and  O1_25 
REMARK    8  A    between atoms: C19_24  and  C20_27 
REMARK    9  A    between atoms: C20_27  and  N3_28 
REMARK   10  A    between atoms: C20_27  and  C28_42 
REMARK       I    between atoms: N3_28  and  C21_30 
REMARK   11  A    between atoms: C21_30  and  O3_32 
REMARK   12  A    between atoms: O3_32  and  C22_33 
REMARK   13  A    between atoms: C26_38  and  C27_39 
ROOT
HETATM    1  C19 UNL     1      14.333  23.536  17.372  1.00  0.00     0.139 C 
ENDROOT
BRANCH   1   2
HETATM    2  N2  UNL     1      13.667  22.581  18.144  1.00  0.00    -0.346 N 
ATOM      3  H2  UNL     1      12.692  22.754  18.391  1.00  0.00     0.167 HD
BRANCH   2   4
HETATM    4  C6  UNL     1      14.292  21.345  18.619  1.00  0.00    -0.005 C 
BRANCH   4   5
HETATM    5  C5  UNL     1      13.453  20.238  18.995  1.00  0.00     0.062 C 
HETATM    6  C2  UNL     1      14.156  18.996  19.525  1.00  0.00     0.018 C 
HETATM    7  C1  UNL     1      14.563  18.027  18.444  1.00  0.00     0.012 C 
HETATM    8  C3  UNL     1      12.830  18.345  20.037  1.00  0.00     0.237 C 
HETATM    9  N1  UNL     1      12.097  18.346  18.778  1.00  0.00    -0.074 N 
HETATM   10  C4  UNL     1      12.424  19.634  18.136  1.00  0.00     0.243 C 
ATOM     11  H12 UNL     1      12.288  17.534  18.190  1.00  0.00     0.277 HD
ATOM     12  H11 UNL     1      11.096  18.183  18.885  1.00  0.00     0.277 HD
ENDBRANCH   4   5
BRANCH   4  13
HETATM   13  C7  UNL     1      15.505  21.686  19.445  1.00  0.00     0.054 C 
BRANCH  13  14
HETATM   14  C8  UNL     1      16.834  21.541  18.836  1.00  0.00     0.015 C 
BRANCH  14  15
HETATM   15  C9  UNL     1      17.857  22.528  19.354  1.00  0.00    -0.039 C 
HETATM   16  C10 UNL     1      18.706  21.838  20.419  1.00  0.00     0.014 C 
HETATM   17  C11 UNL     1      19.716  22.768  21.002  1.00  0.00    -0.013 C 
HETATM   18  C12 UNL     1      20.593  23.303  19.908  1.00  0.00     0.009 C 
HETATM   19  C16 UNL     1      19.011  23.909  21.701  1.00  0.00     0.009 C 
HETATM   20  C13 UNL     1      19.703  24.060  18.924  1.00  0.00    -0.013 C 
HETATM   21  C14 UNL     1      18.999  25.178  19.617  1.00  0.00     0.009 C 
HETATM   22  C18 UNL     1      18.776  23.041  18.306  1.00  0.00     0.014 C 
HETATM   23  C15 UNL     1      18.126  24.599  20.717  1.00  0.00    -0.013 C 
HETATM   24  C17 UNL     1      17.140  23.663  20.045  1.00  0.00     0.014 C 
ENDBRANCH  14  15
ENDBRANCH  13  14
ENDBRANCH   4  13
ENDBRANCH   2   4
ENDBRANCH   1   2
BRANCH   1  25
HETATM   25  O1  UNL     1      14.552  24.651  18.004  1.00  0.00    -0.348 OA
ATOM     26  H1  UNL     1      13.791  24.977  18.469  1.00  0.00     0.219 HD
ENDBRANCH   1  25
BRANCH   1  27
HETATM   27  C20 UNL     1      14.825  23.540  16.009  1.00  0.00     0.165 C 
BRANCH  27  28
HETATM   28  N3  UNL     1      16.290  23.623  15.953  1.00  0.00    -0.324 N 
HETATM   29  C21 UNL     1      16.890  24.659  15.232  1.00  0.00     0.361 C 
HETATM   30  O2  UNL     1      16.242  25.544  14.600  1.00  0.00    -0.238 OA
ATOM     31  H3  UNL     1      16.864  22.931  16.435  1.00  0.00     0.165 HD
BRANCH  29  32
HETATM   32  O3  UNL     1      18.274  24.763  15.178  1.00  0.00    -0.296 OA
BRANCH  32  33
HETATM   33  C22 UNL     1      18.995  25.947  15.473  1.00  0.00     0.166 C 
HETATM   34  C23 UNL     1      19.400  26.673  14.199  1.00  0.00     0.068 C 
HETATM   35  C24 UNL     1      20.891  26.357  14.256  1.00  0.00     0.141 C 
HETATM   36  O4  UNL     1      20.846  24.997  14.647  1.00  0.00    -0.376 OA
HETATM   37  C26 UNL     1      21.316  26.650  15.668  1.00  0.00     0.147 C 
HETATM   38  C25 UNL     1      20.399  25.498  15.886  1.00  0.00     0.168 C 
BRANCH  37  39
HETATM   39  C27 UNL     1      20.957  27.956  16.210  1.00  0.00     0.182 C 
HETATM   40  O5  UNL     1      20.637  28.094  17.414  1.00  0.00    -0.648 OA
HETATM   41  O6  UNL     1      20.972  29.056  15.388  1.00  0.00    -0.648 OA
ENDBRANCH  37  39
ENDBRANCH  32  33
ENDBRANCH  29  32
ENDBRANCH  27  28
BRANCH  27  42
HETATM   42  C28 UNL     1      14.385  22.327  15.192  1.00  0.00     0.016 C 
HETATM   43  C29 UNL     1      12.934  22.048  15.260  1.00  0.00     0.007 C 
HETATM   44  C30 UNL     1      12.335  21.724  13.910  1.00  0.00     0.000 C 
HETATM   45  C31 UNL     1      13.167  20.614  13.310  1.00  0.00     0.000 C 
HETATM   46  C32 UNL     1      14.521  21.148  12.990  1.00  0.00     0.000 C 
HETATM   47  C33 UNL     1      14.986  22.291  13.828  1.00  0.00     0.007 C 
ENDBRANCH  27  42
ENDBRANCH   1  27
TORSDOF 13
ENDMDL
MODEL 4
REMARK VINA RESULT: -10.879708539      1.711      5.674
REMARK  13 active torsions:
REMARK  status: ('A' for Active; 'I' for Inactive)
REMARK    1  A    between atoms: C5_8  and  C6_9 
REMARK    2  A    between atoms: C6_9  and  C7_10 
REMARK    3  A    between atoms: C6_9  and  N2_22 
REMARK    4  A    between atoms: C7_10  and  C8_11 
REMARK    5  A    between atoms: C8_11  and  C9_12 
REMARK    6  A    between atoms: N2_22  and  C19_24 
REMARK    7  A    between atoms: C19_24  and  O1_25 
REMARK    8  A    between atoms: C19_24  and  C20_27 
REMARK    9  A    between atoms: C20_27  and  N3_28 
REMARK   10  A    between atoms: C20_27  and  C28_42 
REMARK       I    between atoms: N3_28  and  C21_30 
REMARK   11  A    between atoms: C21_30  and  O3_32 
REMARK   12  A    between atoms: O3_32  and  C22_33 
REMARK   13  A    between atoms: C26_38  and  C27_39 
ROOT
HETATM    1  C19 UNL     1      14.971  23.800  17.149  1.00  0.00     0.139 C 
ENDROOT
BRANCH   1   2
HETATM    2  N2  UNL     1      15.669  24.500  18.138  1.00  0.00    -0.346 N 
ATOM      3  H2  UNL     1      15.133  25.052  18.807  1.00  0.00     0.167 HD
BRANCH   2   4
HETATM    4  C6  UNL     1      17.127  24.484  18.264  1.00  0.00    -0.005 C 
BRANCH   4   5
HETATM    5  C5  UNL     1      17.714  24.270  19.560  1.00  0.00     0.062 C 
HETATM    6  C2  UNL     1      19.092  24.872  19.795  1.00  0.00     0.018 C 
HETATM    7  C1  UNL     1      20.224  23.966  19.384  1.00  0.00     0.012 C 
HETATM    8  C3  UNL     1      19.044  24.623  21.338  1.00  0.00     0.237 C 
HETATM    9  N1  UNL     1      18.820  23.184  21.311  1.00  0.00    -0.074 N 
HETATM   10  C4  UNL     1      17.866  22.959  20.207  1.00  0.00     0.243 C 
ATOM     11  H12 UNL     1      19.676  22.635  21.232  1.00  0.00     0.277 HD
ATOM     12  H11 UNL     1      18.513  22.799  22.204  1.00  0.00     0.277 HD
ENDBRANCH   4   5
BRANCH   4  13
HETATM   13  C7  UNL     1      17.719  25.505  17.328  1.00  0.00     0.054 C 
BRANCH  13  14
HETATM   14  C8  UNL     1      18.405  25.035  16.116  1.00  0.00     0.015 C 
BRANCH  14  15
HETATM   15  C9  UNL     1      19.521  25.945  15.651  1.00  0.00    -0.039 C 
HETATM   16  C10 UNL     1      20.031  26.744  16.848  1.00  0.00     0.014 C 
HETATM   17  C11 UNL     1      21.113  27.692  16.454  1.00  0.00    -0.013 C 
HETATM   18  C12 UNL     1      22.241  26.929  15.822  1.00  0.00     0.009 C 
HETATM   19  C16 UNL     1      20.566  28.706  15.474  1.00  0.00     0.009 C 
HETATM   20  C13 UNL     1      21.692  26.226  14.581  1.00  0.00    -0.013 C 
HETATM   21  C14 UNL     1      21.141  27.227  13.621  1.00  0.00     0.009 C 
HETATM   22  C18 UNL     1      20.678  25.220  15.066  1.00  0.00     0.014 C 
HETATM   23  C15 UNL     1      20.008  27.980  14.295  1.00  0.00    -0.013 C 
HETATM   24  C17 UNL     1      18.962  26.948  14.671  1.00  0.00     0.014 C 
ENDBRANCH  14  15
ENDBRANCH  13  14
ENDBRANCH   4  13
ENDBRANCH   2   4
ENDBRANCH   1   2
BRANCH   1  25
HETATM   25  O1  UNL     1      13.708  24.102  17.096  1.00  0.00    -0.348 OA
ATOM     26  H1  UNL     1      13.547  25.022  16.923  1.00  0.00     0.219 HD
ENDBRANCH   1  25
BRANCH   1  27
HETATM   27  C20 UNL     1      15.367  22.802  16.177  1.00  0.00     0.165 C 
BRANCH  27  28
HETATM   28  N3  UNL     1      14.814  21.478  16.492  1.00  0.00    -0.324 N 
HETATM   29  C21 UNL     1      15.547  20.603  17.299  1.00  0.00     0.361 C 
HETATM   30  O2  UNL     1      16.686  20.876  17.778  1.00  0.00    -0.238 OA
ATOM     31  H3  UNL     1      13.904  21.199  16.125  1.00  0.00     0.165 HD
BRANCH  29  32
HETATM   32  O3  UNL     1      15.036  19.353  17.620  1.00  0.00    -0.296 OA
BRANCH  32  33
HETATM   33  C22 UNL     1      13.753  19.138  18.182  1.00  0.00     0.166 C 
HETATM   34  C23 UNL     1      13.604  19.873  19.505  1.00  0.00     0.068 C 
HETATM   35  C24 UNL     1      13.649  18.652  20.418  1.00  0.00     0.141 C 
HETATM   36  O4  UNL     1      14.695  17.919  19.806  1.00  0.00    -0.376 OA
HETATM   37  C26 UNL     1      12.714  17.648  19.801  1.00  0.00     0.147 C 
HETATM   38  C25 UNL     1      13.774  17.720  18.759  1.00  0.00     0.168 C 
BRANCH  37  39
HETATM   39  C27 UNL     1      11.367  18.109  19.479  1.00  0.00     0.182 C 
HETATM   40  O5  UNL     1      10.664  18.706  20.327  1.00  0.00    -0.648 OA
HETATM   41  O6  UNL     1      10.859  17.886  18.223  1.00  0.00    -0.648 OA
ENDBRANCH  37  39
ENDBRANCH  32  33
ENDBRANCH  29  32
ENDBRANCH  27  28
BRANCH  27  42
HETATM   42  C28 UNL     1      14.977  23.151  14.742  1.00  0.00     0.016 C 
HETATM   43  C29 UNL     1      15.606  24.388  14.231  1.00  0.00     0.007 C 
HETATM   44  C30 UNL     1      16.138  24.237  12.823  1.00  0.00     0.000 C 
HETATM   45  C31 UNL     1      15.006  23.704  11.976  1.00  0.00     0.000 C 
HETATM   46  C32 UNL     1      14.703  22.308  12.403  1.00  0.00     0.000 C 
HETATM   47  C33 UNL     1      15.019  21.978  13.823  1.00  0.00     0.007 C 
ENDBRANCH  27  42
ENDBRANCH   1  27
TORSDOF 13
ENDMDL
MODEL 5
REMARK VINA RESULT: -10.863718690      1.715      5.686
REMARK  13 active torsions:
REMARK  status: ('A' for Active; 'I' for Inactive)
REMARK    1  A    between atoms: C5_8  and  C6_9 
REMARK    2  A    between atoms: C6_9  and  C7_10 
REMARK    3  A    between atoms: C6_9  and  N2_22 
REMARK    4  A    between atoms: C7_10  and  C8_11 
REMARK    5  A    between atoms: C8_11  and  C9_12 
REMARK    6  A    between atoms: N2_22  and  C19_24 
REMARK    7  A    between atoms: C19_24  and  O1_25 
REMARK    8  A    between atoms: C19_24  and  C20_27 
REMARK    9  A    between atoms: C20_27  and  N3_28 
REMARK   10  A    between atoms: C20_27  and  C28_42 
REMARK       I    between atoms: N3_28  and  C21_30 
REMARK   11  A    between atoms: C21_30  and  O3_32 
REMARK   12  A    between atoms: O3_32  and  C22_33 
REMARK   13  A    between atoms: C26_38  and  C27_39 
ROOT
HETATM    1  C19 UNL     1      14.977  23.788  17.176  1.00  0.00     0.139 C 
ENDROOT
BRANCH   1   2
HETATM    2  N2  UNL     1      15.669  24.461  18.187  1.00  0.00    -0.346 N 
ATOM      3  H2  UNL     1      15.129  24.990  18.871  1.00  0.00     0.167 HD
BRANCH   2   4
HETATM    4  C6  UNL     1      17.127  24.448  18.316  1.00  0.00    -0.005 C 
BRANCH   4   5
HETATM    5  C5  UNL     1      17.712  24.199  19.607  1.00  0.00     0.062 C 
HETATM    6  C2  UNL     1      19.053  24.861  19.889  1.00  0.00     0.018 C 
HETATM    7  C1  UNL     1      20.236  24.038  19.447  1.00  0.00     0.012 C 
HETATM    8  C3  UNL     1      19.004  24.530  21.417  1.00  0.00     0.237 C 
HETATM    9  N1  UNL     1      18.856  23.085  21.314  1.00  0.00    -0.074 N 
HETATM   10  C4  UNL     1      17.927  22.866  20.189  1.00  0.00     0.243 C 
ATOM     11  H12 UNL     1      19.741  22.587  21.219  1.00  0.00     0.277 HD
ATOM     12  H11 UNL     1      18.562  22.640  22.183  1.00  0.00     0.277 HD
ENDBRANCH   4   5
BRANCH   4  13
HETATM   13  C7  UNL     1      17.717  25.498  17.411  1.00  0.00     0.054 C 
BRANCH  13  14
HETATM   14  C8  UNL     1      18.430  25.066  16.202  1.00  0.00     0.015 C 
BRANCH  14  15
HETATM   15  C9  UNL     1      19.467  26.054  15.716  1.00  0.00    -0.039 C 
HETATM   16  C10 UNL     1      20.633  25.279  15.107  1.00  0.00     0.014 C 
HETATM   17  C11 UNL     1      21.714  26.194  14.637  1.00  0.00    -0.013 C 
HETATM   18  C12 UNL     1      21.152  27.157  13.632  1.00  0.00     0.009 C 
HETATM   19  C16 UNL     1      22.283  26.953  15.815  1.00  0.00     0.009 C 
HETATM   20  C13 UNL     1      20.055  27.966  14.323  1.00  0.00    -0.013 C 
HETATM   21  C14 UNL     1      20.615  28.704  15.492  1.00  0.00     0.009 C 
HETATM   22  C18 UNL     1      18.959  26.992  14.681  1.00  0.00     0.014 C 
HETATM   23  C15 UNL     1      21.177  27.700  16.482  1.00  0.00    -0.013 C 
HETATM   24  C17 UNL     1      20.023  26.807  16.900  1.00  0.00     0.014 C 
ENDBRANCH  14  15
ENDBRANCH  13  14
ENDBRANCH   4  13
ENDBRANCH   2   4
ENDBRANCH   1   2
BRANCH   1  25
HETATM   25  O1  UNL     1      13.721  24.115  17.102  1.00  0.00    -0.348 OA
ATOM     26  H1  UNL     1      13.204  23.515  16.579  1.00  0.00     0.219 HD
ENDBRANCH   1  25
BRANCH   1  27
HETATM   27  C20 UNL     1      15.371  22.795  16.198  1.00  0.00     0.165 C 
BRANCH  27  28
HETATM   28  N3  UNL     1      14.811  21.472  16.500  1.00  0.00    -0.324 N 
HETATM   29  C21 UNL     1      15.540  20.585  17.298  1.00  0.00     0.361 C 
HETATM   30  O2  UNL     1      16.681  20.847  17.779  1.00  0.00    -0.238 OA
ATOM     31  H3  UNL     1      13.899  21.202  16.131  1.00  0.00     0.165 HD
BRANCH  29  32
HETATM   32  O3  UNL     1      15.021  19.335  17.607  1.00  0.00    -0.296 OA
BRANCH  32  33
HETATM   33  C22 UNL     1      13.742  19.122  18.178  1.00  0.00     0.166 C 
HETATM   34  C23 UNL     1      13.602  19.859  19.502  1.00  0.00     0.068 C 
HETATM   35  C24 UNL     1      13.650  18.638  20.414  1.00  0.00     0.141 C 
HETATM   36  O4  UNL     1      14.691  17.902  19.796  1.00  0.00    -0.376 OA
HETATM   37  C26 UNL     1      12.709  17.636  19.804  1.00  0.00     0.147 C 
HETATM   38  C25 UNL     1      13.763  17.705  18.754  1.00  0.00     0.168 C 
BRANCH  37  39
HETATM   39  C27 UNL     1      11.362  18.099  19.490  1.00  0.00     0.182 C 
HETATM   40  O5  UNL     1      10.672  18.713  20.338  1.00  0.00    -0.648 OA
HETATM   41  O6  UNL     1      10.838  17.861  18.243  1.00  0.00    -0.648 OA
ENDBRANCH  37  39
ENDBRANCH  32  33
ENDBRANCH  29  32
ENDBRANCH  27  28
BRANCH  27  42
HETATM   42  C28 UNL     1      14.990  23.158  14.764  1.00  0.00     0.016 C 
HETATM   43  C29 UNL     1      15.632  24.391  14.262  1.00  0.00     0.007 C 
HETATM   44  C30 UNL     1      16.167  24.244  12.854  1.00  0.00     0.000 C 
HETATM   45  C31 UNL     1      15.033  23.727  12.001  1.00  0.00     0.000 C 
HETATM   46  C32 UNL     1      14.713  22.332  12.419  1.00  0.00     0.000 C 
HETATM   47  C33 UNL     1      15.022  21.990  13.837  1.00  0.00     0.007 C 
ENDBRANCH  27  42
ENDBRANCH   1  27
TORSDOF 13
ENDMDL
