MODEL 1
REMARK VINA RESULT: -8.182405560      0.000      0.000
REMARK  12 active torsions:
REMARK  status: ('A' for Active; 'I' for Inactive)
REMARK    1  A    between atoms: C2_2  and  C3_3 
REMARK    2  A    between atoms: C12_12  and  O1_13 
REMARK    3  A    between atoms: O1_13  and  C13_14 
REMARK    4  A    between atoms: C16_17  and  C17_18 
REMARK    5  A    between atoms: C17_18  and  N1_19 
REMARK    6  A    between atoms: C18_23  and  O2_24 
REMARK    7  A    between atoms: C26_33  and  N2_34 
REMARK       I    between atoms: N2_34  and  C27_36 
REMARK    8  A    between atoms: C27_36  and  C28_38 
REMARK    9  A    between atoms: C28_38  and  N3_39 
REMARK   10  A    between atoms: N3_39  and  C30_41 
REMARK   11  A    between atoms: C30_41  and  C31_42 
REMARK   12  A    between atoms: C31_42  and  O4_43 
ROOT
HETATM    1  C3  UNL     1      17.067  22.460  19.259  1.00  0.00     0.025 C 
HETATM    2  C4  UNL     1      18.240  23.280  19.505  1.00  0.00    -0.029 C 
HETATM    3  C5  UNL     1      19.357  22.596  20.322  1.00  0.00     0.016 C 
HETATM    4  C6  UNL     1      17.794  24.419  20.450  1.00  0.00     0.037 C 
HETATM    5  C7  UNL     1      16.683  25.203  19.915  1.00  0.00    -0.029 C 
HETATM    6  C8  UNL     1      16.183  25.381  18.701  1.00  0.00    -0.025 C 
HETATM    7  C9  UNL     1      16.765  24.703  17.468  1.00  0.00     0.021 C 
HETATM    8  C10 UNL     1      18.196  24.844  17.527  1.00  0.00     0.001 C 
HETATM    9  C11 UNL     1      18.980  24.911  16.217  1.00  0.00     0.037 C 
HETATM   10  C12 UNL     1      20.239  25.778  16.525  1.00  0.00     0.122 C 
HETATM   11  C19 UNL     1      20.965  25.164  17.654  1.00  0.00     0.032 C 
HETATM   12  C20 UNL     1      20.166  24.770  18.875  1.00  0.00     0.008 C 
HETATM   13  C21 UNL     1      18.975  23.925  18.391  1.00  0.00    -0.001 C 
HETATM   14  C22 UNL     1      16.085  23.425  17.180  1.00  0.00    -0.029 C 
HETATM   15  C23 UNL     1      14.640  23.687  17.670  1.00  0.00     0.016 C 
HETATM   16  C24 UNL     1      15.961  23.271  15.696  1.00  0.00     0.012 C 
HETATM   17  C25 UNL     1      14.787  22.507  15.223  1.00  0.00     0.026 C 
HETATM   18  C26 UNL     1      14.651  21.083  15.549  1.00  0.00     0.084 C 
HETATM   19  C32 UNL     1      14.888  20.510  16.849  1.00  0.00     0.026 C 
HETATM   20  C33 UNL     1      15.498  21.151  18.007  1.00  0.00     0.012 C 
HETATM   21  C34 UNL     1      16.607  22.168  17.841  1.00  0.00    -0.029 C 
HETATM   22  C35 UNL     1      17.676  21.424  17.116  1.00  0.00     0.016 C 
ENDROOT
BRANCH  10  23
HETATM   23  O1  UNL     1      20.974  25.724  15.414  1.00  0.00    -0.378 OA
BRANCH  23  24
HETATM   24  C13 UNL     1      21.698  26.747  14.922  1.00  0.00     0.151 C 
HETATM   25  C14 UNL     1      23.026  26.956  15.615  1.00  0.00     0.035 C 
HETATM   26  C15 UNL     1      23.224  28.444  15.773  1.00  0.00     0.011 C 
HETATM   27  C16 UNL     1      22.187  29.064  14.905  1.00  0.00     0.042 C 
HETATM   28  C18 UNL     1      21.077  28.059  14.746  1.00  0.00     0.152 C 
BRANCH  27  29
HETATM   29  C17 UNL     1      22.700  29.599  13.605  1.00  0.00     0.236 C 
BRANCH  29  30
HETATM   30  N1  UNL     1      23.924  30.303  13.640  1.00  0.00    -0.079 N 
ATOM     31  H13 UNL     1      24.289  30.305  14.592  1.00  0.00     0.274 HD
ATOM     32  H12 UNL     1      24.643  29.759  13.163  1.00  0.00     0.274 HD
ATOM     33  H11 UNL     1      23.921  31.256  13.275  1.00  0.00     0.274 HD
ENDBRANCH  29  30
ENDBRANCH  27  29
BRANCH  28  34
HETATM   34  O2  UNL     1      20.103  28.401  15.675  1.00  0.00    -0.393 OA
ATOM     35  H2  UNL     1      20.059  29.320  15.915  1.00  0.00     0.210 HD
ENDBRANCH  28  34
ENDBRANCH  23  24
ENDBRANCH  10  23
BRANCH   1  36
HETATM   36  C2  UNL     1      17.193  21.180  20.024  1.00  0.00    -0.031 C 
HETATM   37  C1  UNL     1      16.391  20.847  21.024  1.00  0.00     0.007 C 
ENDBRANCH   1  36
BRANCH  18  38
HETATM   38  N2  UNL     1      13.219  20.794  15.251  1.00  0.00    -0.355 N 
HETATM   39  C27 UNL     1      12.806  20.154  14.060  1.00  0.00     0.246 C 
HETATM   40  O3  UNL     1      13.707  19.816  13.233  1.00  0.00    -0.272 OA
ATOM     41  H2  UNL     1      12.511  21.069  15.933  1.00  0.00     0.162 HD
BRANCH  39  42
HETATM   42  C28 UNL     1      11.390  19.899  13.801  1.00  0.00     0.374 C 
BRANCH  42  43
HETATM   43  N3  UNL     1      10.809  18.859  14.607  1.00  0.00     0.095 N 
HETATM   44  C29 UNL     1      10.229  17.819  13.801  1.00  0.00     0.310 C 
BRANCH  43  45
HETATM   45  C30 UNL     1       9.697  19.488  15.337  1.00  0.00     0.298 C 
BRANCH  45  46
HETATM   46  C31 UNL     1      10.109  19.805  16.753  1.00  0.00     0.194 C 
BRANCH  46  47
HETATM   47  O4  UNL     1       9.343  20.890  17.173  1.00  0.00    -0.399 OA
ATOM     48  H4  UNL     1       8.981  20.667  18.022  1.00  0.00     0.209 HD
ENDBRANCH  46  47
ENDBRANCH  45  46
ENDBRANCH  43  45
ENDBRANCH  42  43
ENDBRANCH  39  42
ENDBRANCH  18  38
TORSDOF 12
ENDMDL
MODEL 2
REMARK VINA RESULT: -7.636249099      1.206      1.477
REMARK  12 active torsions:
REMARK  status: ('A' for Active; 'I' for Inactive)
REMARK    1  A    between atoms: C2_2  and  C3_3 
REMARK    2  A    between atoms: C12_12  and  O1_13 
REMARK    3  A    between atoms: O1_13  and  C13_14 
REMARK    4  A    between atoms: C16_17  and  C17_18 
REMARK    5  A    between atoms: C17_18  and  N1_19 
REMARK    6  A    between atoms: C18_23  and  O2_24 
REMARK    7  A    between atoms: C26_33  and  N2_34 
REMARK       I    between atoms: N2_34  and  C27_36 
REMARK    8  A    between atoms: C27_36  and  C28_38 
REMARK    9  A    between atoms: C28_38  and  N3_39 
REMARK   10  A    between atoms: N3_39  and  C30_41 
REMARK   11  A    between atoms: C30_41  and  C31_42 
REMARK   12  A    between atoms: C31_42  and  O4_43 
ROOT
HETATM    1  C3  UNL     1      17.716  22.754  19.212  1.00  0.00     0.025 C 
HETATM    2  C4  UNL     1      18.782  23.671  19.575  1.00  0.00    -0.029 C 
HETATM    3  C5  UNL     1      20.001  23.018  20.262  1.00  0.00     0.016 C 
HETATM    4  C6  UNL     1      18.224  24.579  20.694  1.00  0.00     0.037 C 
HETATM    5  C7  UNL     1      17.006  25.285  20.301  1.00  0.00    -0.029 C 
HETATM    6  C8  UNL     1      16.451  25.585  19.136  1.00  0.00    -0.025 C 
HETATM    7  C9  UNL     1      17.077  25.191  17.805  1.00  0.00     0.021 C 
HETATM    8  C10 UNL     1      18.480  25.507  17.872  1.00  0.00     0.001 C 
HETATM    9  C11 UNL     1      19.210  25.881  16.583  1.00  0.00     0.037 C 
HETATM   10  C12 UNL     1      20.356  26.845  17.013  1.00  0.00     0.122 C 
HETATM   11  C19 UNL     1      21.189  26.161  18.023  1.00  0.00     0.032 C 
HETATM   12  C20 UNL     1      20.484  25.479  19.173  1.00  0.00     0.008 C 
HETATM   13  C21 UNL     1      19.395  24.573  18.571  1.00  0.00    -0.001 C 
HETATM   14  C22 UNL     1      16.557  23.897  17.323  1.00  0.00    -0.029 C 
HETATM   15  C23 UNL     1      15.106  23.888  17.862  1.00  0.00     0.016 C 
HETATM   16  C24 UNL     1      16.409  23.963  15.835  1.00  0.00     0.012 C 
HETATM   17  C25 UNL     1      15.328  23.137  15.257  1.00  0.00     0.026 C 
HETATM   18  C26 UNL     1      15.384  21.673  15.353  1.00  0.00     0.084 C 
HETATM   19  C32 UNL     1      15.731  20.939  16.542  1.00  0.00     0.026 C 
HETATM   20  C33 UNL     1      16.289  21.464  17.782  1.00  0.00     0.012 C 
HETATM   21  C34 UNL     1      17.254  22.631  17.770  1.00  0.00    -0.029 C 
HETATM   22  C35 UNL     1      18.387  22.155  16.925  1.00  0.00     0.016 C 
ENDROOT
BRANCH  10  23
HETATM   23  O1  UNL     1      21.059  27.062  15.901  1.00  0.00    -0.378 OA
BRANCH  23  24
HETATM   24  C13 UNL     1      21.824  28.147  15.676  1.00  0.00     0.151 C 
HETATM   25  C14 UNL     1      21.487  28.889  14.402  1.00  0.00     0.035 C 
HETATM   26  C15 UNL     1      22.789  29.300  13.759  1.00  0.00     0.011 C 
HETATM   27  C16 UNL     1      23.822  29.076  14.806  1.00  0.00     0.042 C 
HETATM   28  C18 UNL     1      23.281  28.037  15.754  1.00  0.00     0.152 C 
BRANCH  27  29
HETATM   29  C17 UNL     1      24.299  30.318  15.490  1.00  0.00     0.236 C 
BRANCH  29  30
HETATM   30  N1  UNL     1      25.253  30.158  16.520  1.00  0.00    -0.079 N 
ATOM     31  H13 UNL     1      25.219  29.200  16.869  1.00  0.00     0.274 HD
ATOM     32  H12 UNL     1      26.191  30.181  16.121  1.00  0.00     0.274 HD
ATOM     33  H11 UNL     1      25.200  30.807  17.304  1.00  0.00     0.274 HD
ENDBRANCH  29  30
ENDBRANCH  27  29
BRANCH  28  34
HETATM   34  O2  UNL     1      23.823  26.823  15.356  1.00  0.00    -0.393 OA
ATOM     35  H2  UNL     1      23.279  26.288  14.788  1.00  0.00     0.210 HD
ENDBRANCH  28  34
ENDBRANCH  23  24
ENDBRANCH  10  23
BRANCH   1  36
HETATM   36  C2  UNL     1      18.027  21.397  19.762  1.00  0.00    -0.031 C 
HETATM   37  C1  UNL     1      17.603  20.975  20.943  1.00  0.00     0.007 C 
ENDBRANCH   1  36
BRANCH  18  38
HETATM   38  N2  UNL     1      13.992  21.251  15.027  1.00  0.00    -0.355 N 
HETATM   39  C27 UNL     1      13.642  20.700  13.773  1.00  0.00     0.246 C 
HETATM   40  O3  UNL     1      14.564  20.563  12.913  1.00  0.00    -0.272 OA
ATOM     41  H2  UNL     1      13.266  21.364  15.734  1.00  0.00     0.162 HD
BRANCH  39  42
HETATM   42  C28 UNL     1      12.262  20.308  13.489  1.00  0.00     0.374 C 
BRANCH  42  43
HETATM   43  N3  UNL     1      11.500  19.908  14.641  1.00  0.00     0.095 N 
HETATM   44  C29 UNL     1      10.670  18.768  14.365  1.00  0.00     0.310 C 
BRANCH  43  45
HETATM   45  C30 UNL     1      10.588  21.027  14.929  1.00  0.00     0.298 C 
BRANCH  45  46
HETATM   46  C31 UNL     1       9.382  20.540  15.693  1.00  0.00     0.194 C 
BRANCH  46  47
HETATM   47  O4  UNL     1       8.589  21.652  15.965  1.00  0.00    -0.399 OA
ATOM     48  H4  UNL     1       8.253  21.549  16.848  1.00  0.00     0.209 HD
ENDBRANCH  46  47
ENDBRANCH  45  46
ENDBRANCH  43  45
ENDBRANCH  42  43
ENDBRANCH  39  42
ENDBRANCH  18  38
TORSDOF 12
ENDMDL
MODEL 3
REMARK VINA RESULT: -7.440474407      0.959      1.134
REMARK  12 active torsions:
REMARK  status: ('A' for Active; 'I' for Inactive)
REMARK    1  A    between atoms: C2_2  and  C3_3 
REMARK    2  A    between atoms: C12_12  and  O1_13 
REMARK    3  A    between atoms: O1_13  and  C13_14 
REMARK    4  A    between atoms: C16_17  and  C17_18 
REMARK    5  A    between atoms: C17_18  and  N1_19 
REMARK    6  A    between atoms: C18_23  and  O2_24 
REMARK    7  A    between atoms: C26_33  and  N2_34 
REMARK       I    between atoms: N2_34  and  C27_36 
REMARK    8  A    between atoms: C27_36  and  C28_38 
REMARK    9  A    between atoms: C28_38  and  N3_39 
REMARK   10  A    between atoms: N3_39  and  C30_41 
REMARK   11  A    between atoms: C30_41  and  C31_42 
REMARK   12  A    between atoms: C31_42  and  O4_43 
ROOT
HETATM    1  C3  UNL     1      16.965  22.432  19.203  1.00  0.00     0.025 C 
HETATM    2  C4  UNL     1      18.195  23.161  19.456  1.00  0.00    -0.029 C 
HETATM    3  C5  UNL     1      19.291  22.360  20.192  1.00  0.00     0.016 C 
HETATM    4  C6  UNL     1      17.853  24.265  20.481  1.00  0.00     0.037 C 
HETATM    5  C7  UNL     1      16.778  25.148  20.032  1.00  0.00    -0.029 C 
HETATM    6  C8  UNL     1      16.254  25.431  18.850  1.00  0.00    -0.025 C 
HETATM    7  C9  UNL     1      16.752  24.794  17.559  1.00  0.00     0.021 C 
HETATM    8  C10 UNL     1      18.190  24.842  17.577  1.00  0.00     0.001 C 
HETATM    9  C11 UNL     1      18.937  24.941  16.246  1.00  0.00     0.037 C 
HETATM   10  C12 UNL     1      20.257  25.707  16.561  1.00  0.00     0.122 C 
HETATM   11  C19 UNL     1      20.978  24.980  17.626  1.00  0.00     0.032 C 
HETATM   12  C20 UNL     1      20.193  24.563  18.848  1.00  0.00     0.008 C 
HETATM   13  C21 UNL     1      18.935  23.825  18.357  1.00  0.00    -0.001 C 
HETATM   14  C22 UNL     1      15.983  23.581  17.220  1.00  0.00    -0.029 C 
HETATM   15  C23 UNL     1      14.574  23.902  17.775  1.00  0.00     0.016 C 
HETATM   16  C24 UNL     1      15.803  23.526  15.735  1.00  0.00     0.012 C 
HETATM   17  C25 UNL     1      14.569  22.868  15.258  1.00  0.00     0.026 C 
HETATM   18  C26 UNL     1      14.351  21.437  15.505  1.00  0.00     0.084 C 
HETATM   19  C32 UNL     1      14.591  20.772  16.759  1.00  0.00     0.026 C 
HETATM   20  C33 UNL     1      15.277  21.302  17.931  1.00  0.00     0.012 C 
HETATM   21  C34 UNL     1      16.443  22.257  17.787  1.00  0.00    -0.029 C 
HETATM   22  C35 UNL     1      17.439  21.493  16.982  1.00  0.00     0.016 C 
ENDROOT
BRANCH  10  23
HETATM   23  O1  UNL     1      20.953  25.675  15.424  1.00  0.00    -0.378 OA
BRANCH  23  24
HETATM   24  C13 UNL     1      21.686  26.697  14.943  1.00  0.00     0.151 C 
HETATM   25  C14 UNL     1      23.006  26.899  15.653  1.00  0.00     0.035 C 
HETATM   26  C15 UNL     1      23.208  28.386  15.818  1.00  0.00     0.011 C 
HETATM   27  C16 UNL     1      22.183  29.012  14.939  1.00  0.00     0.042 C 
HETATM   28  C18 UNL     1      21.071  28.012  14.764  1.00  0.00     0.152 C 
BRANCH  27  29
HETATM   29  C17 UNL     1      22.713  29.549  13.648  1.00  0.00     0.236 C 
BRANCH  29  30
HETATM   30  N1  UNL     1      23.878  30.347  13.714  1.00  0.00    -0.079 N 
ATOM     31  H13 UNL     1      24.322  30.225  14.624  1.00  0.00     0.274 HD
ATOM     32  H12 UNL     1      24.593  29.957  13.100  1.00  0.00     0.274 HD
ATOM     33  H11 UNL     1      23.768  31.342  13.519  1.00  0.00     0.274 HD
ENDBRANCH  29  30
ENDBRANCH  27  29
BRANCH  28  34
HETATM   34  O2  UNL     1      20.088  28.355  15.682  1.00  0.00    -0.393 OA
ATOM     35  H2  UNL     1      19.233  27.962  15.544  1.00  0.00     0.210 HD
ENDBRANCH  28  34
ENDBRANCH  23  24
ENDBRANCH  10  23
BRANCH   1  36
HETATM   36  C2  UNL     1      17.032  21.102  19.886  1.00  0.00    -0.031 C 
HETATM   37  C1  UNL     1      16.276  20.778  20.924  1.00  0.00     0.007 C 
ENDBRANCH   1  36
BRANCH  18  38
HETATM   38  N2  UNL     1      12.895  21.257  15.240  1.00  0.00    -0.355 N 
HETATM   39  C27 UNL     1      12.405  20.312  14.310  1.00  0.00     0.246 C 
HETATM   40  O3  UNL     1      13.254  19.598  13.696  1.00  0.00    -0.272 OA
ATOM     41  H2  UNL     1      12.229  21.837  15.750  1.00  0.00     0.162 HD
BRANCH  39  42
HETATM   42  C28 UNL     1      10.969  20.175  14.072  1.00  0.00     0.374 C 
BRANCH  42  43
HETATM   43  N3  UNL     1      10.268  19.392  15.055  1.00  0.00     0.095 N 
HETATM   44  C29 UNL     1      10.984  19.330  16.300  1.00  0.00     0.310 C 
BRANCH  43  45
HETATM   45  C30 UNL     1      10.234  18.019  14.527  1.00  0.00     0.298 C 
BRANCH  45  46
HETATM   46  C31 UNL     1       9.849  17.046  15.613  1.00  0.00     0.194 C 
BRANCH  46  47
HETATM   47  O4  UNL     1      10.661  15.924  15.470  1.00  0.00    -0.399 OA
ATOM     48  H4  UNL     1      11.106  15.791  16.298  1.00  0.00     0.209 HD
ENDBRANCH  46  47
ENDBRANCH  45  46
ENDBRANCH  43  45
ENDBRANCH  42  43
ENDBRANCH  39  42
ENDBRANCH  18  38
TORSDOF 12
ENDMDL
MODEL 4
REMARK VINA RESULT: -7.342712974      1.405      1.609
REMARK  12 active torsions:
REMARK  status: ('A' for Active; 'I' for Inactive)
REMARK    1  A    between atoms: C2_2  and  C3_3 
REMARK    2  A    between atoms: C12_12  and  O1_13 
REMARK    3  A    between atoms: O1_13  and  C13_14 
REMARK    4  A    between atoms: C16_17  and  C17_18 
REMARK    5  A    between atoms: C17_18  and  N1_19 
REMARK    6  A    between atoms: C18_23  and  O2_24 
REMARK    7  A    between atoms: C26_33  and  N2_34 
REMARK       I    between atoms: N2_34  and  C27_36 
REMARK    8  A    between atoms: C27_36  and  C28_38 
REMARK    9  A    between atoms: C28_38  and  N3_39 
REMARK   10  A    between atoms: N3_39  and  C30_41 
REMARK   11  A    between atoms: C30_41  and  C31_42 
REMARK   12  A    between atoms: C31_42  and  O4_43 
ROOT
HETATM    1  C3  UNL     1      17.365  22.606  19.122  1.00  0.00     0.025 C 
HETATM    2  C4  UNL     1      18.424  23.597  19.178  1.00  0.00    -0.029 C 
HETATM    3  C5  UNL     1      19.739  23.114  19.824  1.00  0.00     0.016 C 
HETATM    4  C6  UNL     1      17.956  24.689  20.166  1.00  0.00     0.037 C 
HETATM    5  C7  UNL     1      16.672  25.282  19.796  1.00  0.00    -0.029 C 
HETATM    6  C8  UNL     1      15.977  25.343  18.670  1.00  0.00    -0.025 C 
HETATM    7  C9  UNL     1      16.466  24.716  17.371  1.00  0.00     0.021 C 
HETATM    8  C10 UNL     1      17.851  25.069  17.211  1.00  0.00     0.001 C 
HETATM    9  C11 UNL     1      18.414  25.206  15.797  1.00  0.00     0.037 C 
HETATM   10  C12 UNL     1      19.559  26.259  15.900  1.00  0.00     0.122 C 
HETATM   11  C19 UNL     1      20.529  25.797  16.913  1.00  0.00     0.032 C 
HETATM   12  C20 UNL     1      19.989  25.332  18.246  1.00  0.00     0.008 C 
HETATM   13  C21 UNL     1      18.880  24.305  17.957  1.00  0.00    -0.001 C 
HETATM   14  C22 UNL     1      15.951  23.343  17.204  1.00  0.00    -0.029 C 
HETATM   15  C23 UNL     1      14.572  23.405  17.905  1.00  0.00     0.016 C 
HETATM   16  C24 UNL     1      15.633  23.121  15.758  1.00  0.00     0.012 C 
HETATM   17  C25 UNL     1      14.531  22.178  15.477  1.00  0.00     0.026 C 
HETATM   18  C26 UNL     1      14.661  20.760  15.837  1.00  0.00     0.084 C 
HETATM   19  C32 UNL     1      15.172  20.273  17.093  1.00  0.00     0.026 C 
HETATM   20  C33 UNL     1      15.843  21.037  18.138  1.00  0.00     0.012 C 
HETATM   21  C34 UNL     1      16.748  22.200  17.793  1.00  0.00    -0.029 C 
HETATM   22  C35 UNL     1      17.798  21.597  16.923  1.00  0.00     0.016 C 
ENDROOT
BRANCH  10  23
HETATM   23  O1  UNL     1      20.121  26.276  14.691  1.00  0.00    -0.378 OA
BRANCH  23  24
HETATM   24  C13 UNL     1      21.140  27.078  14.329  1.00  0.00     0.151 C 
HETATM   25  C14 UNL     1      22.344  27.000  15.241  1.00  0.00     0.035 C 
HETATM   26  C15 UNL     1      22.862  28.405  15.428  1.00  0.00     0.011 C 
HETATM   27  C16 UNL     1      22.163  29.213  14.392  1.00  0.00     0.042 C 
HETATM   28  C18 UNL     1      20.888  28.491  14.046  1.00  0.00     0.152 C 
BRANCH  27  29
HETATM   29  C17 UNL     1      22.998  29.556  13.199  1.00  0.00     0.236 C 
BRANCH  29  30
HETATM   30  N1  UNL     1      24.006  30.530  13.380  1.00  0.00    -0.079 N 
ATOM     31  H13 UNL     1      24.050  31.132  12.558  1.00  0.00     0.274 HD
ATOM     32  H12 UNL     1      23.708  31.200  14.089  1.00  0.00     0.274 HD
ATOM     33  H11 UNL     1      24.942  30.192  13.604  1.00  0.00     0.274 HD
ENDBRANCH  29  30
ENDBRANCH  27  29
BRANCH  28  34
HETATM   34  O2  UNL     1      19.882  29.092  14.791  1.00  0.00    -0.393 OA
ATOM     35  H2  UNL     1      19.305  29.679  14.317  1.00  0.00     0.210 HD
ENDBRANCH  28  34
ENDBRANCH  23  24
ENDBRANCH  10  23
BRANCH   1  36
HETATM   36  C2  UNL     1      17.794  21.385  19.874  1.00  0.00    -0.031 C 
HETATM   37  C1  UNL     1      17.510  21.179  21.151  1.00  0.00     0.007 C 
ENDBRANCH   1  36
BRANCH  18  38
HETATM   38  N2  UNL     1      13.261  20.254  15.763  1.00  0.00    -0.355 N 
HETATM   39  C27 UNL     1      12.409  20.215  16.891  1.00  0.00     0.246 C 
HETATM   40  O3  UNL     1      12.873  20.638  17.993  1.00  0.00    -0.272 OA
ATOM     41  H2  UNL     1      12.905  19.924  14.866  1.00  0.00     0.162 HD
BRANCH  39  42
HETATM   42  C28 UNL     1      11.045  19.701  16.778  1.00  0.00     0.374 C 
BRANCH  42  43
HETATM   43  N3  UNL     1      10.916  18.284  16.990  1.00  0.00     0.095 N 
HETATM   44  C29 UNL     1      10.037  17.677  16.028  1.00  0.00     0.310 C 
BRANCH  43  45
HETATM   45  C30 UNL     1      10.268  18.129  18.302  1.00  0.00     0.298 C 
BRANCH  45  46
HETATM   46  C31 UNL     1      11.303  17.925  19.380  1.00  0.00     0.194 C 
BRANCH  46  47
HETATM   47  O4  UNL     1      10.860  18.605  20.512  1.00  0.00    -0.399 OA
ATOM     48  H4  UNL     1      11.398  19.383  20.601  1.00  0.00     0.209 HD
ENDBRANCH  46  47
ENDBRANCH  45  46
ENDBRANCH  43  45
ENDBRANCH  42  43
ENDBRANCH  39  42
ENDBRANCH  18  38
TORSDOF 12
ENDMDL
MODEL 5
REMARK VINA RESULT: -6.964799738      1.487      1.853
REMARK  12 active torsions:
REMARK  status: ('A' for Active; 'I' for Inactive)
REMARK    1  A    between atoms: C2_2  and  C3_3 
REMARK    2  A    between atoms: C12_12  and  O1_13 
REMARK    3  A    between atoms: O1_13  and  C13_14 
REMARK    4  A    between atoms: C16_17  and  C17_18 
REMARK    5  A    between atoms: C17_18  and  N1_19 
REMARK    6  A    between atoms: C18_23  and  O2_24 
REMARK    7  A    between atoms: C26_33  and  N2_34 
REMARK       I    between atoms: N2_34  and  C27_36 
REMARK    8  A    between atoms: C27_36  and  C28_38 
REMARK    9  A    between atoms: C28_38  and  N3_39 
REMARK   10  A    between atoms: N3_39  and  C30_41 
REMARK   11  A    between atoms: C30_41  and  C31_42 
REMARK   12  A    between atoms: C31_42  and  O4_43 
ROOT
HETATM    1  C3  UNL     1      17.961  22.836  19.119  1.00  0.00     0.025 C 
HETATM    2  C4  UNL     1      19.001  23.787  19.466  1.00  0.00    -0.029 C 
HETATM    3  C5  UNL     1      20.264  23.172  20.106  1.00  0.00     0.016 C 
HETATM    4  C6  UNL     1      18.442  24.655  20.616  1.00  0.00     0.037 C 
HETATM    5  C7  UNL     1      17.187  25.320  20.272  1.00  0.00    -0.029 C 
HETATM    6  C8  UNL     1      16.586  25.617  19.129  1.00  0.00    -0.025 C 
HETATM    7  C9  UNL     1      17.187  25.268  17.773  1.00  0.00     0.021 C 
HETATM    8  C10 UNL     1      18.578  25.638  17.806  1.00  0.00     0.001 C 
HETATM    9  C11 UNL     1      19.254  26.060  16.502  1.00  0.00     0.037 C 
HETATM   10  C12 UNL     1      20.375  27.062  16.915  1.00  0.00     0.122 C 
HETATM   11  C19 UNL     1      21.263  26.394  17.888  1.00  0.00     0.032 C 
HETATM   12  C20 UNL     1      20.619  25.667  19.046  1.00  0.00     0.008 C 
HETATM   13  C21 UNL     1      19.549  24.729  18.461  1.00  0.00    -0.001 C 
HETATM   14  C22 UNL     1      16.703  23.963  17.284  1.00  0.00    -0.029 C 
HETATM   15  C23 UNL     1      15.270  23.888  17.866  1.00  0.00     0.016 C 
HETATM   16  C24 UNL     1      16.508  24.047  15.803  1.00  0.00     0.012 C 
HETATM   17  C25 UNL     1      15.443  23.189  15.242  1.00  0.00     0.026 C 
HETATM   18  C26 UNL     1      15.558  21.727  15.311  1.00  0.00     0.084 C 
HETATM   19  C32 UNL     1      15.969  20.988  16.477  1.00  0.00     0.026 C 
HETATM   20  C33 UNL     1      16.543  21.514  17.709  1.00  0.00     0.012 C 
HETATM   21  C34 UNL     1      17.461  22.718  17.689  1.00  0.00    -0.029 C 
HETATM   22  C35 UNL     1      18.586  22.301  16.803  1.00  0.00     0.016 C 
ENDROOT
BRANCH  10  23
HETATM   23  O1  UNL     1      21.035  27.324  15.787  1.00  0.00    -0.378 OA
BRANCH  23  24
HETATM   24  C13 UNL     1      21.827  28.395  15.592  1.00  0.00     0.151 C 
HETATM   25  C14 UNL     1      21.578  29.121  14.289  1.00  0.00     0.035 C 
HETATM   26  C15 UNL     1      22.923  29.505  13.720  1.00  0.00     0.011 C 
HETATM   27  C16 UNL     1      23.887  29.285  14.832  1.00  0.00     0.042 C 
HETATM   28  C18 UNL     1      23.275  28.269  15.760  1.00  0.00     0.152 C 
BRANCH  27  29
HETATM   29  C17 UNL     1      24.337  30.532  15.524  1.00  0.00     0.236 C 
BRANCH  29  30
HETATM   30  N1  UNL     1      25.357  30.396  16.493  1.00  0.00    -0.079 N 
ATOM     31  H13 UNL     1      25.879  29.537  16.318  1.00  0.00     0.274 HD
ATOM     32  H12 UNL     1      26.081  31.094  16.325  1.00  0.00     0.274 HD
ATOM     33  H11 UNL     1      25.073  30.428  17.472  1.00  0.00     0.274 HD
ENDBRANCH  29  30
ENDBRANCH  27  29
BRANCH  28  34
HETATM   34  O2  UNL     1      23.824  27.041  15.415  1.00  0.00    -0.393 OA
ATOM     35  H2  UNL     1      24.772  26.985  15.445  1.00  0.00     0.210 HD
ENDBRANCH  28  34
ENDBRANCH  23  24
ENDBRANCH  10  23
BRANCH   1  36
HETATM   36  C2  UNL     1      18.340  21.483  19.636  1.00  0.00    -0.031 C 
HETATM   37  C1  UNL     1      18.122  21.092  20.882  1.00  0.00     0.007 C 
ENDBRANCH   1  36
BRANCH  18  38
HETATM   38  N2  UNL     1      14.175  21.256  15.019  1.00  0.00    -0.355 N 
HETATM   39  C27 UNL     1      13.754  20.903  13.716  1.00  0.00     0.246 C 
HETATM   40  O3  UNL     1      14.606  20.992  12.780  1.00  0.00    -0.272 OA
ATOM     41  H2  UNL     1      13.507  21.186  15.787  1.00  0.00     0.162 HD
BRANCH  39  42
HETATM   42  C28 UNL     1      12.384  20.456  13.469  1.00  0.00     0.374 C 
BRANCH  42  43
HETATM   43  N3  UNL     1      12.163  19.051  13.680  1.00  0.00     0.095 N 
HETATM   44  C29 UNL     1      12.299  18.299  12.463  1.00  0.00     0.310 C 
BRANCH  43  45
HETATM   45  C30 UNL     1      10.756  18.922  14.092  1.00  0.00     0.298 C 
BRANCH  45  46
HETATM   46  C31 UNL     1      10.277  17.505  13.898  1.00  0.00     0.194 C 
BRANCH  46  47
HETATM   47  O4  UNL     1       8.892  17.552  13.759  1.00  0.00    -0.399 OA
ATOM     48  H4  UNL     1       8.523  16.975  14.418  1.00  0.00     0.209 HD
ENDBRANCH  46  47
ENDBRANCH  45  46
ENDBRANCH  43  45
ENDBRANCH  42  43
ENDBRANCH  39  42
ENDBRANCH  18  38
TORSDOF 12
ENDMDL
