MODEL 1
REMARK VINA RESULT: -9.330827919      0.000      0.000
REMARK  9 active torsions:
REMARK  status: ('A' for Active; 'I' for Inactive)
REMARK    1  A    between atoms: C2_2  and  C3_3 
REMARK    2  A    between atoms: C3_3  and  C4_4 
REMARK    3  A    between atoms: C4_4  and  C5_5 
REMARK    4  A    between atoms: C7_10  and  C8_11 
REMARK    5  A    between atoms: C8_11  and  O2_12 
REMARK    6  A    between atoms: O2_12  and  C9_13 
REMARK    7  A    between atoms: C9_13  and  C10_14 
REMARK    8  A    between atoms: C18_29  and  C19_30 
REMARK    9  A    between atoms: C19_30  and  C20_31 
ROOT
HETATM    1  C5  UNL     1      14.358  21.248  14.280  1.00  0.00     0.176 C 
HETATM    2  N1  UNL     1      13.777  20.176  15.052  1.00  0.00    -0.346 N 
ATOM      3  H1  UNL     1      13.737  19.267  14.592  1.00  0.00     0.163 HD
HETATM    4  C6  UNL     1      13.262  20.226  16.349  1.00  0.00     0.243 C 
HETATM    5  O1  UNL     1      12.089  19.734  16.523  1.00  0.00    -0.271 OA
HETATM    6  C7  UNL     1      13.962  20.802  17.554  1.00  0.00     0.200 C 
HETATM    7  N2  UNL     1      15.307  20.291  17.662  1.00  0.00    -0.344 N 
ATOM      8  H2  UNL     1      15.387  19.277  17.727  1.00  0.00     0.163 HD
HETATM    9  C14 UNL     1      16.519  20.996  17.691  1.00  0.00     0.240 C 
HETATM   10  O3  UNL     1      17.397  20.721  16.788  1.00  0.00    -0.271 OA
HETATM   11  C15 UNL     1      16.944  22.046  18.646  1.00  0.00     0.172 C 
HETATM   12  C16 UNL     1      16.487  21.807  20.065  1.00  0.00     0.042 C 
HETATM   13  N3  UNL     1      16.564  23.381  18.263  1.00  0.00    -0.348 N 
ATOM     14  H3  UNL     1      15.683  23.501  17.763  1.00  0.00     0.163 HD
HETATM   15  C17 UNL     1      17.333  24.539  18.535  1.00  0.00     0.222 C 
HETATM   16  O4  UNL     1      16.733  25.594  18.942  1.00  0.00    -0.273 OA
HETATM   17  C18 UNL     1      18.800  24.634  18.382  1.00  0.00     0.078 C 
HETATM   18  C23 UNL     1      19.142  25.495  17.155  1.00  0.00     0.018 C 
HETATM   19  C24 UNL     1      18.665  24.744  15.929  1.00  0.00    -0.018 C 
HETATM   20  C25 UNL     1      19.777  23.745  15.582  1.00  0.00     0.010 C 
HETATM   21  C26 UNL     1      18.443  25.606  14.734  1.00  0.00     0.004 C 
HETATM   22  C27 UNL     1      17.051  26.106  14.546  1.00  0.00     0.002 C 
HETATM   23  C28 UNL     1      16.160  25.160  13.771  1.00  0.00     0.020 C 
HETATM   24  C29 UNL     1      15.465  24.173  14.687  1.00  0.00     0.122 C 
HETATM   25  N4  UNL     1      14.149  23.811  14.250  1.00  0.00    -0.359 N 
ATOM     26  H4  UNL     1      13.566  24.533  13.828  1.00  0.00     0.162 HD
HETATM   27  C30 UNL     1      13.618  22.512  14.373  1.00  0.00     0.240 C 
HETATM   28  O5  UNL     1      12.362  22.421  14.587  1.00  0.00    -0.271 OA
ENDROOT
BRANCH   6  29
HETATM   29  C8  UNL     1      13.169  20.340  18.790  1.00  0.00     0.202 C 
BRANCH  29  30
HETATM   30  O2  UNL     1      13.892  19.351  19.471  1.00  0.00    -0.384 OA
BRANCH  30  31
HETATM   31  C9  UNL     1      13.017  18.652  20.263  1.00  0.00     0.213 C 
BRANCH  31  32
HETATM   32  C10 UNL     1      12.038  17.944  19.358  1.00  0.00     0.006 A 
HETATM   33  C11 UNL     1      12.298  16.943  18.463  1.00  0.00     0.017 A 
HETATM   34  C12 UNL     1      11.264  16.462  17.761  1.00  0.00     0.008 A 
HETATM   35  C13 UNL     1      10.033  17.010  17.995  1.00  0.00     0.050 A 
HETATM   36  S1  UNL     1      10.359  18.182  19.191  1.00  0.00    -0.104 SA
ENDBRANCH  31  32
ENDBRANCH  30  31
ENDBRANCH  29  30
ENDBRANCH   6  29
BRANCH   1  37
HETATM   37  C4  UNL     1      14.375  20.846  12.801  1.00  0.00     0.035 C 
BRANCH  37  38
HETATM   38  C3  UNL     1      13.124  20.192  12.344  1.00  0.00     0.002 C 
BRANCH  38  39
HETATM   39  C2  UNL     1      13.372  18.696  12.339  1.00  0.00    -0.004 C 
HETATM   40  C1  UNL     1      12.093  17.910  12.302  1.00  0.00     0.005 C 
ENDBRANCH  38  39
ENDBRANCH  37  38
ENDBRANCH   1  37
BRANCH  17  41
HETATM   41  C19 UNL     1      19.357  25.367  19.591  1.00  0.00     0.018 C 
BRANCH  41  42
HETATM   42  C20 UNL     1      19.886  24.468  20.656  1.00  0.00    -0.022 C 
HETATM   43  C21 UNL     1      20.177  23.104  20.079  1.00  0.00     0.009 C 
HETATM   44  C22 UNL     1      18.756  24.289  21.683  1.00  0.00     0.009 C 
ENDBRANCH  41  42
ENDBRANCH  17  41
TORSDOF 9
ENDMDL
MODEL 2
REMARK VINA RESULT: -9.227032248      1.183      1.440
REMARK  9 active torsions:
REMARK  status: ('A' for Active; 'I' for Inactive)
REMARK    1  A    between atoms: C2_2  and  C3_3 
REMARK    2  A    between atoms: C3_3  and  C4_4 
REMARK    3  A    between atoms: C4_4  and  C5_5 
REMARK    4  A    between atoms: C7_10  and  C8_11 
REMARK    5  A    between atoms: C8_11  and  O2_12 
REMARK    6  A    between atoms: O2_12  and  C9_13 
REMARK    7  A    between atoms: C9_13  and  C10_14 
REMARK    8  A    between atoms: C18_29  and  C19_30 
REMARK    9  A    between atoms: C19_30  and  C20_31 
ROOT
HETATM    1  C5  UNL     1      14.603  21.728  14.542  1.00  0.00     0.176 C 
HETATM    2  N1  UNL     1      14.062  20.655  15.340  1.00  0.00    -0.346 N 
ATOM      3  H1  UNL     1      13.920  19.769  14.857  1.00  0.00     0.163 HD
HETATM    4  C6  UNL     1      13.708  20.676  16.691  1.00  0.00     0.243 C 
HETATM    5  O1  UNL     1      12.540  20.235  16.988  1.00  0.00    -0.271 OA
HETATM    6  C7  UNL     1      14.576  21.168  17.822  1.00  0.00     0.200 C 
HETATM    7  N2  UNL     1      15.895  20.589  17.750  1.00  0.00    -0.344 N 
ATOM      8  H2  UNL     1      15.928  19.570  17.769  1.00  0.00     0.163 HD
HETATM    9  C14 UNL     1      17.137  21.234  17.657  1.00  0.00     0.240 C 
HETATM   10  O3  UNL     1      17.886  20.953  16.645  1.00  0.00    -0.271 OA
HETATM   11  C15 UNL     1      17.727  22.221  18.590  1.00  0.00     0.172 C 
HETATM   12  C16 UNL     1      17.430  21.947  20.044  1.00  0.00     0.042 C 
HETATM   13  N3  UNL     1      17.375  23.588  18.302  1.00  0.00    -0.348 N 
ATOM     14  H3  UNL     1      16.449  23.770  17.916  1.00  0.00     0.163 HD
HETATM   15  C17 UNL     1      18.230  24.695  18.519  1.00  0.00     0.222 C 
HETATM   16  O4  UNL     1      17.739  25.761  19.033  1.00  0.00    -0.273 OA
HETATM   17  C18 UNL     1      19.672  24.726  18.194  1.00  0.00     0.078 C 
HETATM   18  C23 UNL     1      19.911  25.619  16.966  1.00  0.00     0.018 C 
HETATM   19  C24 UNL     1      19.253  24.943  15.781  1.00  0.00    -0.018 C 
HETATM   20  C25 UNL     1      20.262  23.906  15.268  1.00  0.00     0.010 C 
HETATM   21  C26 UNL     1      18.936  25.863  14.652  1.00  0.00     0.004 C 
HETATM   22  C27 UNL     1      17.560  26.437  14.651  1.00  0.00     0.002 C 
HETATM   23  C28 UNL     1      16.535  25.567  13.957  1.00  0.00     0.020 C 
HETATM   24  C29 UNL     1      15.903  24.578  14.914  1.00  0.00     0.122 C 
HETATM   25  N4  UNL     1      14.527  24.298  14.627  1.00  0.00    -0.359 N 
ATOM     26  H4  UNL     1      13.937  25.063  14.304  1.00  0.00     0.162 HD
HETATM   27  C30 UNL     1      13.947  23.021  14.767  1.00  0.00     0.240 C 
HETATM   28  O5  UNL     1      12.722  22.983  15.128  1.00  0.00    -0.271 OA
ENDROOT
BRANCH   6  29
HETATM   29  C8  UNL     1      13.911  20.695  19.128  1.00  0.00     0.202 C 
BRANCH  29  30
HETATM   30  O2  UNL     1      14.680  19.673  19.704  1.00  0.00    -0.384 OA
BRANCH  30  31
HETATM   31  C9  UNL     1      13.884  18.988  20.587  1.00  0.00     0.213 C 
BRANCH  31  32
HETATM   32  C10 UNL     1      12.769  18.343  19.801  1.00  0.00     0.006 A 
HETATM   33  C11 UNL     1      11.423  18.543  19.939  1.00  0.00     0.017 A 
HETATM   34  C12 UNL     1      10.612  17.856  19.125  1.00  0.00     0.008 A 
HETATM   35  C13 UNL     1      11.195  17.010  18.221  1.00  0.00     0.050 A 
HETATM   36  S1  UNL     1      12.859  17.203  18.539  1.00  0.00    -0.104 SA
ENDBRANCH  31  32
ENDBRANCH  30  31
ENDBRANCH  29  30
ENDBRANCH   6  29
BRANCH   1  37
HETATM   37  C4  UNL     1      14.423  21.387  13.059  1.00  0.00     0.035 C 
BRANCH  37  38
HETATM   38  C3  UNL     1      13.145  20.698  12.753  1.00  0.00     0.002 C 
BRANCH  38  39
HETATM   39  C2  UNL     1      13.471  19.244  12.472  1.00  0.00    -0.004 C 
HETATM   40  C1  UNL     1      12.251  18.370  12.529  1.00  0.00     0.005 C 
ENDBRANCH  38  39
ENDBRANCH  37  38
ENDBRANCH   1  37
BRANCH  17  41
HETATM   41  C19 UNL     1      20.407  25.382  19.352  1.00  0.00     0.018 C 
BRANCH  41  42
HETATM   42  C20 UNL     1      21.339  26.470  18.942  1.00  0.00    -0.022 C 
HETATM   43  C21 UNL     1      22.766  25.986  19.035  1.00  0.00     0.009 C 
HETATM   44  C22 UNL     1      21.180  27.599  19.973  1.00  0.00     0.009 C 
ENDBRANCH  41  42
ENDBRANCH  17  41
TORSDOF 9
ENDMDL
MODEL 3
REMARK VINA RESULT: -8.334863393      1.482      2.116
REMARK  9 active torsions:
REMARK  status: ('A' for Active; 'I' for Inactive)
REMARK    1  A    between atoms: C2_2  and  C3_3 
REMARK    2  A    between atoms: C3_3  and  C4_4 
REMARK    3  A    between atoms: C4_4  and  C5_5 
REMARK    4  A    between atoms: C7_10  and  C8_11 
REMARK    5  A    between atoms: C8_11  and  O2_12 
REMARK    6  A    between atoms: O2_12  and  C9_13 
REMARK    7  A    between atoms: C9_13  and  C10_14 
REMARK    8  A    between atoms: C18_29  and  C19_30 
REMARK    9  A    between atoms: C19_30  and  C20_31 
ROOT
HETATM    1  C5  UNL     1      14.546  21.987  14.763  1.00  0.00     0.176 C 
HETATM    2  N1  UNL     1      14.024  20.895  15.547  1.00  0.00    -0.346 N 
ATOM      3  H1  UNL     1      13.823  20.035  15.036  1.00  0.00     0.163 HD
HETATM    4  C6  UNL     1      13.758  20.864  16.919  1.00  0.00     0.243 C 
HETATM    5  O1  UNL     1      12.599  20.443  17.272  1.00  0.00    -0.271 OA
HETATM    6  C7  UNL     1      14.713  21.279  18.010  1.00  0.00     0.200 C 
HETATM    7  N2  UNL     1      16.006  20.667  17.826  1.00  0.00    -0.344 N 
ATOM      8  H2  UNL     1      16.008  19.647  17.798  1.00  0.00     0.163 HD
HETATM    9  C14 UNL     1      17.259  21.279  17.679  1.00  0.00     0.240 C 
HETATM   10  O3  UNL     1      17.931  21.024  16.609  1.00  0.00    -0.271 OA
HETATM   11  C15 UNL     1      17.939  22.206  18.613  1.00  0.00     0.172 C 
HETATM   12  C16 UNL     1      17.727  21.874  20.071  1.00  0.00     0.042 C 
HETATM   13  N3  UNL     1      17.611  23.594  18.409  1.00  0.00    -0.348 N 
ATOM     14  H3  UNL     1      16.668  23.820  18.094  1.00  0.00     0.163 HD
HETATM   15  C17 UNL     1      18.513  24.665  18.618  1.00  0.00     0.222 C 
HETATM   16  O4  UNL     1      18.091  25.720  19.209  1.00  0.00    -0.273 OA
HETATM   17  C18 UNL     1      19.932  24.670  18.200  1.00  0.00     0.078 C 
HETATM   18  C23 UNL     1      20.118  25.611  16.998  1.00  0.00     0.018 C 
HETATM   19  C24 UNL     1      19.364  25.008  15.831  1.00  0.00    -0.018 C 
HETATM   20  C25 UNL     1      20.305  23.968  15.208  1.00  0.00     0.010 C 
HETATM   21  C26 UNL     1      19.004  25.987  14.767  1.00  0.00     0.004 C 
HETATM   22  C27 UNL     1      17.650  26.600  14.882  1.00  0.00     0.002 C 
HETATM   23  C28 UNL     1      16.555  25.792  14.219  1.00  0.00     0.020 C 
HETATM   24  C29 UNL     1      15.956  24.779  15.173  1.00  0.00     0.122 C 
HETATM   25  N4  UNL     1      14.556  24.551  14.965  1.00  0.00    -0.359 N 
ATOM     26  H4  UNL     1      13.970  25.347  14.715  1.00  0.00     0.162 HD
HETATM   27  C30 UNL     1      13.946  23.287  15.088  1.00  0.00     0.240 C 
HETATM   28  O5  UNL     1      12.747  23.266  15.526  1.00  0.00    -0.271 OA
ENDROOT
BRANCH   6  29
HETATM   29  C8  UNL     1      14.119  20.766  19.335  1.00  0.00     0.202 C 
BRANCH  29  30
HETATM   30  O2  UNL     1      14.920  19.731  19.840  1.00  0.00    -0.384 OA
BRANCH  30  31
HETATM   31  C9  UNL     1      14.153  18.975  20.690  1.00  0.00     0.213 C 
BRANCH  31  32
HETATM   32  C10 UNL     1      13.069  18.315  19.873  1.00  0.00     0.006 A 
HETATM   33  C11 UNL     1      13.220  17.491  18.791  1.00  0.00     0.017 A 
HETATM   34  C12 UNL     1      12.106  17.018  18.218  1.00  0.00     0.008 A 
HETATM   35  C13 UNL     1      10.908  17.397  18.761  1.00  0.00     0.050 A 
HETATM   36  S1  UNL     1      11.378  18.403  20.056  1.00  0.00    -0.104 SA
ENDBRANCH  31  32
ENDBRANCH  30  31
ENDBRANCH  29  30
ENDBRANCH   6  29
BRANCH   1  37
HETATM   37  C4  UNL     1      14.260  21.720  13.282  1.00  0.00     0.035 C 
BRANCH  37  38
HETATM   38  C3  UNL     1      15.371  22.107  12.377  1.00  0.00     0.002 C 
BRANCH  38  39
HETATM   39  C2  UNL     1      14.997  23.434  11.745  1.00  0.00    -0.004 C 
HETATM   40  C1  UNL     1      16.181  24.349  11.608  1.00  0.00     0.005 C 
ENDBRANCH  38  39
ENDBRANCH  37  38
ENDBRANCH   1  37
BRANCH  17  41
HETATM   41  C19 UNL     1      20.760  25.251  19.334  1.00  0.00     0.018 C 
BRANCH  41  42
HETATM   42  C20 UNL     1      21.555  26.452  18.953  1.00  0.00    -0.022 C 
HETATM   43  C21 UNL     1      23.029  26.135  19.018  1.00  0.00     0.009 C 
HETATM   44  C22 UNL     1      21.279  27.522  20.022  1.00  0.00     0.009 C 
ENDBRANCH  41  42
ENDBRANCH  17  41
TORSDOF 9
ENDMDL
MODEL 4
REMARK VINA RESULT: -8.288803987      3.123      7.076
REMARK  9 active torsions:
REMARK  status: ('A' for Active; 'I' for Inactive)
REMARK    1  A    between atoms: C2_2  and  C3_3 
REMARK    2  A    between atoms: C3_3  and  C4_4 
REMARK    3  A    between atoms: C4_4  and  C5_5 
REMARK    4  A    between atoms: C7_10  and  C8_11 
REMARK    5  A    between atoms: C8_11  and  O2_12 
REMARK    6  A    between atoms: O2_12  and  C9_13 
REMARK    7  A    between atoms: C9_13  and  C10_14 
REMARK    8  A    between atoms: C18_29  and  C19_30 
REMARK    9  A    between atoms: C19_30  and  C20_31 
ROOT
HETATM    1  C5  UNL     1      12.901  22.136  14.957  1.00  0.00     0.176 C 
HETATM    2  N1  UNL     1      13.261  23.233  14.093  1.00  0.00    -0.346 N 
ATOM      3  H1  UNL     1      12.488  23.808  13.757  1.00  0.00     0.163 HD
HETATM    4  C6  UNL     1      14.534  23.610  13.657  1.00  0.00     0.243 C 
HETATM    5  O1  UNL     1      14.681  23.791  12.395  1.00  0.00    -0.271 OA
HETATM    6  C7  UNL     1      15.740  23.822  14.537  1.00  0.00     0.200 C 
HETATM    7  N2  UNL     1      15.418  24.672  15.657  1.00  0.00    -0.344 N 
ATOM      8  H2  UNL     1      15.057  25.595  15.418  1.00  0.00     0.163 HD
HETATM    9  C14 UNL     1      15.533  24.405  17.029  1.00  0.00     0.240 C 
HETATM   10  O3  UNL     1      14.468  24.491  17.750  1.00  0.00    -0.271 OA
HETATM   11  C15 UNL     1      16.748  24.027  17.789  1.00  0.00     0.172 C 
HETATM   12  C16 UNL     1      18.005  24.720  17.322  1.00  0.00     0.042 C 
HETATM   13  N3  UNL     1      16.998  22.610  17.834  1.00  0.00    -0.348 N 
ATOM     14  H3  UNL     1      16.735  22.053  17.021  1.00  0.00     0.163 HD
HETATM   15  C17 UNL     1      17.584  21.938  18.934  1.00  0.00     0.222 C 
HETATM   16  O4  UNL     1      18.470  21.042  18.707  1.00  0.00    -0.273 OA
HETATM   17  C18 UNL     1      17.250  22.187  20.353  1.00  0.00     0.078 C 
HETATM   18  C23 UNL     1      16.433  21.010  20.911  1.00  0.00     0.018 C 
HETATM   19  C24 UNL     1      15.103  21.000  20.187  1.00  0.00    -0.018 C 
HETATM   20  C25 UNL     1      14.212  22.012  20.921  1.00  0.00     0.010 C 
HETATM   21  C26 UNL     1      14.405  19.683  20.211  1.00  0.00     0.004 C 
HETATM   22  C27 UNL     1      14.659  18.795  19.041  1.00  0.00     0.002 C 
HETATM   23  C28 UNL     1      13.723  19.035  17.876  1.00  0.00     0.020 C 
HETATM   24  C29 UNL     1      14.264  20.091  16.935  1.00  0.00     0.122 C 
HETATM   25  N4  UNL     1      13.935  19.859  15.559  1.00  0.00    -0.359 N 
ATOM     26  H4  UNL     1      13.937  18.898  15.219  1.00  0.00     0.162 HD
HETATM   27  C30 UNL     1      13.610  20.887  14.652  1.00  0.00     0.240 C 
HETATM   28  O5  UNL     1      13.967  20.718  13.438  1.00  0.00    -0.271 OA
ENDROOT
BRANCH   6  29
HETATM   29  C8  UNL     1      16.796  24.537  13.675  1.00  0.00     0.202 C 
BRANCH  29  30
HETATM   30  O2  UNL     1      17.254  25.681  14.344  1.00  0.00    -0.384 OA
BRANCH  30  31
HETATM   31  C9  UNL     1      17.997  26.423  13.461  1.00  0.00     0.213 C 
BRANCH  31  32
HETATM   32  C10 UNL     1      19.319  26.738  14.119  1.00  0.00     0.006 A 
HETATM   33  C11 UNL     1      20.273  25.856  14.547  1.00  0.00     0.017 A 
HETATM   34  C12 UNL     1      21.376  26.367  15.106  1.00  0.00     0.008 A 
HETATM   35  C13 UNL     1      21.460  27.729  15.204  1.00  0.00     0.050 A 
HETATM   36  S1  UNL     1      19.993  28.252  14.511  1.00  0.00    -0.104 SA
ENDBRANCH  31  32
ENDBRANCH  30  31
ENDBRANCH  29  30
ENDBRANCH   6  29
BRANCH   1  37
HETATM   37  C4  UNL     1      11.404  21.850  14.805  1.00  0.00     0.035 C 
BRANCH  37  38
HETATM   38  C3  UNL     1      11.090  20.421  14.554  1.00  0.00     0.002 C 
BRANCH  38  39
HETATM   39  C2  UNL     1       9.882  20.068  15.401  1.00  0.00    -0.004 C 
HETATM   40  C1  UNL     1      10.244  19.861  16.843  1.00  0.00     0.005 C 
ENDBRANCH  38  39
ENDBRANCH  37  38
ENDBRANCH   1  37
BRANCH  17  41
HETATM   41  C19 UNL     1      18.545  22.226  21.146  1.00  0.00     0.018 C 
BRANCH  41  42
HETATM   42  C20 UNL     1      19.128  23.591  21.291  1.00  0.00    -0.022 C 
HETATM   43  C21 UNL     1      18.064  24.633  21.042  1.00  0.00     0.009 C 
HETATM   44  C22 UNL     1      20.175  23.745  20.177  1.00  0.00     0.009 C 
ENDBRANCH  41  42
ENDBRANCH  17  41
TORSDOF 9
ENDMDL
MODEL 5
REMARK VINA RESULT: -8.099596290      2.944      6.495
REMARK  9 active torsions:
REMARK  status: ('A' for Active; 'I' for Inactive)
REMARK    1  A    between atoms: C2_2  and  C3_3 
REMARK    2  A    between atoms: C3_3  and  C4_4 
REMARK    3  A    between atoms: C4_4  and  C5_5 
REMARK    4  A    between atoms: C7_10  and  C8_11 
REMARK    5  A    between atoms: C8_11  and  O2_12 
REMARK    6  A    between atoms: O2_12  and  C9_13 
REMARK    7  A    between atoms: C9_13  and  C10_14 
REMARK    8  A    between atoms: C18_29  and  C19_30 
REMARK    9  A    between atoms: C19_30  and  C20_31 
ROOT
HETATM    1  C5  UNL     1      16.655  22.868  18.835  1.00  0.00     0.176 C 
HETATM    2  N1  UNL     1      15.563  22.694  17.908  1.00  0.00    -0.346 N 
ATOM      3  H1  UNL     1      14.627  22.767  18.305  1.00  0.00     0.163 HD
HETATM    4  C6  UNL     1      15.625  22.439  16.536  1.00  0.00     0.243 C 
HETATM    5  O1  UNL     1      14.922  21.459  16.100  1.00  0.00    -0.271 OA
HETATM    6  C7  UNL     1      16.441  23.214  15.532  1.00  0.00     0.200 C 
HETATM    7  N2  UNL     1      16.229  24.633  15.679  1.00  0.00    -0.344 N 
ATOM      8  H2  UNL     1      15.263  24.945  15.583  1.00  0.00     0.163 HD
HETATM    9  C14 UNL     1      17.167  25.644  15.936  1.00  0.00     0.240 C 
HETATM   10  O3  UNL     1      16.995  26.371  16.987  1.00  0.00    -0.271 OA
HETATM   11  C15 UNL     1      18.365  26.003  15.142  1.00  0.00     0.172 C 
HETATM   12  C16 UNL     1      18.169  25.890  13.650  1.00  0.00     0.042 C 
HETATM   13  N3  UNL     1      19.553  25.273  15.503  1.00  0.00    -0.348 N 
ATOM     14  H3  UNL     1      19.443  24.308  15.816  1.00  0.00     0.163 HD
HETATM   15  C17 UNL     1      20.863  25.807  15.453  1.00  0.00     0.222 C 
HETATM   16  O4  UNL     1      21.806  25.080  14.982  1.00  0.00    -0.273 OA
HETATM   17  C18 UNL     1      21.243  27.161  15.911  1.00  0.00     0.078 C 
HETATM   18  C23 UNL     1      22.039  27.064  17.223  1.00  0.00     0.018 C 
HETATM   19  C24 UNL     1      21.096  26.537  18.285  1.00  0.00    -0.018 C 
HETATM   20  C25 UNL     1      20.319  27.754  18.806  1.00  0.00     0.010 C 
HETATM   21  C26 UNL     1      21.781  25.906  19.449  1.00  0.00     0.004 C 
HETATM   22  C27 UNL     1      21.966  24.429  19.369  1.00  0.00     0.002 C 
HETATM   23  C28 UNL     1      20.790  23.635  19.895  1.00  0.00     0.020 C 
HETATM   24  C29 UNL     1      19.770  23.363  18.809  1.00  0.00     0.122 C 
HETATM   25  N4  UNL     1      19.107  22.099  18.945  1.00  0.00    -0.359 N 
ATOM     26  H4  UNL     1      19.652  21.302  19.272  1.00  0.00     0.162 HD
HETATM   27  C30 UNL     1      17.744  21.900  18.652  1.00  0.00     0.240 C 
HETATM   28  O5  UNL     1      17.418  20.759  18.179  1.00  0.00    -0.271 OA
ENDROOT
BRANCH   6  29
HETATM   29  C8  UNL     1      15.942  22.793  14.138  1.00  0.00     0.202 C 
BRANCH  29  30
HETATM   30  O2  UNL     1      14.889  23.629  13.742  1.00  0.00    -0.384 OA
BRANCH  30  31
HETATM   31  C9  UNL     1      14.224  23.019  12.709  1.00  0.00     0.213 C 
BRANCH  31  32
HETATM   32  C10 UNL     1      13.234  22.047  13.305  1.00  0.00     0.006 A 
HETATM   33  C11 UNL     1      12.192  22.323  14.146  1.00  0.00     0.017 A 
HETATM   34  C12 UNL     1      11.439  21.293  14.552  1.00  0.00     0.008 A 
HETATM   35  C13 UNL     1      11.773  20.049  14.093  1.00  0.00     0.050 A 
HETATM   36  S1  UNL     1      13.130  20.358  13.107  1.00  0.00    -0.104 SA
ENDBRANCH  31  32
ENDBRANCH  30  31
ENDBRANCH  29  30
ENDBRANCH   6  29
BRANCH   1  37
HETATM   37  C4  UNL     1      16.132  22.688  20.263  1.00  0.00     0.035 C 
BRANCH  37  38
HETATM   38  C3  UNL     1      14.930  21.822  20.357  1.00  0.00     0.002 C 
BRANCH  38  39
HETATM   39  C2  UNL     1      15.313  20.604  21.175  1.00  0.00    -0.004 C 
HETATM   40  C1  UNL     1      14.495  19.398  20.813  1.00  0.00     0.005 C 
ENDBRANCH  38  39
ENDBRANCH  37  38
ENDBRANCH   1  37
BRANCH  17  41
HETATM   41  C19 UNL     1      22.183  27.764  14.881  1.00  0.00     0.018 C 
BRANCH  41  42
HETATM   42  C20 UNL     1      21.753  29.100  14.376  1.00  0.00    -0.022 C 
HETATM   43  C21 UNL     1      20.827  28.929  13.196  1.00  0.00     0.009 C 
HETATM   44  C22 UNL     1      23.018  29.802  13.855  1.00  0.00     0.009 C 
ENDBRANCH  41  42
ENDBRANCH  17  41
TORSDOF 9
ENDMDL
