MODEL 1
REMARK VINA RESULT: -9.581785900      0.000      0.000
REMARK  8 active torsions:
REMARK  status: ('A' for Active; 'I' for Inactive)
REMARK       I    between atoms: N1_2  and  C2_4 
REMARK    1  A    between atoms: C2_4  and  C3_6 
REMARK    2  A    between atoms: C3_6  and  C4_7 
REMARK    3  A    between atoms: C3_6  and  N2_11 
REMARK    4  A    between atoms: C3_6  and  C29_45 
REMARK       I    between atoms: N2_11  and  C8_13 
REMARK       I    between atoms: C8_13  and  N3_15 
REMARK       I    between atoms: N4_18  and  C11_19 
REMARK    5  A    between atoms: C11_19  and  C12_21 
REMARK    6  A    between atoms: C12_21  and  C13_22 
REMARK    7  A    between atoms: C12_21  and  N5_29 
REMARK    8  A    between atoms: C13_22  and  C14_23 
REMARK       I    between atoms: N5_29  and  C20_31 
REMARK       I    between atoms: C20_31  and  N6_33 
ROOT
HETATM    1  N2  UNL     1       4.802  -1.335  13.750  1.00  0.00    -0.314 N 
ATOM      2  H2  UNL     1       5.802  -1.465  13.903  1.00  0.00     0.166 HD
HETATM    3  C8  UNL     1       3.955  -2.231  14.384  1.00  0.00     0.320 C 
HETATM    4  O2  UNL     1       2.713  -2.203  14.307  1.00  0.00    -0.247 OA
HETATM    5  N3  UNL     1       4.484  -3.268  15.193  1.00  0.00    -0.331 N 
HETATM    6  C9  UNL     1       3.666  -4.181  15.971  1.00  0.00     0.147 C 
HETATM    7  C10 UNL     1       4.398  -4.466  17.311  1.00  0.00     0.145 C 
HETATM    8  N4  UNL     1       5.645  -5.156  16.980  1.00  0.00    -0.347 N 
HETATM    9  C11 UNL     1       6.238  -6.008  17.915  1.00  0.00     0.242 C 
HETATM   10  O3  UNL     1       5.697  -6.143  19.053  1.00  0.00    -0.271 OA
HETATM   11  C27 UNL     1       6.174  -4.924  15.654  1.00  0.00     0.145 C 
HETATM   12  C28 UNL     1       5.912  -3.478  15.250  1.00  0.00     0.147 C 
ENDROOT
BRANCH   9  13
HETATM   13  C12 UNL     1       7.472  -6.786  17.641  1.00  0.00     0.179 C 
BRANCH  13  14
HETATM   14  C13 UNL     1       8.760  -6.293  18.114  1.00  0.00     0.039 C 
BRANCH  14  15
HETATM   15  C14 UNL     1       9.824  -5.779  17.174  1.00  0.00    -0.012 C 
HETATM   16  C15 UNL     1       9.520  -5.911  15.744  1.00  0.00     0.005 C 
HETATM   17  C16 UNL     1       9.917  -4.755  14.898  1.00  0.00     0.000 C 
HETATM   18  C17 UNL     1       9.556  -3.450  15.567  1.00  0.00     0.000 C 
HETATM   19  C18 UNL     1      10.472  -3.360  16.773  1.00  0.00     0.000 C 
HETATM   20  C19 UNL     1      10.320  -4.482  17.710  1.00  0.00     0.005 C 
ENDBRANCH  14  15
ENDBRANCH  13  14
BRANCH  13  21
HETATM   21  N5  UNL     1       7.249  -8.136  18.295  1.00  0.00    -0.330 N 
HETATM   22  C20 UNL     1       7.841  -9.294  17.805  1.00  0.00     0.321 C 
HETATM   23  O4  UNL     1       8.563  -9.205  16.784  1.00  0.00    -0.247 OA
HETATM   24  N6  UNL     1       7.651 -10.560  18.413  1.00  0.00    -0.301 N 
HETATM   25  C21 UNL     1       6.902 -10.598  19.674  1.00  0.00     0.361 C 
HETATM   26  C24 UNL     1       8.102 -11.783  17.822  1.00  0.00     0.033 C 
HETATM   27  N7  UNL     1       7.338 -11.693  20.539  1.00  0.00    -0.059 N 
HETATM   28  C22 UNL     1       7.150 -12.942  19.791  1.00  0.00     0.236 C 
ATOM     29  H72 UNL     1       8.291 -11.574  20.884  1.00  0.00     0.279 HD
ATOM     30  H71 UNL     1       6.869 -11.696  21.446  1.00  0.00     0.279 HD
HETATM   31  C23 UNL     1       8.225 -12.942  18.749  1.00  0.00     0.058 C 
HETATM   32  C25 UNL     1       7.164 -12.111  16.663  1.00  0.00     0.038 C 
HETATM   33  C26 UNL     1       9.500 -11.586  17.217  1.00  0.00     0.038 C 
ATOM     34  H5  UNL     1       6.647  -8.195  19.118  1.00  0.00     0.165 HD
ENDBRANCH  13  21
ENDBRANCH   9  13
BRANCH   1  35
HETATM   35  C3  UNL     1       4.398  -0.186  12.859  1.00  0.00     0.213 C 
BRANCH  35  36
HETATM   36  C2  UNL     1       5.622   0.116  12.120  1.00  0.00     0.259 C 
HETATM   37  N1  UNL     1       5.929   1.298  11.395  1.00  0.00    -0.363 N 
HETATM   38  C1  UNL     1       7.171   1.530  10.689  1.00  0.00     0.149 C 
ATOM     39  H1  UNL     1       5.225   2.036  11.371  1.00  0.00     0.162 HD
HETATM   40  O1  UNL     1       6.567  -0.736  12.091  1.00  0.00    -0.270 OA
ENDBRANCH  35  36
BRANCH  35  41
HETATM   41  C4  UNL     1       3.294  -0.710  12.062  1.00  0.00     0.025 C 
HETATM   42  C5  UNL     1       2.076  -0.089  11.608  1.00  0.00    -0.088 C 
HETATM   43  C6  UNL     1       2.101   1.089  10.689  1.00  0.00     0.042 C 
HETATM   44  C7  UNL     1       0.967   0.081  12.664  1.00  0.00     0.042 C 
ENDBRANCH  35  41
BRANCH  35  45
HETATM   45  C29 UNL     1       4.031   0.894  13.812  1.00  0.00     0.273 C 
HETATM   46  N8  UNL     1       3.959   0.813  15.215  1.00  0.00    -0.059 NA
HETATM   47  O5  UNL     1       3.742   2.028  13.364  1.00  0.00    -0.273 OA
ENDBRANCH  35  45
ENDBRANCH   1  35
TORSDOF 8
ENDMDL
MODEL 2
REMARK VINA RESULT: -9.484580396      2.678     11.177
REMARK  8 active torsions:
REMARK  status: ('A' for Active; 'I' for Inactive)
REMARK       I    between atoms: N1_2  and  C2_4 
REMARK    1  A    between atoms: C2_4  and  C3_6 
REMARK    2  A    between atoms: C3_6  and  C4_7 
REMARK    3  A    between atoms: C3_6  and  N2_11 
REMARK    4  A    between atoms: C3_6  and  C29_45 
REMARK       I    between atoms: N2_11  and  C8_13 
REMARK       I    between atoms: C8_13  and  N3_15 
REMARK       I    between atoms: N4_18  and  C11_19 
REMARK    5  A    between atoms: C11_19  and  C12_21 
REMARK    6  A    between atoms: C12_21  and  C13_22 
REMARK    7  A    between atoms: C12_21  and  N5_29 
REMARK    8  A    between atoms: C13_22  and  C14_23 
REMARK       I    between atoms: N5_29  and  C20_31 
REMARK       I    between atoms: C20_31  and  N6_33 
ROOT
HETATM    1  N2  UNL     1       4.205  -6.931  16.637  1.00  0.00    -0.314 N 
ATOM      2  H2  UNL     1       3.320  -6.599  16.252  1.00  0.00     0.166 HD
HETATM    3  C8  UNL     1       5.260  -6.031  16.632  1.00  0.00     0.320 C 
HETATM    4  O2  UNL     1       6.398  -6.277  17.072  1.00  0.00    -0.247 OA
HETATM    5  N3  UNL     1       5.086  -4.724  16.110  1.00  0.00    -0.331 N 
HETATM    6  C9  UNL     1       6.106  -3.692  16.163  1.00  0.00     0.147 C 
HETATM    7  C10 UNL     1       5.405  -2.330  16.420  1.00  0.00     0.145 C 
HETATM    8  N4  UNL     1       4.556  -2.060  15.259  1.00  0.00    -0.347 N 
HETATM    9  C11 UNL     1       4.240  -0.742  14.919  1.00  0.00     0.242 C 
HETATM   10  O3  UNL     1       4.671   0.200  15.649  1.00  0.00    -0.271 OA
HETATM   11  C27 UNL     1       4.118  -3.212  14.502  1.00  0.00     0.145 C 
HETATM   12  C28 UNL     1       3.848  -4.371  15.455  1.00  0.00     0.147 C 
ENDROOT
BRANCH   9  13
HETATM   13  C12 UNL     1       3.431  -0.378  13.730  1.00  0.00     0.179 C 
BRANCH  13  14
HETATM   14  C13 UNL     1       2.032  -0.000  13.892  1.00  0.00     0.039 C 
BRANCH  14  15
HETATM   15  C14 UNL     1       1.096   0.156  12.718  1.00  0.00    -0.012 C 
HETATM   16  C15 UNL     1       0.340   1.413  12.676  1.00  0.00     0.005 C 
HETATM   17  C16 UNL     1       0.195   2.026  11.330  1.00  0.00     0.000 C 
HETATM   18  C17 UNL     1       1.501   1.976  10.573  1.00  0.00     0.000 C 
HETATM   19  C18 UNL     1       1.734   0.505  10.288  1.00  0.00     0.000 C 
HETATM   20  C19 UNL     1       1.805  -0.324  11.500  1.00  0.00     0.005 C 
ENDBRANCH  14  15
ENDBRANCH  13  14
BRANCH  13  21
HETATM   21  N5  UNL     1       4.140   0.811  13.111  1.00  0.00    -0.330 N 
HETATM   22  C20 UNL     1       5.441   0.717  12.628  1.00  0.00     0.321 C 
HETATM   23  O4  UNL     1       6.034  -0.383  12.728  1.00  0.00    -0.247 OA
HETATM   24  N6  UNL     1       6.112   1.816  12.036  1.00  0.00    -0.301 N 
HETATM   25  C21 UNL     1       5.340   3.046  11.826  1.00  0.00     0.361 C 
HETATM   26  C24 UNL     1       7.503   1.789  11.699  1.00  0.00     0.033 C 
HETATM   27  N7  UNL     1       5.809   3.797  10.663  1.00  0.00    -0.059 N 
HETATM   28  C22 UNL     1       7.225   4.112  10.890  1.00  0.00     0.236 C 
ATOM     29  H72 UNL     1       5.644   3.312   9.781  1.00  0.00     0.279 HD
ATOM     30  H71 UNL     1       5.243   4.624  10.467  1.00  0.00     0.279 HD
HETATM   31  C23 UNL     1       7.949   2.813  10.714  1.00  0.00     0.058 C 
HETATM   32  C25 UNL     1       8.297   1.902  12.998  1.00  0.00     0.038 C 
HETATM   33  C26 UNL     1       7.863   0.432  11.078  1.00  0.00     0.038 C 
ATOM     34  H5  UNL     1       3.651   1.703  13.048  1.00  0.00     0.165 HD
ENDBRANCH  13  21
ENDBRANCH   9  13
BRANCH   1  35
HETATM   35  C3  UNL     1       4.230  -8.349  17.151  1.00  0.00     0.213 C 
BRANCH  35  36
HETATM   36  C2  UNL     1       3.939  -9.146  15.960  1.00  0.00     0.259 C 
HETATM   37  N1  UNL     1       3.595 -10.522  15.900  1.00  0.00    -0.363 N 
HETATM   38  C1  UNL     1       3.313 -11.247  14.678  1.00  0.00     0.149 C 
ATOM     39  H1  UNL     1       3.542 -11.037  16.779  1.00  0.00     0.162 HD
HETATM   40  O1  UNL     1       3.972  -8.598  14.812  1.00  0.00    -0.270 OA
ENDBRANCH  35  36
BRANCH  35  41
HETATM   41  C4  UNL     1       5.567  -8.515  17.709  1.00  0.00     0.025 C 
HETATM   42  C5  UNL     1       6.402  -9.682  17.835  1.00  0.00    -0.088 C 
HETATM   43  C6  UNL     1       6.876 -10.432  16.634  1.00  0.00     0.042 C 
HETATM   44  C7  UNL     1       6.030 -10.662  18.964  1.00  0.00     0.042 C 
ENDBRANCH  35  41
BRANCH  35  45
HETATM   45  C29 UNL     1       3.124  -8.389  18.143  1.00  0.00     0.273 C 
HETATM   46  N8  UNL     1       2.489  -9.527  18.675  1.00  0.00    -0.059 NA
HETATM   47  O5  UNL     1       2.667  -7.311  18.588  1.00  0.00    -0.273 OA
ENDBRANCH  35  45
ENDBRANCH   1  35
TORSDOF 8
ENDMDL
MODEL 3
REMARK VINA RESULT: -9.066037151      2.924     11.303
REMARK  8 active torsions:
REMARK  status: ('A' for Active; 'I' for Inactive)
REMARK       I    between atoms: N1_2  and  C2_4 
REMARK    1  A    between atoms: C2_4  and  C3_6 
REMARK    2  A    between atoms: C3_6  and  C4_7 
REMARK    3  A    between atoms: C3_6  and  N2_11 
REMARK    4  A    between atoms: C3_6  and  C29_45 
REMARK       I    between atoms: N2_11  and  C8_13 
REMARK       I    between atoms: C8_13  and  N3_15 
REMARK       I    between atoms: N4_18  and  C11_19 
REMARK    5  A    between atoms: C11_19  and  C12_21 
REMARK    6  A    between atoms: C12_21  and  C13_22 
REMARK    7  A    between atoms: C12_21  and  N5_29 
REMARK    8  A    between atoms: C13_22  and  C14_23 
REMARK       I    between atoms: N5_29  and  C20_31 
REMARK       I    between atoms: C20_31  and  N6_33 
ROOT
HETATM    1  N2  UNL     1       4.248  -6.228  16.814  1.00  0.00    -0.314 N 
ATOM      2  H2  UNL     1       3.334  -5.962  16.446  1.00  0.00     0.166 HD
HETATM    3  C8  UNL     1       5.267  -5.298  16.677  1.00  0.00     0.320 C 
HETATM    4  O2  UNL     1       6.434  -5.465  17.078  1.00  0.00    -0.247 OA
HETATM    5  N3  UNL     1       5.020  -4.050  16.050  1.00  0.00    -0.331 N 
HETATM    6  C9  UNL     1       6.002  -2.985  15.959  1.00  0.00     0.147 C 
HETATM    7  C10 UNL     1       5.263  -1.629  16.130  1.00  0.00     0.145 C 
HETATM    8  N4  UNL     1       4.351  -1.493  14.994  1.00  0.00    -0.347 N 
HETATM    9  C11 UNL     1       3.969  -0.222  14.555  1.00  0.00     0.242 C 
HETATM   10  O3  UNL     1       4.399   0.796  15.176  1.00  0.00    -0.271 OA
HETATM   11  C27 UNL     1       3.921  -2.722  14.365  1.00  0.00     0.145 C 
HETATM   12  C28 UNL     1       3.740  -3.799  15.429  1.00  0.00     0.147 C 
ENDROOT
BRANCH   9  13
HETATM   13  C12 UNL     1       3.092   0.006  13.381  1.00  0.00     0.179 C 
BRANCH  13  14
HETATM   14  C13 UNL     1       1.726   0.476  13.576  1.00  0.00     0.039 C 
BRANCH  14  15
HETATM   15  C14 UNL     1       0.748   0.615  12.434  1.00  0.00    -0.012 C 
HETATM   16  C15 UNL     1       0.217   1.965  12.218  1.00  0.00     0.005 C 
HETATM   17  C16 UNL     1       0.083   2.380  10.797  1.00  0.00     0.000 C 
HETATM   18  C17 UNL     1       1.303   1.978  10.003  1.00  0.00     0.000 C 
HETATM   19  C18 UNL     1       1.259   0.463   9.955  1.00  0.00     0.000 C 
HETATM   20  C19 UNL     1       1.275  -0.167  11.282  1.00  0.00     0.005 C 
ENDBRANCH  14  15
ENDBRANCH  13  14
BRANCH  13  21
HETATM   21  N5  UNL     1       3.804   1.053  12.546  1.00  0.00    -0.330 N 
HETATM   22  C20 UNL     1       5.152   0.942  12.227  1.00  0.00     0.321 C 
HETATM   23  O4  UNL     1       5.786  -0.049  12.661  1.00  0.00    -0.247 OA
HETATM   24  N6  UNL     1       5.828   1.907  11.438  1.00  0.00    -0.301 N 
HETATM   25  C21 UNL     1       5.022   2.981  10.848  1.00  0.00     0.361 C 
HETATM   26  C24 UNL     1       7.247   1.904  11.250  1.00  0.00     0.033 C 
HETATM   27  N7  UNL     1       5.577   3.452   9.580  1.00  0.00    -0.059 N 
HETATM   28  C22 UNL     1       6.942   3.922   9.849  1.00  0.00     0.236 C 
ATOM     29  H72 UNL     1       5.535   2.750   8.840  1.00  0.00     0.279 HD
ATOM     30  H71 UNL     1       4.994   4.157   9.126  1.00  0.00     0.279 HD
HETATM   31  C23 UNL     1       7.745   2.679  10.081  1.00  0.00     0.058 C 
HETATM   32  C25 UNL     1       7.886   2.399  12.545  1.00  0.00     0.038 C 
HETATM   33  C26 UNL     1       7.742   0.466  11.035  1.00  0.00     0.038 C 
ATOM     34  H5  UNL     1       3.279   1.861  12.210  1.00  0.00     0.165 HD
ENDBRANCH  13  21
ENDBRANCH   9  13
BRANCH   1  35
HETATM   35  C3  UNL     1       4.350  -7.593  17.449  1.00  0.00     0.213 C 
BRANCH  35  36
HETATM   36  C2  UNL     1       2.955  -7.986  17.634  1.00  0.00     0.259 C 
HETATM   37  N1  UNL     1       2.452  -9.067  18.405  1.00  0.00    -0.363 N 
HETATM   38  C1  UNL     1       1.049  -9.394  18.547  1.00  0.00     0.149 C 
ATOM     39  H1  UNL     1       3.128  -9.655  18.894  1.00  0.00     0.162 HD
HETATM   40  O1  UNL     1       2.032  -7.315  17.071  1.00  0.00    -0.270 OA
ENDBRANCH  35  36
BRANCH  35  41
HETATM   41  C4  UNL     1       5.108  -8.389  16.490  1.00  0.00     0.025 C 
HETATM   42  C5  UNL     1       4.950  -9.755  16.060  1.00  0.00    -0.088 C 
HETATM   43  C6  UNL     1       3.709 -10.212  15.368  1.00  0.00     0.042 C 
HETATM   44  C7  UNL     1       5.444 -10.836  17.041  1.00  0.00     0.042 C 
ENDBRANCH  35  41
BRANCH  35  45
HETATM   45  C29 UNL     1       5.042  -7.335  18.740  1.00  0.00     0.273 C 
HETATM   46  N8  UNL     1       4.654  -6.445  19.758  1.00  0.00    -0.059 NA
HETATM   47  O5  UNL     1       6.097  -7.958  18.999  1.00  0.00    -0.273 OA
ENDBRANCH  35  45
ENDBRANCH   1  35
TORSDOF 8
ENDMDL
MODEL 4
REMARK VINA RESULT: -8.588841653      2.745     11.019
REMARK  8 active torsions:
REMARK  status: ('A' for Active; 'I' for Inactive)
REMARK       I    between atoms: N1_2  and  C2_4 
REMARK    1  A    between atoms: C2_4  and  C3_6 
REMARK    2  A    between atoms: C3_6  and  C4_7 
REMARK    3  A    between atoms: C3_6  and  N2_11 
REMARK    4  A    between atoms: C3_6  and  C29_45 
REMARK       I    between atoms: N2_11  and  C8_13 
REMARK       I    between atoms: C8_13  and  N3_15 
REMARK       I    between atoms: N4_18  and  C11_19 
REMARK    5  A    between atoms: C11_19  and  C12_21 
REMARK    6  A    between atoms: C12_21  and  C13_22 
REMARK    7  A    between atoms: C12_21  and  N5_29 
REMARK    8  A    between atoms: C13_22  and  C14_23 
REMARK       I    between atoms: N5_29  and  C20_31 
REMARK       I    between atoms: C20_31  and  N6_33 
ROOT
HETATM    1  N2  UNL     1       4.477  -7.926  16.555  1.00  0.00    -0.314 N 
ATOM      2  H2  UNL     1       4.727  -7.663  15.601  1.00  0.00     0.166 HD
HETATM    3  C8  UNL     1       3.983  -6.917  17.368  1.00  0.00     0.320 C 
HETATM    4  O2  UNL     1       3.626  -7.075  18.550  1.00  0.00    -0.247 OA
HETATM    5  N3  UNL     1       3.849  -5.596  16.870  1.00  0.00    -0.331 N 
HETATM    6  C9  UNL     1       3.246  -4.509  17.621  1.00  0.00     0.147 C 
HETATM    7  C10 UNL     1       2.437  -3.627  16.631  1.00  0.00     0.145 C 
HETATM    8  N4  UNL     1       3.398  -3.043  15.694  1.00  0.00    -0.347 N 
HETATM    9  C11 UNL     1       3.107  -1.831  15.064  1.00  0.00     0.242 C 
HETATM   10  O3  UNL     1       1.993  -1.272  15.293  1.00  0.00    -0.271 OA
HETATM   11  C27 UNL     1       4.634  -3.770  15.507  1.00  0.00     0.145 C 
HETATM   12  C28 UNL     1       4.354  -5.268  15.557  1.00  0.00     0.147 C 
ENDROOT
BRANCH   9  13
HETATM   13  C12 UNL     1       4.047  -1.145  14.143  1.00  0.00     0.179 C 
BRANCH  13  14
HETATM   14  C13 UNL     1       5.167  -1.881  13.569  1.00  0.00     0.039 C 
BRANCH  14  15
HETATM   15  C14 UNL     1       6.497  -1.229  13.274  1.00  0.00    -0.012 C 
HETATM   16  C15 UNL     1       6.535  -0.386  12.075  1.00  0.00     0.005 C 
HETATM   17  C16 UNL     1       7.308   0.877  12.207  1.00  0.00     0.000 C 
HETATM   18  C17 UNL     1       7.009   1.555  13.523  1.00  0.00     0.000 C 
HETATM   19  C18 UNL     1       7.604   0.643  14.578  1.00  0.00     0.000 C 
HETATM   20  C19 UNL     1       7.050  -0.718  14.559  1.00  0.00     0.005 C 
ENDBRANCH  14  15
ENDBRANCH  13  14
BRANCH  13  21
HETATM   21  N5  UNL     1       3.194  -0.665  12.984  1.00  0.00    -0.330 N 
HETATM   22  C20 UNL     1       3.081   0.684  12.668  1.00  0.00     0.321 C 
HETATM   23  O4  UNL     1       3.694   1.514  13.380  1.00  0.00    -0.247 OA
HETATM   24  N6  UNL     1       2.297   1.146  11.581  1.00  0.00    -0.301 N 
HETATM   25  C21 UNL     1       1.700   0.135  10.701  1.00  0.00     0.361 C 
HETATM   26  C24 UNL     1       2.025   2.532  11.352  1.00  0.00     0.033 C 
HETATM   27  N7  UNL     1       1.554   0.618   9.329  1.00  0.00    -0.059 N 
HETATM   28  C22 UNL     1       0.712   1.820   9.377  1.00  0.00     0.236 C 
ATOM     29  H72 UNL     1       2.448   0.775   8.863  1.00  0.00     0.279 HD
ATOM     30  H71 UNL     1       1.196  -0.094   8.691  1.00  0.00     0.279 HD
HETATM   31  C23 UNL     1       1.581   2.884   9.974  1.00  0.00     0.058 C 
HETATM   32  C25 UNL     1       0.995   2.979  12.386  1.00  0.00     0.038 C 
HETATM   33  C26 UNL     1       3.292   3.362  11.603  1.00  0.00     0.038 C 
ATOM     34  H5  UNL     1       2.690  -1.351  12.421  1.00  0.00     0.165 HD
ENDBRANCH  13  21
ENDBRANCH   9  13
BRANCH   1  35
HETATM   35  C3  UNL     1       4.682  -9.372  16.933  1.00  0.00     0.213 C 
BRANCH  35  36
HETATM   36  C2  UNL     1       5.994  -9.371  17.577  1.00  0.00     0.259 C 
HETATM   37  N1  UNL     1       7.268  -9.402  16.951  1.00  0.00    -0.363 N 
HETATM   38  C1  UNL     1       8.532  -9.392  17.658  1.00  0.00     0.149 C 
ATOM     39  H1  UNL     1       7.296  -9.432  15.932  1.00  0.00     0.162 HD
HETATM   40  O1  UNL     1       6.072  -9.329  18.847  1.00  0.00    -0.270 OA
ENDBRANCH  35  36
BRANCH  35  41
HETATM   41  C4  UNL     1       3.554  -9.689  17.802  1.00  0.00     0.025 C 
HETATM   42  C5  UNL     1       2.986 -10.953  18.194  1.00  0.00    -0.088 C 
HETATM   43  C6  UNL     1       3.781 -11.957  18.962  1.00  0.00     0.042 C 
HETATM   44  C7  UNL     1       2.112 -11.659  17.140  1.00  0.00     0.042 C 
ENDBRANCH  35  41
BRANCH  35  45
HETATM   45  C29 UNL     1       4.693 -10.085  15.629  1.00  0.00     0.273 C 
HETATM   46  N8  UNL     1       3.980  -9.751  14.463  1.00  0.00    -0.059 NA
HETATM   47  O5  UNL     1       5.402 -11.109  15.502  1.00  0.00    -0.273 OA
ENDBRANCH  35  45
ENDBRANCH   1  35
TORSDOF 8
ENDMDL
MODEL 5
REMARK VINA RESULT: -8.566801609      3.505      6.090
REMARK  8 active torsions:
REMARK  status: ('A' for Active; 'I' for Inactive)
REMARK       I    between atoms: N1_2  and  C2_4 
REMARK    1  A    between atoms: C2_4  and  C3_6 
REMARK    2  A    between atoms: C3_6  and  C4_7 
REMARK    3  A    between atoms: C3_6  and  N2_11 
REMARK    4  A    between atoms: C3_6  and  C29_45 
REMARK       I    between atoms: N2_11  and  C8_13 
REMARK       I    between atoms: C8_13  and  N3_15 
REMARK       I    between atoms: N4_18  and  C11_19 
REMARK    5  A    between atoms: C11_19  and  C12_21 
REMARK    6  A    between atoms: C12_21  and  C13_22 
REMARK    7  A    between atoms: C12_21  and  N5_29 
REMARK    8  A    between atoms: C13_22  and  C14_23 
REMARK       I    between atoms: N5_29  and  C20_31 
REMARK       I    between atoms: C20_31  and  N6_33 
ROOT
HETATM    1  N2  UNL     1       6.735   2.443   9.879  1.00  0.00    -0.314 N 
ATOM      2  H2  UNL     1       7.619   2.035  10.186  1.00  0.00     0.166 HD
HETATM    3  C8  UNL     1       5.601   2.066  10.580  1.00  0.00     0.320 C 
HETATM    4  O2  UNL     1       4.452   2.478  10.337  1.00  0.00    -0.247 OA
HETATM    5  N3  UNL     1       5.696   1.154  11.662  1.00  0.00    -0.331 N 
HETATM    6  C9  UNL     1       4.575   0.789  12.509  1.00  0.00     0.147 C 
HETATM    7  C10 UNL     1       5.098   0.630  13.964  1.00  0.00     0.145 C 
HETATM    8  N4  UNL     1       6.039  -0.490  13.960  1.00  0.00    -0.347 N 
HETATM    9  C11 UNL     1       6.254  -1.223  15.130  1.00  0.00     0.242 C 
HETATM   10  O3  UNL     1       5.648  -0.879  16.189  1.00  0.00    -0.271 OA
HETATM   11  C27 UNL     1       6.676  -0.789  12.697  1.00  0.00     0.145 C 
HETATM   12  C28 UNL     1       6.956   0.510  11.950  1.00  0.00     0.147 C 
ENDROOT
BRANCH   9  13
HETATM   13  C12 UNL     1       7.149  -2.404  15.200  1.00  0.00     0.179 C 
BRANCH  13  14
HETATM   14  C13 UNL     1       8.537  -2.239  15.615  1.00  0.00     0.039 C 
BRANCH  14  15
HETATM   15  C14 UNL     1       9.528  -3.378  15.593  1.00  0.00    -0.012 C 
HETATM   16  C15 UNL     1      10.244  -3.617  16.851  1.00  0.00     0.005 C 
HETATM   17  C16 UNL     1      10.439  -5.045  17.214  1.00  0.00     0.000 C 
HETATM   18  C17 UNL     1       9.177  -5.838  16.972  1.00  0.00     0.000 C 
HETATM   19  C18 UNL     1       9.007  -5.857  15.465  1.00  0.00     0.000 C 
HETATM   20  C19 UNL     1       8.899  -4.517  14.870  1.00  0.00     0.005 C 
ENDBRANCH  14  15
ENDBRANCH  13  14
BRANCH  13  21
HETATM   21  N5  UNL     1       6.498  -3.341  16.199  1.00  0.00    -0.330 N 
HETATM   22  C20 UNL     1       5.309  -4.003  15.916  1.00  0.00     0.321 C 
HETATM   23  O4  UNL     1       4.764  -3.796  14.806  1.00  0.00    -0.247 OA
HETATM   24  N6  UNL     1       4.695  -4.891  16.835  1.00  0.00    -0.301 N 
HETATM   25  C21 UNL     1       5.429  -5.200  18.068  1.00  0.00     0.361 C 
HETATM   26  C24 UNL     1       3.388  -5.438  16.635  1.00  0.00     0.033 C 
HETATM   27  N7  UNL     1       5.132  -6.543  18.562  1.00  0.00    -0.059 N 
HETATM   28  C22 UNL     1       3.684  -6.612  18.794  1.00  0.00     0.236 C 
ATOM     29  H72 UNL     1       5.473  -7.280  17.945  1.00  0.00     0.279 HD
ATOM     30  H71 UNL     1       5.681  -6.796  19.385  1.00  0.00     0.279 HD
HETATM   31  C23 UNL     1       3.069  -6.656  17.430  1.00  0.00     0.058 C 
HETATM   32  C25 UNL     1       2.375  -4.329  16.910  1.00  0.00     0.038 C 
HETATM   33  C26 UNL     1       3.211  -5.843  15.165  1.00  0.00     0.038 C 
ATOM     34  H5  UNL     1       6.946  -3.490  17.104  1.00  0.00     0.165 HD
ENDBRANCH  13  21
ENDBRANCH   9  13
BRANCH   1  35
HETATM   35  C3  UNL     1       6.800   3.395   8.709  1.00  0.00     0.213 C 
BRANCH  35  36
HETATM   36  C2  UNL     1       7.268   2.550   7.612  1.00  0.00     0.259 C 
HETATM   37  N1  UNL     1       7.821   2.966   6.372  1.00  0.00    -0.363 N 
HETATM   38  C1  UNL     1       8.270   2.068   5.329  1.00  0.00     0.149 C 
ATOM     39  H1  UNL     1       7.909   3.969   6.204  1.00  0.00     0.162 HD
HETATM   40  O1  UNL     1       7.207   1.284   7.721  1.00  0.00    -0.270 OA
ENDBRANCH  35  36
BRANCH  35  41
HETATM   41  C4  UNL     1       5.441   3.906   8.576  1.00  0.00     0.025 C 
HETATM   42  C5  UNL     1       4.743   4.454   7.442  1.00  0.00    -0.088 C 
HETATM   43  C6  UNL     1       4.491   3.638   6.217  1.00  0.00     0.042 C 
HETATM   44  C7  UNL     1       5.108   5.900   7.054  1.00  0.00     0.042 C 
ENDBRANCH  35  41
BRANCH  35  45
HETATM   45  C29 UNL     1       7.815   4.400   9.122  1.00  0.00     0.273 C 
HETATM   46  N8  UNL     1       8.485   5.328   8.304  1.00  0.00    -0.059 NA
HETATM   47  O5  UNL     1       8.146   4.469  10.328  1.00  0.00    -0.273 OA
ENDBRANCH  35  45
ENDBRANCH   1  35
TORSDOF 8
ENDMDL
