MODEL 1
REMARK VINA RESULT: -10.060787559      0.000      0.000
REMARK  13 active torsions:
REMARK  status: ('A' for Active; 'I' for Inactive)
REMARK    1  A    between atoms: C2_2  and  N1_4 
REMARK    2  A    between atoms: N1_4  and  C4_6 
REMARK    3  A    between atoms: C8_10  and  C9_11 
REMARK       I    between atoms: C9_11  and  N2_13 
REMARK    4  A    between atoms: N2_13  and  C10_15 
REMARK    5  A    between atoms: C10_15  and  C11_16 
REMARK    6  A    between atoms: N3_20  and  C15_21 
REMARK    7  A    between atoms: C15_21  and  O2_22 
REMARK    8  A    between atoms: C15_21  and  C16_24 
REMARK    9  A    between atoms: C16_24  and  C17_25 
REMARK       I    between atoms: C17_25  and  N4_27 
REMARK   10  A    between atoms: N4_27  and  C18_29 
REMARK   11  A    between atoms: C18_29  and  C19_30 
REMARK       I    between atoms: C19_30  and  N5_32 
REMARK   12  A    between atoms: N5_32  and  C20_34 
REMARK   13  A    between atoms: C31_45  and  O5_46 
ROOT
HETATM    1  C11 UNL     1       2.674   0.770  13.863  1.00  0.00     0.073 C 
HETATM    2  C12 UNL     1       1.759  -0.382  14.087  1.00  0.00     0.016 C 
HETATM    3  C13 UNL     1       0.490  -0.057  13.268  1.00  0.00     0.021 C 
HETATM    4  C14 UNL     1       0.933  -0.221  11.791  1.00  0.00     0.127 C 
HETATM    5  N3  UNL     1       1.837   0.836  11.514  1.00  0.00    -0.337 N 
HETATM    6  C31 UNL     1       3.007   0.878  12.412  1.00  0.00     0.230 C 
ENDROOT
BRANCH   5   7
HETATM    7  C15 UNL     1       1.935   1.763  10.477  1.00  0.00     0.134 C 
BRANCH   7   8
HETATM    8  O2  UNL     1       1.239   1.353   9.354  1.00  0.00    -0.348 OA
ATOM      9  H2  UNL     1       1.198   2.036   8.696  1.00  0.00     0.219 HD
ENDBRANCH   7   8
BRANCH   7  10
HETATM   10  C16 UNL     1       2.528   3.032  10.201  1.00  0.00     0.105 A 
HETATM   11  C29 UNL     1       1.783   3.956   9.222  1.00  0.00     0.029 A 
HETATM   12  C30 UNL     1       1.525   4.141  10.650  1.00  0.00     0.029 A 
BRANCH  10  13
HETATM   13  C17 UNL     1       3.966   3.445  10.369  1.00  0.00     0.235 C 
HETATM   14  O3  UNL     1       4.359   4.582  10.475  1.00  0.00    -0.272 OA
HETATM   15  N4  UNL     1       4.920   2.395  10.413  1.00  0.00    -0.342 N 
ATOM     16  H4  UNL     1       4.526   1.461  10.298  1.00  0.00     0.163 HD
BRANCH  15  17
HETATM   17  C18 UNL     1       6.332   2.422  10.589  1.00  0.00     0.114 C 
HETATM   18  C24 UNL     1       6.741   3.287  11.778  1.00  0.00     0.041 C 
HETATM   19  C25 UNL     1       7.468   2.522  12.846  1.00  0.00     0.003 C 
HETATM   20  C26 UNL     1       8.743   1.870  12.367  1.00  0.00     0.000 C 
HETATM   21  C27 UNL     1       8.553   1.517  10.924  1.00  0.00     0.003 C 
HETATM   22  C28 UNL     1       7.064   1.143  10.712  1.00  0.00     0.041 C 
BRANCH  17  23
HETATM   23  C19 UNL     1       6.795   3.136   9.299  1.00  0.00     0.246 C 
HETATM   24  O4  UNL     1       7.274   4.260   9.430  1.00  0.00    -0.271 OA
HETATM   25  N5  UNL     1       6.588   2.412   8.117  1.00  0.00    -0.351 N 
ATOM     26  H5  UNL     1       6.184   1.482   8.230  1.00  0.00     0.163 HD
BRANCH  25  27
HETATM   27  C20 UNL     1       6.868   2.809   6.775  1.00  0.00     0.022 C 
HETATM   28  C21 UNL     1       5.743   3.637   6.172  1.00  0.00     0.037 C 
HETATM   29  C22 UNL     1       8.175   3.494   6.648  1.00  0.00     0.037 C 
HETATM   30  C23 UNL     1       6.867   1.515   5.927  1.00  0.00     0.037 C 
ENDBRANCH  25  27
ENDBRANCH  17  23
ENDBRANCH  15  17
ENDBRANCH  10  13
ENDBRANCH   7  10
ENDBRANCH   5   7
BRANCH   6  31
HETATM   31  O5  UNL     1       3.768  -0.243  12.015  1.00  0.00    -0.376 OA
ATOM     32  H5  UNL     1       4.370   0.007  11.323  1.00  0.00     0.212 HD
ENDBRANCH   6  31
BRANCH   1  33
HETATM   33  C10 UNL     1       4.023   0.707  14.509  1.00  0.00     0.073 C 
BRANCH  33  34
HETATM   34  N2  UNL     1       4.379  -0.278  15.433  1.00  0.00    -0.340 N 
HETATM   35  C9  UNL     1       5.493  -1.103  15.050  1.00  0.00     0.225 C 
HETATM   36  O1  UNL     1       6.062  -0.862  13.929  1.00  0.00    -0.273 OA
ATOM     37  H2  UNL     1       3.883  -0.404  16.316  1.00  0.00     0.167 HD
BRANCH  35  38
HETATM   38  C8  UNL     1       6.039  -2.218  15.852  1.00  0.00     0.080 C 
HETATM   39  C7  UNL     1       4.828  -2.937  16.405  1.00  0.00     0.014 C 
HETATM   40  C6  UNL     1       4.959  -4.439  16.284  1.00  0.00     0.003 C 
HETATM   41  C5  UNL     1       6.383  -4.744  16.685  1.00  0.00     0.024 C 
HETATM   42  C4  UNL     1       7.184  -4.439  15.362  1.00  0.00     0.077 C 
HETATM   43  C32 UNL     1       6.876  -3.084  14.904  1.00  0.00     0.038 C 
BRANCH  42  44
HETATM   44  N1  UNL     1       8.475  -4.952  15.506  1.00  0.00    -0.414 N 
ATOM     45  H1  UNL     1       8.802  -5.649  14.839  1.00  0.00     0.153 HD
BRANCH  44  46
HETATM   46  C2  UNL     1       9.337  -4.546  16.532  1.00  0.00     0.068 C 
HETATM   47  C1  UNL     1      10.173  -3.356  16.128  1.00  0.00     0.031 C 
HETATM   48  C3  UNL     1      10.211  -5.579  17.185  1.00  0.00     0.031 C 
ENDBRANCH  44  46
ENDBRANCH  42  44
ENDBRANCH  35  38
ENDBRANCH  33  34
ENDBRANCH   1  33
TORSDOF 13
ENDMDL
MODEL 2
REMARK VINA RESULT: -9.856622581      1.818      3.283
REMARK  13 active torsions:
REMARK  status: ('A' for Active; 'I' for Inactive)
REMARK    1  A    between atoms: C2_2  and  N1_4 
REMARK    2  A    between atoms: N1_4  and  C4_6 
REMARK    3  A    between atoms: C8_10  and  C9_11 
REMARK       I    between atoms: C9_11  and  N2_13 
REMARK    4  A    between atoms: N2_13  and  C10_15 
REMARK    5  A    between atoms: C10_15  and  C11_16 
REMARK    6  A    between atoms: N3_20  and  C15_21 
REMARK    7  A    between atoms: C15_21  and  O2_22 
REMARK    8  A    between atoms: C15_21  and  C16_24 
REMARK    9  A    between atoms: C16_24  and  C17_25 
REMARK       I    between atoms: C17_25  and  N4_27 
REMARK   10  A    between atoms: N4_27  and  C18_29 
REMARK   11  A    between atoms: C18_29  and  C19_30 
REMARK       I    between atoms: C19_30  and  N5_32 
REMARK   12  A    between atoms: N5_32  and  C20_34 
REMARK   13  A    between atoms: C31_45  and  O5_46 
ROOT
HETATM    1  C11 UNL     1       3.122   0.675  14.006  1.00  0.00     0.073 C 
HETATM    2  C12 UNL     1       2.369  -0.608  13.979  1.00  0.00     0.016 C 
HETATM    3  C13 UNL     1       1.132  -0.334  13.095  1.00  0.00     0.021 C 
HETATM    4  C14 UNL     1       1.704  -0.214  11.659  1.00  0.00     0.127 C 
HETATM    5  N3  UNL     1       2.465   0.982  11.619  1.00  0.00    -0.337 N 
HETATM    6  C31 UNL     1       3.546   1.043  12.622  1.00  0.00     0.230 C 
ENDROOT
BRANCH   5   7
HETATM    7  C15 UNL     1       2.506   2.060  10.735  1.00  0.00     0.134 C 
BRANCH   7   8
HETATM    8  O2  UNL     1       3.804   2.416  10.419  1.00  0.00    -0.348 OA
ATOM      9  H2  UNL     1       3.884   3.349  10.259  1.00  0.00     0.219 HD
ENDBRANCH   7   8
BRANCH   7  10
HETATM   10  C16 UNL     1       1.616   2.924  10.028  1.00  0.00     0.105 A 
HETATM   11  C29 UNL     1       0.110   2.740  10.282  1.00  0.00     0.029 A 
HETATM   12  C30 UNL     1       0.808   3.749  11.077  1.00  0.00     0.029 A 
BRANCH  10  13
HETATM   13  C17 UNL     1       1.874   3.692   8.757  1.00  0.00     0.235 C 
HETATM   14  O3  UNL     1       1.024   4.157   8.037  1.00  0.00    -0.272 OA
HETATM   15  N4  UNL     1       3.236   3.878   8.402  1.00  0.00    -0.342 N 
ATOM     16  H4  UNL     1       3.903   3.444   9.041  1.00  0.00     0.163 HD
BRANCH  15  17
HETATM   17  C18 UNL     1       3.830   4.568   7.308  1.00  0.00     0.114 C 
HETATM   18  C24 UNL     1       3.298   4.073   5.966  1.00  0.00     0.041 C 
HETATM   19  C25 UNL     1       2.604   5.142   5.172  1.00  0.00     0.003 C 
HETATM   20  C26 UNL     1       3.485   6.324   4.843  1.00  0.00     0.000 C 
HETATM   21  C27 UNL     1       4.470   6.475   5.961  1.00  0.00     0.003 C 
HETATM   22  C28 UNL     1       3.776   6.045   7.277  1.00  0.00     0.041 C 
BRANCH  17  23
HETATM   23  C19 UNL     1       5.307   4.128   7.426  1.00  0.00     0.246 C 
HETATM   24  O4  UNL     1       6.003   4.740   8.233  1.00  0.00    -0.271 OA
HETATM   25  N5  UNL     1       5.683   3.085   6.569  1.00  0.00    -0.351 N 
ATOM     26  H5  UNL     1       4.942   2.704   5.981  1.00  0.00     0.163 HD
BRANCH  25  27
HETATM   27  C20 UNL     1       6.969   2.488   6.412  1.00  0.00     0.022 C 
HETATM   28  C21 UNL     1       8.015   3.488   5.941  1.00  0.00     0.037 C 
HETATM   29  C22 UNL     1       7.413   1.771   7.630  1.00  0.00     0.037 C 
HETATM   30  C23 UNL     1       6.851   1.496   5.231  1.00  0.00     0.037 C 
ENDBRANCH  25  27
ENDBRANCH  17  23
ENDBRANCH  15  17
ENDBRANCH  10  13
ENDBRANCH   7  10
ENDBRANCH   5   7
BRANCH   6  31
HETATM   31  O5  UNL     1       4.488   0.104  12.149  1.00  0.00    -0.376 OA
ATOM     32  H5  UNL     1       4.043  -0.699  11.901  1.00  0.00     0.212 HD
ENDBRANCH   6  31
BRANCH   1  33
HETATM   33  C10 UNL     1       4.414   0.693  14.763  1.00  0.00     0.073 C 
BRANCH  33  34
HETATM   34  N2  UNL     1       4.765  -0.289  15.691  1.00  0.00    -0.340 N 
HETATM   35  C9  UNL     1       5.703  -1.272  15.218  1.00  0.00     0.225 C 
HETATM   36  O1  UNL     1       6.138  -1.159  14.020  1.00  0.00    -0.273 OA
ATOM     37  H2  UNL     1       4.384  -0.308  16.637  1.00  0.00     0.167 HD
BRANCH  35  38
HETATM   38  C8  UNL     1       6.208  -2.414  16.009  1.00  0.00     0.080 C 
HETATM   39  C7  UNL     1       4.971  -3.131  16.503  1.00  0.00     0.014 C 
HETATM   40  C6  UNL     1       5.087  -4.631  16.348  1.00  0.00     0.003 C 
HETATM   41  C5  UNL     1       6.493  -4.964  16.788  1.00  0.00     0.024 C 
HETATM   42  C4  UNL     1       7.342  -4.637  15.501  1.00  0.00     0.077 C 
HETATM   43  C32 UNL     1       7.066  -3.267  15.068  1.00  0.00     0.038 C 
BRANCH  42  44
HETATM   44  N1  UNL     1       8.621  -5.170  15.675  1.00  0.00    -0.414 N 
ATOM     45  H1  UNL     1       8.973  -5.834  14.986  1.00  0.00     0.153 HD
BRANCH  44  46
HETATM   46  C2  UNL     1       9.439  -4.828  16.758  1.00  0.00     0.068 C 
HETATM   47  C1  UNL     1      10.178  -3.533  16.520  1.00  0.00     0.031 C 
HETATM   48  C3  UNL     1      10.390  -5.861  17.293  1.00  0.00     0.031 C 
ENDBRANCH  44  46
ENDBRANCH  42  44
ENDBRANCH  35  38
ENDBRANCH  33  34
ENDBRANCH   1  33
TORSDOF 13
ENDMDL
MODEL 3
REMARK VINA RESULT: -9.784963322      0.969      2.039
REMARK  13 active torsions:
REMARK  status: ('A' for Active; 'I' for Inactive)
REMARK    1  A    between atoms: C2_2  and  N1_4 
REMARK    2  A    between atoms: N1_4  and  C4_6 
REMARK    3  A    between atoms: C8_10  and  C9_11 
REMARK       I    between atoms: C9_11  and  N2_13 
REMARK    4  A    between atoms: N2_13  and  C10_15 
REMARK    5  A    between atoms: C10_15  and  C11_16 
REMARK    6  A    between atoms: N3_20  and  C15_21 
REMARK    7  A    between atoms: C15_21  and  O2_22 
REMARK    8  A    between atoms: C15_21  and  C16_24 
REMARK    9  A    between atoms: C16_24  and  C17_25 
REMARK       I    between atoms: C17_25  and  N4_27 
REMARK   10  A    between atoms: N4_27  and  C18_29 
REMARK   11  A    between atoms: C18_29  and  C19_30 
REMARK       I    between atoms: C19_30  and  N5_32 
REMARK   12  A    between atoms: N5_32  and  C20_34 
REMARK   13  A    between atoms: C31_45  and  O5_46 
ROOT
HETATM    1  C11 UNL     1       2.675   0.627  13.881  1.00  0.00     0.073 C 
HETATM    2  C12 UNL     1       1.641  -0.419  14.101  1.00  0.00     0.016 C 
HETATM    3  C13 UNL     1       0.400   0.066  13.318  1.00  0.00     0.021 C 
HETATM    4  C14 UNL     1       0.791  -0.111  11.828  1.00  0.00     0.127 C 
HETATM    5  N3  UNL     1       1.804   0.844  11.554  1.00  0.00    -0.337 N 
HETATM    6  C31 UNL     1       2.989   0.732  12.425  1.00  0.00     0.230 C 
ENDROOT
BRANCH   5   7
HETATM    7  C15 UNL     1       1.984   1.779  10.535  1.00  0.00     0.134 C 
BRANCH   7   8
HETATM    8  O2  UNL     1       1.402   1.367   9.350  1.00  0.00    -0.348 OA
ATOM      9  H2  UNL     1       1.151   2.104   8.806  1.00  0.00     0.219 HD
ENDBRANCH   7   8
BRANCH   7  10
HETATM   10  C16 UNL     1       2.582   3.058  10.322  1.00  0.00     0.105 A 
HETATM   11  C29 UNL     1       1.839   4.034   9.395  1.00  0.00     0.029 A 
HETATM   12  C30 UNL     1       1.588   4.147  10.832  1.00  0.00     0.029 A 
BRANCH  10  13
HETATM   13  C17 UNL     1       4.024   3.455  10.505  1.00  0.00     0.235 C 
HETATM   14  O3  UNL     1       4.414   4.566  10.773  1.00  0.00    -0.272 OA
HETATM   15  N4  UNL     1       4.984   2.421  10.353  1.00  0.00    -0.342 N 
ATOM     16  H4  UNL     1       4.592   1.511  10.108  1.00  0.00     0.163 HD
BRANCH  15  17
HETATM   17  C18 UNL     1       6.401   2.435  10.486  1.00  0.00     0.114 C 
HETATM   18  C24 UNL     1       6.855   3.286  11.669  1.00  0.00     0.041 C 
HETATM   19  C25 UNL     1       7.608   2.505  12.707  1.00  0.00     0.003 C 
HETATM   20  C26 UNL     1       8.862   1.848  12.181  1.00  0.00     0.000 C 
HETATM   21  C27 UNL     1       8.623   1.509  10.743  1.00  0.00     0.003 C 
HETATM   22  C28 UNL     1       7.126   1.149  10.574  1.00  0.00     0.041 C 
BRANCH  17  23
HETATM   23  C19 UNL     1       6.829   3.157   9.188  1.00  0.00     0.246 C 
HETATM   24  O4  UNL     1       7.255   4.303   9.308  1.00  0.00    -0.271 OA
HETATM   25  N5  UNL     1       6.654   2.412   8.013  1.00  0.00    -0.351 N 
ATOM     26  H5  UNL     1       6.295   1.466   8.136  1.00  0.00     0.163 HD
BRANCH  25  27
HETATM   27  C20 UNL     1       6.915   2.808   6.667  1.00  0.00     0.022 C 
HETATM   28  C21 UNL     1       5.792   3.659   6.090  1.00  0.00     0.037 C 
HETATM   29  C22 UNL     1       8.231   3.470   6.516  1.00  0.00     0.037 C 
HETATM   30  C23 UNL     1       6.873   1.517   5.815  1.00  0.00     0.037 C 
ENDBRANCH  25  27
ENDBRANCH  17  23
ENDBRANCH  15  17
ENDBRANCH  10  13
ENDBRANCH   7  10
ENDBRANCH   5   7
BRANCH   6  31
HETATM   31  O5  UNL     1       3.610  -0.458  11.986  1.00  0.00    -0.376 OA
ATOM     32  H5  UNL     1       2.972  -1.007  11.545  1.00  0.00     0.212 HD
ENDBRANCH   6  31
BRANCH   1  33
HETATM   33  C10 UNL     1       4.021   0.397  14.494  1.00  0.00     0.073 C 
BRANCH  33  34
HETATM   34  N2  UNL     1       4.447  -0.853  14.947  1.00  0.00    -0.340 N 
HETATM   35  C9  UNL     1       5.615  -1.378  14.291  1.00  0.00     0.225 C 
HETATM   36  O1  UNL     1       6.161  -0.667  13.378  1.00  0.00    -0.273 OA
ATOM     37  H2  UNL     1       3.965  -1.358  15.691  1.00  0.00     0.167 HD
BRANCH  35  38
HETATM   38  C8  UNL     1       6.239  -2.685  14.584  1.00  0.00     0.080 C 
HETATM   39  C7  UNL     1       7.542  -2.354  15.278  1.00  0.00     0.014 C 
HETATM   40  C6  UNL     1       7.778  -3.232  16.487  1.00  0.00     0.003 C 
HETATM   41  C5  UNL     1       7.379  -4.621  16.049  1.00  0.00     0.024 C 
HETATM   42  C4  UNL     1       5.811  -4.596  16.213  1.00  0.00     0.077 C 
HETATM   43  C32 UNL     1       5.260  -3.459  15.475  1.00  0.00     0.038 C 
BRANCH  42  44
HETATM   44  N1  UNL     1       5.341  -5.907  16.115  1.00  0.00    -0.414 N 
ATOM     45  H1  UNL     1       5.889  -6.586  15.588  1.00  0.00     0.153 HD
BRANCH  44  46
HETATM   46  C2  UNL     1       4.147  -6.326  16.714  1.00  0.00     0.068 C 
HETATM   47  C1  UNL     1       3.003  -6.356  15.729  1.00  0.00     0.031 C 
HETATM   48  C3  UNL     1       3.704  -5.651  17.981  1.00  0.00     0.031 C 
ENDBRANCH  44  46
ENDBRANCH  42  44
ENDBRANCH  35  38
ENDBRANCH  33  34
ENDBRANCH   1  33
TORSDOF 13
ENDMDL
MODEL 4
REMARK VINA RESULT: -9.771865770      3.978      7.861
REMARK  13 active torsions:
REMARK  status: ('A' for Active; 'I' for Inactive)
REMARK    1  A    between atoms: C2_2  and  N1_4 
REMARK    2  A    between atoms: N1_4  and  C4_6 
REMARK    3  A    between atoms: C8_10  and  C9_11 
REMARK       I    between atoms: C9_11  and  N2_13 
REMARK    4  A    between atoms: N2_13  and  C10_15 
REMARK    5  A    between atoms: C10_15  and  C11_16 
REMARK    6  A    between atoms: N3_20  and  C15_21 
REMARK    7  A    between atoms: C15_21  and  O2_22 
REMARK    8  A    between atoms: C15_21  and  C16_24 
REMARK    9  A    between atoms: C16_24  and  C17_25 
REMARK       I    between atoms: C17_25  and  N4_27 
REMARK   10  A    between atoms: N4_27  and  C18_29 
REMARK   11  A    between atoms: C18_29  and  C19_30 
REMARK       I    between atoms: C19_30  and  N5_32 
REMARK   12  A    between atoms: N5_32  and  C20_34 
REMARK   13  A    between atoms: C31_45  and  O5_46 
ROOT
HETATM    1  C11 UNL     1       9.165  -5.261  16.197  1.00  0.00     0.073 C 
HETATM    2  C12 UNL     1       9.850  -3.983  16.528  1.00  0.00     0.016 C 
HETATM    3  C13 UNL     1       9.065  -2.892  15.766  1.00  0.00     0.021 C 
HETATM    4  C14 UNL     1       7.714  -2.792  16.522  1.00  0.00     0.127 C 
HETATM    5  N3  UNL     1       7.014  -4.000  16.273  1.00  0.00    -0.337 N 
HETATM    6  C31 UNL     1       7.750  -5.216  16.670  1.00  0.00     0.230 C 
ENDROOT
BRANCH   5   7
HETATM    7  C15 UNL     1       5.711  -4.282  15.864  1.00  0.00     0.134 C 
BRANCH   7   8
HETATM    8  O2  UNL     1       5.378  -5.605  16.087  1.00  0.00    -0.348 OA
ATOM      9  H2  UNL     1       4.609  -5.864  15.593  1.00  0.00     0.219 HD
ENDBRANCH   7   8
BRANCH   7  10
HETATM   10  C16 UNL     1       4.584  -3.624  15.286  1.00  0.00     0.105 A 
HETATM   11  C29 UNL     1       3.229  -4.347  15.375  1.00  0.00     0.029 A 
HETATM   12  C30 UNL     1       3.540  -3.369  16.418  1.00  0.00     0.029 A 
BRANCH  10  13
HETATM   13  C17 UNL     1       4.571  -2.551  14.229  1.00  0.00     0.235 C 
HETATM   14  O3  UNL     1       3.982  -2.612  13.177  1.00  0.00    -0.272 OA
HETATM   15  N4  UNL     1       5.311  -1.375  14.520  1.00  0.00    -0.342 N 
ATOM     16  H4  UNL     1       5.801  -1.394  15.415  1.00  0.00     0.163 HD
BRANCH  15  17
HETATM   17  C18 UNL     1       5.487  -0.174  13.777  1.00  0.00     0.114 C 
HETATM   18  C24 UNL     1       6.333   0.846  14.534  1.00  0.00     0.041 C 
HETATM   19  C25 UNL     1       7.602   1.212  13.819  1.00  0.00     0.003 C 
HETATM   20  C26 UNL     1       7.377   1.813  12.451  1.00  0.00     0.000 C 
HETATM   21  C27 UNL     1       6.127   1.206  11.894  1.00  0.00     0.003 C 
HETATM   22  C28 UNL     1       6.030  -0.253  12.404  1.00  0.00     0.041 C 
BRANCH  17  23
HETATM   23  C19 UNL     1       4.041   0.365  13.708  1.00  0.00     0.246 C 
HETATM   24  O4  UNL     1       3.585   0.861  14.735  1.00  0.00    -0.271 OA
HETATM   25  N5  UNL     1       3.407   0.199  12.468  1.00  0.00    -0.351 N 
ATOM     26  H5  UNL     1       3.972  -0.229  11.734  1.00  0.00     0.163 HD
BRANCH  25  27
HETATM   27  C20 UNL     1       2.075   0.552  12.100  1.00  0.00     0.022 C 
HETATM   28  C21 UNL     1       1.035  -0.273  12.845  1.00  0.00     0.037 C 
HETATM   29  C22 UNL     1       1.815   2.004  12.235  1.00  0.00     0.037 C 
HETATM   30  C23 UNL     1       1.899   0.120  10.625  1.00  0.00     0.037 C 
ENDBRANCH  25  27
ENDBRANCH  17  23
ENDBRANCH  15  17
ENDBRANCH  10  13
ENDBRANCH   7  10
ENDBRANCH   5   7
BRANCH   6  31
HETATM   31  O5  UNL     1       7.723  -5.170  18.081  1.00  0.00    -0.376 OA
ATOM     32  H5  UNL     1       7.088  -5.797  18.409  1.00  0.00     0.212 HD
ENDBRANCH   6  31
BRANCH   1  33
HETATM   33  C10 UNL     1       9.691  -6.505  16.842  1.00  0.00     0.073 C 
BRANCH  33  34
HETATM   34  N2  UNL     1       9.271  -7.786  16.481  1.00  0.00    -0.340 N 
HETATM   35  C9  UNL     1       8.748  -8.586  17.557  1.00  0.00     0.225 C 
HETATM   36  O1  UNL     1       8.699  -8.064  18.724  1.00  0.00    -0.273 OA
ATOM     37  H2  UNL     1       9.331  -8.131  15.523  1.00  0.00     0.167 HD
BRANCH  35  38
HETATM   38  C8  UNL     1       8.260  -9.975  17.423  1.00  0.00     0.080 C 
HETATM   39  C7  UNL     1       8.363 -10.565  18.812  1.00  0.00     0.014 C 
HETATM   40  C6  UNL     1       7.127 -11.355  19.183  1.00  0.00     0.003 C 
HETATM   41  C5  UNL     1       6.782 -12.150  17.946  1.00  0.00     0.024 C 
HETATM   42  C4  UNL     1       6.003 -11.099  17.067  1.00  0.00     0.077 C 
HETATM   43  C32 UNL     1       6.820  -9.897  16.903  1.00  0.00     0.038 C 
BRANCH  42  44
HETATM   44  N1  UNL     1       5.380 -11.782  16.021  1.00  0.00    -0.414 N 
ATOM     45  H1  UNL     1       5.909 -12.490  15.514  1.00  0.00     0.153 HD
BRANCH  44  46
HETATM   46  C2  UNL     1       4.055 -11.531  15.640  1.00  0.00     0.068 C 
HETATM   47  C1  UNL     1       3.978 -10.741  14.356  1.00  0.00     0.031 C 
HETATM   48  C3  UNL     1       3.118 -10.939  16.654  1.00  0.00     0.031 C 
ENDBRANCH  44  46
ENDBRANCH  42  44
ENDBRANCH  35  38
ENDBRANCH  33  34
ENDBRANCH   1  33
TORSDOF 13
ENDMDL
MODEL 5
REMARK VINA RESULT: -9.658344372      1.522      3.182
REMARK  13 active torsions:
REMARK  status: ('A' for Active; 'I' for Inactive)
REMARK    1  A    between atoms: C2_2  and  N1_4 
REMARK    2  A    between atoms: N1_4  and  C4_6 
REMARK    3  A    between atoms: C8_10  and  C9_11 
REMARK       I    between atoms: C9_11  and  N2_13 
REMARK    4  A    between atoms: N2_13  and  C10_15 
REMARK    5  A    between atoms: C10_15  and  C11_16 
REMARK    6  A    between atoms: N3_20  and  C15_21 
REMARK    7  A    between atoms: C15_21  and  O2_22 
REMARK    8  A    between atoms: C15_21  and  C16_24 
REMARK    9  A    between atoms: C16_24  and  C17_25 
REMARK       I    between atoms: C17_25  and  N4_27 
REMARK   10  A    between atoms: N4_27  and  C18_29 
REMARK   11  A    between atoms: C18_29  and  C19_30 
REMARK       I    between atoms: C19_30  and  N5_32 
REMARK   12  A    between atoms: N5_32  and  C20_34 
REMARK   13  A    between atoms: C31_45  and  O5_46 
ROOT
HETATM    1  C11 UNL     1       2.035   0.923  12.695  1.00  0.00     0.073 C 
HETATM    2  C12 UNL     1       0.562   0.722  12.657  1.00  0.00     0.016 C 
HETATM    3  C13 UNL     1      -0.032   2.121  12.375  1.00  0.00     0.021 C 
HETATM    4  C14 UNL     1       0.340   2.405  10.896  1.00  0.00     0.127 C 
HETATM    5  N3  UNL     1       1.747   2.579  10.852  1.00  0.00    -0.337 N 
HETATM    6  C31 UNL     1       2.512   1.431  11.375  1.00  0.00     0.230 C 
ENDROOT
BRANCH   5   7
HETATM    7  C15 UNL     1       2.572   3.548  10.283  1.00  0.00     0.134 C 
BRANCH   7   8
HETATM    8  O2  UNL     1       3.329   4.203  11.236  1.00  0.00    -0.348 OA
ATOM      9  H2  UNL     1       2.798   4.779  11.774  1.00  0.00     0.219 HD
ENDBRANCH   7   8
BRANCH   7  10
HETATM   10  C16 UNL     1       2.899   4.084   9.000  1.00  0.00     0.105 A 
HETATM   11  C29 UNL     1       1.868   3.892   7.876  1.00  0.00     0.029 A 
HETATM   12  C30 UNL     1       1.816   5.145   8.629  1.00  0.00     0.029 A 
BRANCH  10  13
HETATM   13  C17 UNL     1       4.260   4.426   8.452  1.00  0.00     0.235 C 
HETATM   14  O3  UNL     1       4.553   5.461   7.903  1.00  0.00    -0.272 OA
HETATM   15  N4  UNL     1       5.268   3.439   8.613  1.00  0.00    -0.342 N 
ATOM     16  H4  UNL     1       4.951   2.582   9.067  1.00  0.00     0.163 HD
BRANCH  15  17
HETATM   17  C18 UNL     1       6.644   3.442   8.251  1.00  0.00     0.114 C 
HETATM   18  C24 UNL     1       6.846   3.106   6.777  1.00  0.00     0.041 C 
HETATM   19  C25 UNL     1       7.508   4.209   6.002  1.00  0.00     0.003 C 
HETATM   20  C26 UNL     1       8.877   4.580   6.520  1.00  0.00     0.000 C 
HETATM   21  C27 UNL     1       8.878   4.340   7.998  1.00  0.00     0.003 C 
HETATM   22  C28 UNL     1       7.458   4.643   8.538  1.00  0.00     0.041 C 
BRANCH  17  23
HETATM   23  C19 UNL     1       7.190   2.263   9.087  1.00  0.00     0.246 C 
HETATM   24  O4  UNL     1       7.572   1.274   8.466  1.00  0.00    -0.271 OA
HETATM   25  N5  UNL     1       7.161   2.460  10.475  1.00  0.00    -0.351 N 
ATOM     26  H5  UNL     1       6.815   3.367  10.788  1.00  0.00     0.163 HD
BRANCH  25  27
HETATM   27  C20 UNL     1       7.554   1.555  11.506  1.00  0.00     0.022 C 
HETATM   28  C21 UNL     1       6.437   0.591  11.883  1.00  0.00     0.037 C 
HETATM   29  C22 UNL     1       8.806   0.834  11.181  1.00  0.00     0.037 C 
HETATM   30  C23 UNL     1       7.752   2.406  12.784  1.00  0.00     0.037 C 
ENDBRANCH  25  27
ENDBRANCH  17  23
ENDBRANCH  15  17
ENDBRANCH  10  13
ENDBRANCH   7  10
ENDBRANCH   5   7
BRANCH   6  31
HETATM   31  O5  UNL     1       2.330   0.437  10.389  1.00  0.00    -0.376 OA
ATOM     32  H5  UNL     1       2.693  -0.387  10.695  1.00  0.00     0.212 HD
ENDBRANCH   6  31
BRANCH   1  33
HETATM   33  C10 UNL     1       2.885  -0.291  12.910  1.00  0.00     0.073 C 
BRANCH  33  34
HETATM   34  N2  UNL     1       3.636  -0.499  14.068  1.00  0.00    -0.340 N 
HETATM   35  C9  UNL     1       4.310  -1.768  14.141  1.00  0.00     0.225 C 
HETATM   36  O1  UNL     1       4.181  -2.575  13.157  1.00  0.00    -0.273 OA
ATOM     37  H2  UNL     1       3.702   0.199  14.809  1.00  0.00     0.167 HD
BRANCH  35  38
HETATM   38  C8  UNL     1       5.146  -2.221  15.273  1.00  0.00     0.080 C 
HETATM   39  C7  UNL     1       4.408  -3.404  15.861  1.00  0.00     0.014 C 
HETATM   40  C6  UNL     1       5.340  -4.555  16.169  1.00  0.00     0.003 C 
HETATM   41  C5  UNL     1       6.557  -3.918  16.796  1.00  0.00     0.024 C 
HETATM   42  C4  UNL     1       7.373  -3.427  15.539  1.00  0.00     0.077 C 
HETATM   43  C32 UNL     1       6.518  -2.590  14.698  1.00  0.00     0.038 C 
BRANCH  42  44
HETATM   44  N1  UNL     1       8.656  -3.075  15.963  1.00  0.00    -0.414 N 
ATOM     45  H1  UNL     1       8.818  -2.128  16.302  1.00  0.00     0.153 HD
BRANCH  44  46
HETATM   46  C2  UNL     1       9.730  -3.974  15.939  1.00  0.00     0.068 C 
HETATM   47  C1  UNL     1       9.514  -5.084  14.939  1.00  0.00     0.031 C 
HETATM   48  C3  UNL     1      10.211  -4.552  17.240  1.00  0.00     0.031 C 
ENDBRANCH  44  46
ENDBRANCH  42  44
ENDBRANCH  35  38
ENDBRANCH  33  34
ENDBRANCH   1  33
TORSDOF 13
ENDMDL
