MODEL 1
REMARK VINA RESULT: -10.194199851      0.000      0.000
REMARK  9 active torsions:
REMARK  status: ('A' for Active; 'I' for Inactive)
REMARK    1  A    between atoms: C1_4  and  N2_5 
REMARK    2  A    between atoms: C1_4  and  C29_45 
REMARK    3  A    between atoms: N2_5  and  C2_7 
REMARK    4  A    between atoms: C2_7  and  C3_8 
REMARK    5  A    between atoms: C3_8  and  C4_9 
REMARK    6  A    between atoms: C4_9  and  C5_10 
REMARK       I    between atoms: N4_17  and  C9_18 
REMARK    7  A    between atoms: C9_18  and  C10_20 
REMARK    8  A    between atoms: C17_27  and  S1_28 
REMARK    9  A    between atoms: S1_28  and  N5_29 
ROOT
HETATM    1  C5  UNL     1       4.414  -6.180  17.613  1.00  0.00     0.314 C 
HETATM    2  C6  UNL     1       5.661  -5.604  18.188  1.00  0.00     0.251 C 
HETATM    3  O1  UNL     1       5.912  -5.932  19.406  1.00  0.00    -0.271 OA
HETATM    4  N3  UNL     1       6.586  -4.748  17.552  1.00  0.00    -0.351 N 
ATOM      5  H3  UNL     1       7.547  -4.819  17.887  1.00  0.00     0.163 HD
HETATM    6  C7  UNL     1       6.380  -3.825  16.536  1.00  0.00     0.127 C 
HETATM    7  C8  UNL     1       6.647  -4.142  15.115  1.00  0.00     0.153 C 
HETATM    8  N4  UNL     1       5.665  -3.074  14.858  1.00  0.00    -0.341 N 
HETATM    9  C9  UNL     1       5.555  -2.069  13.902  1.00  0.00     0.225 C 
HETATM   10  O2  UNL     1       6.514  -2.039  13.032  1.00  0.00    -0.273 OA
HETATM   11  C24 UNL     1       4.992  -3.595  16.026  1.00  0.00     0.145 C 
HETATM   12  C25 UNL     1       4.143  -4.719  15.701  1.00  0.00     0.248 C 
HETATM   13  C26 UNL     1       2.739  -4.488  16.290  1.00  0.00     0.040 C 
HETATM   14  C27 UNL     1       2.119  -5.885  16.182  1.00  0.00     0.032 C 
HETATM   15  C28 UNL     1       3.244  -6.720  15.615  1.00  0.00     0.274 C 
HETATM   16  N8  UNL     1       4.398  -6.032  16.179  1.00  0.00     0.108 N 
ENDROOT
BRANCH   9  17
HETATM   17  C10 UNL     1       4.528  -1.048  13.726  1.00  0.00     0.086 C 
HETATM   18  C11 UNL     1       3.382  -1.583  12.897  1.00  0.00     0.049 C 
HETATM   19  C12 UNL     1       2.071  -0.871  13.158  1.00  0.00    -0.075 C 
HETATM   20  C13 UNL     1       2.163   0.013  14.347  1.00  0.00     0.004 C 
HETATM   21  C22 UNL     1       1.329  -0.396  11.978  1.00  0.00     0.016 C 
HETATM   22  C14 UNL     1       3.074   1.118  14.428  1.00  0.00     0.009 C 
HETATM   23  C15 UNL     1       4.155   1.412  13.458  1.00  0.00    -0.039 C 
HETATM   24  C16 UNL     1       5.021   0.209  13.079  1.00  0.00     0.054 C 
HETATM   25  C17 UNL     1       3.809   2.303  12.321  1.00  0.00     0.024 C 
HETATM   26  C19 UNL     1       2.434   2.500  11.867  1.00  0.00    -0.001 C 
HETATM   27  C20 UNL     1       1.605   1.552  11.168  1.00  0.00     0.011 C 
HETATM   28  C21 UNL     1       0.578   0.886  12.101  1.00  0.00     0.017 C 
HETATM   29  C23 UNL     1       2.042   0.189  10.816  1.00  0.00     0.017 C 
BRANCH  25  30
HETATM   30  S1  UNL     1       4.941   2.060  10.886  1.00  0.00    -0.013 SA
BRANCH  30  31
HETATM   31  N5  UNL     1       6.486   2.833  11.201  1.00  0.00    -0.302 N 
HETATM   32  C18 UNL     1       6.904   3.746  10.407  1.00  0.00     0.207 C 
HETATM   33  N6  UNL     1       8.141   4.423  10.587  1.00  0.00    -0.066 NA
HETATM   34  N7  UNL     1       6.108   4.110   9.294  1.00  0.00    -0.066 NA
ATOM     35  H5  UNL     1       7.046   2.557  12.008  1.00  0.00     0.176 HD
ENDBRANCH  30  31
ENDBRANCH  25  30
ENDBRANCH   9  17
BRANCH   1  36
HETATM   36  C4  UNL     1       4.479  -7.666  17.951  1.00  0.00     0.047 C 
BRANCH  36  37
HETATM   37  C3  UNL     1       5.570  -8.330  17.150  1.00  0.00     0.022 C 
BRANCH  37  38
HETATM   38  C2  UNL     1       6.424  -9.247  17.966  1.00  0.00     0.121 C 
BRANCH  38  39
HETATM   39  N2  UNL     1       7.393  -8.597  18.773  1.00  0.00    -0.380 N 
ATOM     40  H2  UNL     1       7.160  -8.342  19.733  1.00  0.00     0.160 HD
BRANCH  39  41
HETATM   41  C1  UNL     1       8.677  -8.299  18.264  1.00  0.00     0.074 C 
HETATM   42  N1  UNL     1       9.500  -9.280  18.040  1.00  0.00    -0.389 N 
ATOM     43  H12 UNL     1       9.178 -10.227  18.242  1.00  0.00     0.157 HD
ATOM     44  H11 UNL     1      10.427  -9.065  17.673  1.00  0.00     0.157 HD
BRANCH  41  45
HETATM   45  C29 UNL     1       9.145  -6.924  17.970  1.00  0.00     0.052 A 
HETATM   46  C30 UNL     1       9.183  -6.622  16.470  1.00  0.00     0.013 A 
HETATM   47  C31 UNL     1      10.425  -6.669  17.287  1.00  0.00     0.013 A 
ENDBRANCH  41  45
ENDBRANCH  39  41
ENDBRANCH  38  39
ENDBRANCH  37  38
ENDBRANCH  36  37
ENDBRANCH   1  36
TORSDOF 9
ENDMDL
MODEL 2
REMARK VINA RESULT: -10.077876795      1.194      1.523
REMARK  9 active torsions:
REMARK  status: ('A' for Active; 'I' for Inactive)
REMARK    1  A    between atoms: C1_4  and  N2_5 
REMARK    2  A    between atoms: C1_4  and  C29_45 
REMARK    3  A    between atoms: N2_5  and  C2_7 
REMARK    4  A    between atoms: C2_7  and  C3_8 
REMARK    5  A    between atoms: C3_8  and  C4_9 
REMARK    6  A    between atoms: C4_9  and  C5_10 
REMARK       I    between atoms: N4_17  and  C9_18 
REMARK    7  A    between atoms: C9_18  and  C10_20 
REMARK    8  A    between atoms: C17_27  and  S1_28 
REMARK    9  A    between atoms: S1_28  and  N5_29 
ROOT
HETATM    1  C5  UNL     1       4.197  -6.518  17.698  1.00  0.00     0.314 C 
HETATM    2  C6  UNL     1       5.370  -5.989  18.447  1.00  0.00     0.251 C 
HETATM    3  O1  UNL     1       5.463  -6.369  19.672  1.00  0.00    -0.271 OA
HETATM    4  N3  UNL     1       6.378  -5.126  17.966  1.00  0.00    -0.351 N 
ATOM      5  H3  UNL     1       7.289  -5.227  18.414  1.00  0.00     0.163 HD
HETATM    6  C7  UNL     1       6.312  -4.159  16.972  1.00  0.00     0.127 C 
HETATM    7  C8  UNL     1       6.749  -4.425  15.582  1.00  0.00     0.153 C 
HETATM    8  N4  UNL     1       5.821  -3.328  15.252  1.00  0.00    -0.341 N 
HETATM    9  C9  UNL     1       5.844  -2.284  14.332  1.00  0.00     0.225 C 
HETATM   10  O2  UNL     1       6.904  -2.238  13.589  1.00  0.00    -0.273 OA
HETATM   11  C24 UNL     1       5.001  -3.883  16.304  1.00  0.00     0.145 C 
HETATM   12  C25 UNL     1       4.184  -4.978  15.831  1.00  0.00     0.248 C 
HETATM   13  C26 UNL     1       2.721  -4.745  16.251  1.00  0.00     0.040 C 
HETATM   14  C27 UNL     1       2.100  -6.124  16.009  1.00  0.00     0.032 C 
HETATM   15  C28 UNL     1       3.276  -6.957  15.551  1.00  0.00     0.274 C 
HETATM   16  N8  UNL     1       4.360  -6.313  16.281  1.00  0.00     0.108 N 
ENDROOT
BRANCH   9  17
HETATM   17  C10 UNL     1       4.860  -1.239  14.074  1.00  0.00     0.086 C 
HETATM   18  C11 UNL     1       3.747  -1.761  13.194  1.00  0.00     0.049 C 
HETATM   19  C12 UNL     1       2.447  -1.004  13.362  1.00  0.00    -0.075 C 
HETATM   20  C13 UNL     1       2.499  -0.093  14.533  1.00  0.00     0.004 C 
HETATM   21  C22 UNL     1       1.786  -0.538  12.131  1.00  0.00     0.016 C 
HETATM   22  C14 UNL     1       3.437   0.987  14.639  1.00  0.00     0.009 C 
HETATM   23  C15 UNL     1       4.580   1.224  13.725  1.00  0.00    -0.039 C 
HETATM   24  C16 UNL     1       5.428  -0.013  13.425  1.00  0.00     0.054 C 
HETATM   25  C17 UNL     1       4.326   2.094  12.550  1.00  0.00     0.024 C 
HETATM   26  C19 UNL     1       2.985   2.320  12.013  1.00  0.00    -0.001 C 
HETATM   27  C20 UNL     1       2.168   1.380  11.292  1.00  0.00     0.011 C 
HETATM   28  C21 UNL     1       1.070   0.769  12.180  1.00  0.00     0.017 C 
HETATM   29  C23 UNL     1       2.582  -0.004  10.997  1.00  0.00     0.017 C 
BRANCH  25  30
HETATM   30  S1  UNL     1       5.528   1.781  11.188  1.00  0.00    -0.013 SA
BRANCH  30  31
HETATM   31  N5  UNL     1       5.109   2.745   9.780  1.00  0.00    -0.302 N 
HETATM   32  C18 UNL     1       5.780   3.803   9.521  1.00  0.00     0.207 C 
HETATM   33  N6  UNL     1       5.509   4.640   8.405  1.00  0.00    -0.066 NA
HETATM   34  N7  UNL     1       6.846   4.170  10.378  1.00  0.00    -0.066 NA
ATOM     35  H5  UNL     1       4.337   2.464   9.175  1.00  0.00     0.176 HD
ENDBRANCH  30  31
ENDBRANCH  25  30
ENDBRANCH   9  17
BRANCH   1  36
HETATM   36  C4  UNL     1       4.198  -8.017  17.980  1.00  0.00     0.047 C 
BRANCH  36  37
HETATM   37  C3  UNL     1       5.409  -8.658  17.351  1.00  0.00     0.022 C 
BRANCH  37  38
HETATM   38  C2  UNL     1       6.136  -9.580  18.278  1.00  0.00     0.121 C 
BRANCH  38  39
HETATM   39  N2  UNL     1       7.341  -9.058  18.813  1.00  0.00    -0.380 N 
ATOM     40  H2  UNL     1       7.354  -8.114  19.200  1.00  0.00     0.160 HD
BRANCH  39  41
HETATM   41  C1  UNL     1       8.525  -9.830  18.817  1.00  0.00     0.074 C 
HETATM   42  N1  UNL     1       9.078 -10.114  19.959  1.00  0.00    -0.389 N 
ATOM     43  H12 UNL     1       8.628  -9.765  20.806  1.00  0.00     0.157 HD
ATOM     44  H11 UNL     1       9.933 -10.671  19.962  1.00  0.00     0.157 HD
BRANCH  41  45
HETATM   45  C29 UNL     1       9.179 -10.336  17.588  1.00  0.00     0.052 A 
HETATM   46  C30 UNL     1       8.594 -11.669  17.114  1.00  0.00     0.013 A 
HETATM   47  C31 UNL     1       9.998 -11.561  17.592  1.00  0.00     0.013 A 
ENDBRANCH  41  45
ENDBRANCH  39  41
ENDBRANCH  38  39
ENDBRANCH  37  38
ENDBRANCH  36  37
ENDBRANCH   1  36
TORSDOF 9
ENDMDL
MODEL 3
REMARK VINA RESULT: -9.803856778      1.901      2.982
REMARK  9 active torsions:
REMARK  status: ('A' for Active; 'I' for Inactive)
REMARK    1  A    between atoms: C1_4  and  N2_5 
REMARK    2  A    between atoms: C1_4  and  C29_45 
REMARK    3  A    between atoms: N2_5  and  C2_7 
REMARK    4  A    between atoms: C2_7  and  C3_8 
REMARK    5  A    between atoms: C3_8  and  C4_9 
REMARK    6  A    between atoms: C4_9  and  C5_10 
REMARK       I    between atoms: N4_17  and  C9_18 
REMARK    7  A    between atoms: C9_18  and  C10_20 
REMARK    8  A    between atoms: C17_27  and  S1_28 
REMARK    9  A    between atoms: S1_28  and  N5_29 
ROOT
HETATM    1  C5  UNL     1       4.086  -6.543  17.740  1.00  0.00     0.314 C 
HETATM    2  C6  UNL     1       5.241  -6.015  18.518  1.00  0.00     0.251 C 
HETATM    3  O1  UNL     1       5.302  -6.394  19.745  1.00  0.00    -0.271 OA
HETATM    4  N3  UNL     1       6.263  -5.154  18.061  1.00  0.00    -0.351 N 
ATOM      5  H3  UNL     1       7.162  -5.257  18.532  1.00  0.00     0.163 HD
HETATM    6  C7  UNL     1       6.224  -4.189  17.065  1.00  0.00     0.127 C 
HETATM    7  C8  UNL     1       6.697  -4.457  15.687  1.00  0.00     0.153 C 
HETATM    8  N4  UNL     1       5.779  -3.360  15.331  1.00  0.00    -0.341 N 
HETATM    9  C9  UNL     1       5.827  -2.317  14.411  1.00  0.00     0.225 C 
HETATM   10  O2  UNL     1       6.907  -2.274  13.695  1.00  0.00    -0.273 OA
HETATM   11  C24 UNL     1       4.931  -3.911  16.363  1.00  0.00     0.145 C 
HETATM   12  C25 UNL     1       4.124  -5.005  15.870  1.00  0.00     0.248 C 
HETATM   13  C26 UNL     1       2.652  -4.769  16.253  1.00  0.00     0.040 C 
HETATM   14  C27 UNL     1       2.035  -6.147  15.997  1.00  0.00     0.032 C 
HETATM   15  C28 UNL     1       3.220  -6.983  15.571  1.00  0.00     0.274 C 
HETATM   16  N8  UNL     1       4.287  -6.340  16.327  1.00  0.00     0.108 N 
ENDROOT
BRANCH   9  17
HETATM   17  C10 UNL     1       4.853  -1.270  14.126  1.00  0.00     0.086 C 
HETATM   18  C11 UNL     1       3.744  -1.800  13.245  1.00  0.00     0.049 C 
HETATM   19  C12 UNL     1       2.447  -1.033  13.389  1.00  0.00    -0.075 C 
HETATM   20  C13 UNL     1       2.495  -0.102  14.544  1.00  0.00     0.004 C 
HETATM   21  C22 UNL     1       1.800  -0.583  12.145  1.00  0.00     0.016 C 
HETATM   22  C14 UNL     1       3.439   0.974  14.641  1.00  0.00     0.009 C 
HETATM   23  C15 UNL     1       4.591   1.188  13.733  1.00  0.00    -0.039 C 
HETATM   24  C16 UNL     1       5.434  -0.060  13.461  1.00  0.00     0.054 C 
HETATM   25  C17 UNL     1       4.353   2.040  12.540  1.00  0.00     0.024 C 
HETATM   26  C19 UNL     1       3.018   2.265  11.989  1.00  0.00    -0.001 C 
HETATM   27  C20 UNL     1       2.202   1.317  11.276  1.00  0.00     0.011 C 
HETATM   28  C21 UNL     1       1.092   0.728  12.165  1.00  0.00     0.017 C 
HETATM   29  C23 UNL     1       2.609  -0.074  11.009  1.00  0.00     0.017 C 
BRANCH  25  30
HETATM   30  S1  UNL     1       5.565   1.696  11.195  1.00  0.00    -0.013 SA
BRANCH  30  31
HETATM   31  N5  UNL     1       5.182   2.661   9.778  1.00  0.00    -0.302 N 
HETATM   32  C18 UNL     1       5.808   3.759   9.579  1.00  0.00     0.207 C 
HETATM   33  N6  UNL     1       5.562   4.600   8.460  1.00  0.00    -0.066 NA
HETATM   34  N7  UNL     1       6.795   4.169  10.508  1.00  0.00    -0.066 NA
ATOM     35  H5  UNL     1       4.468   2.349   9.120  1.00  0.00     0.176 HD
ENDBRANCH  30  31
ENDBRANCH  25  30
ENDBRANCH   9  17
BRANCH   1  36
HETATM   36  C4  UNL     1       4.078  -8.041  18.024  1.00  0.00     0.047 C 
BRANCH  36  37
HETATM   37  C3  UNL     1       5.408  -8.644  17.648  1.00  0.00     0.022 C 
BRANCH  37  38
HETATM   38  C2  UNL     1       5.298 -10.054  17.160  1.00  0.00     0.121 C 
BRANCH  38  39
HETATM   39  N2  UNL     1       5.311 -10.198  15.749  1.00  0.00    -0.380 N 
ATOM     40  H2  UNL     1       6.159  -9.976  15.228  1.00  0.00     0.160 HD
BRANCH  39  41
HETATM   41  C1  UNL     1       4.164 -10.646  15.056  1.00  0.00     0.074 C 
HETATM   42  N1  UNL     1       3.966 -10.224  13.842  1.00  0.00    -0.389 N 
ATOM     43  H12 UNL     1       4.654  -9.586  13.443  1.00  0.00     0.157 HD
ATOM     44  H11 UNL     1       3.138 -10.548  13.343  1.00  0.00     0.157 HD
BRANCH  41  45
HETATM   45  C29 UNL     1       3.164 -11.573  15.637  1.00  0.00     0.052 A 
HETATM   46  C30 UNL     1       3.611 -13.036  15.576  1.00  0.00     0.013 A 
HETATM   47  C31 UNL     1       2.435 -12.548  14.807  1.00  0.00     0.013 A 
ENDBRANCH  41  45
ENDBRANCH  39  41
ENDBRANCH  38  39
ENDBRANCH  37  38
ENDBRANCH  36  37
ENDBRANCH   1  36
TORSDOF 9
ENDMDL
MODEL 4
REMARK VINA RESULT: -9.743548271      1.370      2.184
REMARK  9 active torsions:
REMARK  status: ('A' for Active; 'I' for Inactive)
REMARK    1  A    between atoms: C1_4  and  N2_5 
REMARK    2  A    between atoms: C1_4  and  C29_45 
REMARK    3  A    between atoms: N2_5  and  C2_7 
REMARK    4  A    between atoms: C2_7  and  C3_8 
REMARK    5  A    between atoms: C3_8  and  C4_9 
REMARK    6  A    between atoms: C4_9  and  C5_10 
REMARK       I    between atoms: N4_17  and  C9_18 
REMARK    7  A    between atoms: C9_18  and  C10_20 
REMARK    8  A    between atoms: C17_27  and  S1_28 
REMARK    9  A    between atoms: S1_28  and  N5_29 
ROOT
HETATM    1  C5  UNL     1       4.649  -6.284  17.705  1.00  0.00     0.314 C 
HETATM    2  C6  UNL     1       5.902  -5.704  18.263  1.00  0.00     0.251 C 
HETATM    3  O1  UNL     1       6.172  -6.033  19.476  1.00  0.00    -0.271 OA
HETATM    4  N3  UNL     1       6.813  -4.843  17.614  1.00  0.00    -0.351 N 
ATOM      5  H3  UNL     1       7.779  -4.909  17.934  1.00  0.00     0.163 HD
HETATM    6  C7  UNL     1       6.588  -3.919  16.603  1.00  0.00     0.127 C 
HETATM    7  C8  UNL     1       6.835  -4.232  15.177  1.00  0.00     0.153 C 
HETATM    8  N4  UNL     1       5.844  -3.167  14.938  1.00  0.00    -0.341 N 
HETATM    9  C9  UNL     1       5.714  -2.161  13.985  1.00  0.00     0.225 C 
HETATM   10  O2  UNL     1       6.661  -2.126  13.100  1.00  0.00    -0.273 OA
HETATM   11  C24 UNL     1       5.191  -3.694  16.114  1.00  0.00     0.145 C 
HETATM   12  C25 UNL     1       4.342  -4.822  15.800  1.00  0.00     0.248 C 
HETATM   13  C26 UNL     1       2.946  -4.598  16.412  1.00  0.00     0.040 C 
HETATM   14  C27 UNL     1       2.331  -5.997  16.310  1.00  0.00     0.032 C 
HETATM   15  C28 UNL     1       3.451  -6.826  15.725  1.00  0.00     0.274 C 
HETATM   16  N8  UNL     1       4.610  -6.134  16.272  1.00  0.00     0.108 N 
ENDROOT
BRANCH   9  17
HETATM   17  C10 UNL     1       4.680  -1.145  13.827  1.00  0.00     0.086 C 
HETATM   18  C11 UNL     1       3.511  -1.693  13.041  1.00  0.00     0.049 C 
HETATM   19  C12 UNL     1       2.207  -0.981  13.331  1.00  0.00    -0.075 C 
HETATM   20  C13 UNL     1       2.334  -0.080  14.505  1.00  0.00     0.004 C 
HETATM   21  C22 UNL     1       1.428  -0.523  12.169  1.00  0.00     0.016 C 
HETATM   22  C14 UNL     1       3.243   1.028  14.543  1.00  0.00     0.009 C 
HETATM   23  C15 UNL     1       4.294   1.311  13.536  1.00  0.00    -0.039 C 
HETATM   24  C16 UNL     1       5.151   0.104  13.147  1.00  0.00     0.054 C 
HETATM   25  C17 UNL     1       3.911   2.185  12.398  1.00  0.00     0.024 C 
HETATM   26  C19 UNL     1       2.523   2.373  11.984  1.00  0.00    -0.001 C 
HETATM   27  C20 UNL     1       1.675   1.414  11.324  1.00  0.00     0.011 C 
HETATM   28  C21 UNL     1       0.678   0.760  12.297  1.00  0.00     0.017 C 
HETATM   29  C23 UNL     1       2.104   0.048  10.977  1.00  0.00     0.017 C 
BRANCH  25  30
HETATM   30  S1  UNL     1       4.999   1.924  10.933  1.00  0.00    -0.013 SA
BRANCH  30  31
HETATM   31  N5  UNL     1       6.551   2.708  11.188  1.00  0.00    -0.302 N 
HETATM   32  C18 UNL     1       6.864   3.725  10.478  1.00  0.00     0.207 C 
HETATM   33  N6  UNL     1       8.096   4.419  10.617  1.00  0.00    -0.066 NA
HETATM   34  N7  UNL     1       5.949   4.194   9.503  1.00  0.00    -0.066 NA
ATOM     35  H5  UNL     1       7.196   2.356  11.895  1.00  0.00     0.176 HD
ENDBRANCH  30  31
ENDBRANCH  25  30
ENDBRANCH   9  17
BRANCH   1  36
HETATM   36  C4  UNL     1       4.725  -7.770  18.040  1.00  0.00     0.047 C 
BRANCH  36  37
HETATM   37  C3  UNL     1       6.044  -8.336  17.576  1.00  0.00     0.022 C 
BRANCH  37  38
HETATM   38  C2  UNL     1       6.447  -9.571  18.317  1.00  0.00     0.121 C 
BRANCH  38  39
HETATM   39  N2  UNL     1       5.688 -10.728  18.003  1.00  0.00    -0.380 N 
ATOM     40  H2  UNL     1       5.035 -11.104  18.691  1.00  0.00     0.160 HD
BRANCH  39  41
HETATM   41  C1  UNL     1       5.823 -11.365  16.749  1.00  0.00     0.074 C 
HETATM   42  N1  UNL     1       7.006 -11.756  16.375  1.00  0.00    -0.389 N 
ATOM     43  H12 UNL     1       7.786 -11.586  17.010  1.00  0.00     0.157 HD
ATOM     44  H11 UNL     1       7.103 -12.216  15.470  1.00  0.00     0.157 HD
BRANCH  41  45
HETATM   45  C29 UNL     1       4.690 -11.612  15.827  1.00  0.00     0.052 A 
HETATM   46  C30 UNL     1       4.374 -10.403  14.944  1.00  0.00     0.013 A 
HETATM   47  C31 UNL     1       3.409 -10.897  15.962  1.00  0.00     0.013 A 
ENDBRANCH  41  45
ENDBRANCH  39  41
ENDBRANCH  38  39
ENDBRANCH  37  38
ENDBRANCH  36  37
ENDBRANCH   1  36
TORSDOF 9
ENDMDL
MODEL 5
REMARK VINA RESULT: -9.202814762      2.573      3.997
REMARK  9 active torsions:
REMARK  status: ('A' for Active; 'I' for Inactive)
REMARK    1  A    between atoms: C1_4  and  N2_5 
REMARK    2  A    between atoms: C1_4  and  C29_45 
REMARK    3  A    between atoms: N2_5  and  C2_7 
REMARK    4  A    between atoms: C2_7  and  C3_8 
REMARK    5  A    between atoms: C3_8  and  C4_9 
REMARK    6  A    between atoms: C4_9  and  C5_10 
REMARK       I    between atoms: N4_17  and  C9_18 
REMARK    7  A    between atoms: C9_18  and  C10_20 
REMARK    8  A    between atoms: C17_27  and  S1_28 
REMARK    9  A    between atoms: S1_28  and  N5_29 
ROOT
HETATM    1  C5  UNL     1       4.123  -6.702  17.570  1.00  0.00     0.314 C 
HETATM    2  C6  UNL     1       5.253  -6.177  18.386  1.00  0.00     0.251 C 
HETATM    3  O1  UNL     1       5.304  -6.602  19.599  1.00  0.00    -0.271 OA
HETATM    4  N3  UNL     1       6.259  -5.275  17.980  1.00  0.00    -0.351 N 
ATOM      5  H3  UNL     1       7.153  -5.374  18.462  1.00  0.00     0.163 HD
HETATM    6  C7  UNL     1       6.212  -4.272  17.021  1.00  0.00     0.127 C 
HETATM    7  C8  UNL     1       6.712  -4.475  15.642  1.00  0.00     0.153 C 
HETATM    8  N4  UNL     1       5.773  -3.387  15.314  1.00  0.00    -0.341 N 
HETATM    9  C9  UNL     1       5.810  -2.308  14.436  1.00  0.00     0.225 C 
HETATM   10  O2  UNL     1       6.898  -2.211  13.740  1.00  0.00    -0.273 OA
HETATM   11  C24 UNL     1       4.924  -3.999  16.310  1.00  0.00     0.145 C 
HETATM   12  C25 UNL     1       4.152  -5.092  15.762  1.00  0.00     0.248 C 
HETATM   13  C26 UNL     1       2.668  -4.906  16.130  1.00  0.00     0.040 C 
HETATM   14  C27 UNL     1       2.089  -6.288  15.810  1.00  0.00     0.032 C 
HETATM   15  C28 UNL     1       3.301  -7.077  15.371  1.00  0.00     0.274 C 
HETATM   16  N8  UNL     1       4.340  -6.439  16.170  1.00  0.00     0.108 N 
ENDROOT
BRANCH   9  17
HETATM   17  C10 UNL     1       4.814  -1.275  14.176  1.00  0.00     0.086 C 
HETATM   18  C11 UNL     1       3.698  -1.816  13.311  1.00  0.00     0.049 C 
HETATM   19  C12 UNL     1       2.392  -1.070  13.483  1.00  0.00    -0.075 C 
HETATM   20  C13 UNL     1       2.446  -0.147  14.644  1.00  0.00     0.004 C 
HETATM   21  C22 UNL     1       1.717  -0.622  12.254  1.00  0.00     0.016 C 
HETATM   22  C14 UNL     1       3.374   0.943  14.732  1.00  0.00     0.009 C 
HETATM   23  C15 UNL     1       4.507   1.182  13.806  1.00  0.00    -0.039 C 
HETATM   24  C16 UNL     1       5.364  -0.050  13.511  1.00  0.00     0.054 C 
HETATM   25  C17 UNL     1       4.234   2.038  12.625  1.00  0.00     0.024 C 
HETATM   26  C19 UNL     1       2.887   2.246  12.098  1.00  0.00    -0.001 C 
HETATM   27  C20 UNL     1       2.073   1.291  11.392  1.00  0.00     0.011 C 
HETATM   28  C21 UNL     1       0.988   0.678  12.296  1.00  0.00     0.017 C 
HETATM   29  C23 UNL     1       2.498  -0.092  11.108  1.00  0.00     0.017 C 
BRANCH  25  30
HETATM   30  S1  UNL     1       5.428   1.724  11.256  1.00  0.00    -0.013 SA
BRANCH  30  31
HETATM   31  N5  UNL     1       6.396   3.159  10.959  1.00  0.00    -0.302 N 
HETATM   32  C18 UNL     1       7.440   3.370  11.669  1.00  0.00     0.207 C 
HETATM   33  N6  UNL     1       8.279   4.503  11.497  1.00  0.00    -0.066 NA
HETATM   34  N7  UNL     1       7.788   2.438  12.677  1.00  0.00    -0.066 NA
ATOM     35  H5  UNL     1       6.129   3.819  10.228  1.00  0.00     0.176 HD
ENDBRANCH  30  31
ENDBRANCH  25  30
ENDBRANCH   9  17
BRANCH   1  36
HETATM   36  C4  UNL     1       4.147  -8.210  17.796  1.00  0.00     0.047 C 
BRANCH  36  37
HETATM   37  C3  UNL     1       2.793  -8.683  18.261  1.00  0.00     0.022 C 
BRANCH  37  38
HETATM   38  C2  UNL     1       2.605 -10.160  18.119  1.00  0.00     0.121 C 
BRANCH  38  39
HETATM   39  N2  UNL     1       1.867 -10.770  19.165  1.00  0.00    -0.380 N 
ATOM     40  H2  UNL     1       2.361 -11.267  19.906  1.00  0.00     0.160 HD
BRANCH  39  41
HETATM   41  C1  UNL     1       0.457 -10.696  19.195  1.00  0.00     0.074 C 
HETATM   42  N1  UNL     1      -0.222 -11.430  18.364  1.00  0.00    -0.389 N 
ATOM     43  H12 UNL     1       0.299 -12.030  17.724  1.00  0.00     0.157 HD
ATOM     44  H11 UNL     1      -1.241 -11.376  18.386  1.00  0.00     0.157 HD
BRANCH  41  45
HETATM   45  C29 UNL     1      -0.300  -9.824  20.123  1.00  0.00     0.052 A 
HETATM   46  C30 UNL     1      -0.588 -10.500  21.466  1.00  0.00     0.013 A 
HETATM   47  C31 UNL     1      -1.683 -10.134  20.528  1.00  0.00     0.013 A 
ENDBRANCH  41  45
ENDBRANCH  39  41
ENDBRANCH  38  39
ENDBRANCH  37  38
ENDBRANCH  36  37
ENDBRANCH   1  36
TORSDOF 9
ENDMDL
