MODEL 1
REMARK VINA RESULT: -9.474877155      0.000      0.000
REMARK  10 active torsions:
REMARK  status: ('A' for Active; 'I' for Inactive)
REMARK    1  A    between atoms: C2_2  and  N1_3 
REMARK       I    between atoms: C3_5  and  N3_7 
REMARK    2  A    between atoms: C7_11  and  C8_12 
REMARK    3  A    between atoms: C8_12  and  N4_13 
REMARK    4  A    between atoms: C8_12  and  C31_46 
REMARK       I    between atoms: N4_13  and  C9_15 
REMARK    5  A    between atoms: C9_15  and  C10_17 
REMARK    6  A    between atoms: C10_17  and  C11_18 
REMARK    7  A    between atoms: C10_17  and  N5_22 
REMARK    8  A    between atoms: C11_18  and  C12_19 
REMARK       I    between atoms: N5_22  and  C15_24 
REMARK    9  A    between atoms: C15_24  and  C16_26 
REMARK   10  A    between atoms: C16_26  and  N6_27 
ROOT
HETATM    1  C10 UNL     1       7.138  -5.661  16.991  1.00  0.00     0.177 C 
ENDROOT
BRANCH   1   2
HETATM    2  C9  UNL     1       6.299  -6.615  17.735  1.00  0.00     0.241 C 
HETATM    3  N4  UNL     1       5.610  -7.733  17.235  1.00  0.00    -0.346 N 
ATOM      4  H4  UNL     1       5.653  -7.949  16.239  1.00  0.00     0.163 HD
HETATM    5  O1  UNL     1       6.214  -6.354  19.004  1.00  0.00    -0.271 OA
BRANCH   3   6
HETATM    6  C8  UNL     1       4.825  -8.598  18.138  1.00  0.00     0.179 C 
BRANCH   6   7
HETATM    7  C7  UNL     1       5.153 -10.050  17.806  1.00  0.00     0.035 C 
HETATM    8  C6  UNL     1       5.765 -10.136  16.423  1.00  0.00     0.010 C 
HETATM    9  C5  UNL     1       5.858 -11.577  16.003  1.00  0.00     0.020 C 
HETATM   10  C4  UNL     1       6.229 -12.447  17.167  1.00  0.00     0.125 C 
HETATM   11  N3  UNL     1       6.918 -11.651  18.151  1.00  0.00    -0.355 N 
HETATM   12  C3  UNL     1       8.263 -11.843  18.523  1.00  0.00     0.186 C 
HETATM   13  C32 UNL     1       6.137 -10.577  18.801  1.00  0.00     0.132 C 
HETATM   14  N1  UNL     1       9.257 -11.760  17.707  1.00  0.00    -0.365 N 
HETATM   15  N2  UNL     1       8.549 -12.155  19.895  1.00  0.00    -0.064 NA
ATOM     16  H1  UNL     1       9.074 -11.540  16.729  1.00  0.00     0.162 HD
BRANCH  14  17
HETATM   17  C2  UNL     1      10.626 -11.969  18.135  1.00  0.00     0.118 C 
HETATM   18  C1  UNL     1      11.031 -13.411  17.946  1.00  0.00     0.026 C 
ENDBRANCH  14  17
ENDBRANCH   6   7
BRANCH   6  19
HETATM   19  C31 UNL     1       3.395  -8.339  17.992  1.00  0.00     0.254 C 
HETATM   20  N7  UNL     1       2.858  -7.380  17.094  1.00  0.00    -0.060 NA
HETATM   21  O4  UNL     1       2.510  -8.969  18.672  1.00  0.00    -0.275 OA
ENDBRANCH   6  19
ENDBRANCH   3   6
ENDBRANCH   1   2
BRANCH   1  22
HETATM   22  C11 UNL     1       8.095  -4.885  17.831  1.00  0.00     0.038 C 
BRANCH  22  23
HETATM   23  C12 UNL     1       9.521  -5.245  17.790  1.00  0.00    -0.020 C 
HETATM   24  C13 UNL     1       9.724  -6.442  16.871  1.00  0.00     0.009 C 
HETATM   25  C14 UNL     1      10.235  -4.078  17.059  1.00  0.00     0.009 C 
ENDBRANCH  22  23
ENDBRANCH   1  22
BRANCH   1  26
HETATM   26  N5  UNL     1       6.313  -4.670  16.288  1.00  0.00    -0.344 N 
HETATM   27  C15 UNL     1       6.726  -4.043  15.102  1.00  0.00     0.282 C 
HETATM   28  O2  UNL     1       7.855  -4.338  14.606  1.00  0.00    -0.268 OA
ATOM     29  H5  UNL     1       5.402  -4.428  16.677  1.00  0.00     0.163 HD
BRANCH  27  30
HETATM   30  C16 UNL     1       5.901  -3.034  14.387  1.00  0.00     0.306 C 
HETATM   31  C17 UNL     1       6.139  -1.636  14.900  1.00  0.00     0.086 C 
HETATM   32  C18 UNL     1       4.800  -1.221  15.395  1.00  0.00     0.025 C 
HETATM   33  C19 UNL     1       4.479   0.230  15.208  1.00  0.00     0.009 C 
HETATM   34  C29 UNL     1       3.859  -2.154  14.748  1.00  0.00     0.065 C 
HETATM   35  C20 UNL     1       4.011   0.611  13.852  1.00  0.00     0.010 C 
HETATM   36  C21 UNL     1       2.979  -0.302  13.248  1.00  0.00    -0.038 C 
HETATM   37  C22 UNL     1       1.634  -0.019  13.823  1.00  0.00     0.010 C 
HETATM   38  C27 UNL     1       3.071  -0.082  11.748  1.00  0.00     0.010 C 
HETATM   39  C28 UNL     1       3.271  -1.769  13.452  1.00  0.00     0.047 C 
HETATM   40  C23 UNL     1       0.733   0.857  13.011  1.00  0.00     0.001 C 
HETATM   41  C24 UNL     1       0.450   0.351  11.631  1.00  0.00     0.000 C 
HETATM   42  C25 UNL     1       1.302   1.163  10.670  1.00  0.00     0.000 C 
HETATM   43  C26 UNL     1       2.680   1.293  11.302  1.00  0.00     0.001 C 
HETATM   44  C30 UNL     1       2.798  -2.571  15.778  1.00  0.00     0.046 C 
HETATM   45  O3  UNL     1       4.588  -3.333  14.535  1.00  0.00    -0.336 OA
BRANCH  30  46
HETATM   46  N6  UNL     1       6.250  -3.113  12.963  1.00  0.00    -0.037 N 
ATOM     47  H63 UNL     1       7.025  -3.750  12.777  1.00  0.00     0.278 HD
ATOM     48  H62 UNL     1       5.545  -3.597  12.407  1.00  0.00     0.278 HD
ATOM     49  H61 UNL     1       6.428  -2.162  12.641  1.00  0.00     0.278 HD
ENDBRANCH  30  46
ENDBRANCH  27  30
ENDBRANCH   1  26
TORSDOF 10
ENDMDL
MODEL 2
REMARK VINA RESULT: -9.378947911      5.922     13.207
REMARK  10 active torsions:
REMARK  status: ('A' for Active; 'I' for Inactive)
REMARK    1  A    between atoms: C2_2  and  N1_3 
REMARK       I    between atoms: C3_5  and  N3_7 
REMARK    2  A    between atoms: C7_11  and  C8_12 
REMARK    3  A    between atoms: C8_12  and  N4_13 
REMARK    4  A    between atoms: C8_12  and  C31_46 
REMARK       I    between atoms: N4_13  and  C9_15 
REMARK    5  A    between atoms: C9_15  and  C10_17 
REMARK    6  A    between atoms: C10_17  and  C11_18 
REMARK    7  A    between atoms: C10_17  and  N5_22 
REMARK    8  A    between atoms: C11_18  and  C12_19 
REMARK       I    between atoms: N5_22  and  C15_24 
REMARK    9  A    between atoms: C15_24  and  C16_26 
REMARK   10  A    between atoms: C16_26  and  N6_27 
ROOT
HETATM    1  C10 UNL     1       3.276   2.850  10.799  1.00  0.00     0.177 C 
ENDROOT
BRANCH   1   2
HETATM    2  C9  UNL     1       4.583   3.484  10.557  1.00  0.00     0.241 C 
HETATM    3  N4  UNL     1       5.640   3.009   9.763  1.00  0.00    -0.346 N 
ATOM      4  H4  UNL     1       5.549   2.114   9.284  1.00  0.00     0.163 HD
HETATM    5  O1  UNL     1       4.732   4.620  11.170  1.00  0.00    -0.271 OA
BRANCH   3   6
HETATM    6  C8  UNL     1       6.882   3.793   9.618  1.00  0.00     0.179 C 
BRANCH   6   7
HETATM    7  C7  UNL     1       7.511   3.439   8.275  1.00  0.00     0.035 C 
HETATM    8  C6  UNL     1       6.815   2.231   7.684  1.00  0.00     0.010 C 
HETATM    9  C5  UNL     1       7.589   1.738   6.492  1.00  0.00     0.020 C 
HETATM   10  C4  UNL     1       8.140   2.888   5.703  1.00  0.00     0.125 C 
HETATM   11  N3  UNL     1       7.339   4.060   5.954  1.00  0.00    -0.355 N 
HETATM   12  C3  UNL     1       6.566   4.715   4.976  1.00  0.00     0.186 C 
HETATM   13  C32 UNL     1       7.356   4.591   7.334  1.00  0.00     0.132 C 
HETATM   14  N1  UNL     1       5.608   4.156   4.320  1.00  0.00    -0.365 N 
HETATM   15  N2  UNL     1       6.863   6.089   4.685  1.00  0.00    -0.064 NA
ATOM     16  H1  UNL     1       5.382   3.181   4.513  1.00  0.00     0.162 HD
BRANCH  14  17
HETATM   17  C2  UNL     1       4.840   4.870   3.319  1.00  0.00     0.118 C 
HETATM   18  C1  UNL     1       3.375   4.892   3.682  1.00  0.00     0.026 C 
ENDBRANCH  14  17
ENDBRANCH   6   7
BRANCH   6  19
HETATM   19  C31 UNL     1       7.804   3.515  10.716  1.00  0.00     0.254 C 
HETATM   20  N7  UNL     1       8.302   2.219  11.014  1.00  0.00    -0.060 NA
HETATM   21  O4  UNL     1       8.239   4.432  11.498  1.00  0.00    -0.275 OA
ENDBRANCH   6  19
ENDBRANCH   3   6
ENDBRANCH   1   2
BRANCH   1  22
HETATM   22  C11 UNL     1       2.179   3.797  11.152  1.00  0.00     0.038 C 
BRANCH  22  23
HETATM   23  C12 UNL     1       0.947   3.780  10.349  1.00  0.00    -0.020 C 
HETATM   24  C13 UNL     1       1.220   3.126   9.002  1.00  0.00     0.009 C 
HETATM   25  C14 UNL     1      -0.015   2.793  11.064  1.00  0.00     0.009 C 
ENDBRANCH  22  23
ENDBRANCH   1  22
BRANCH   1  26
HETATM   26  N5  UNL     1       3.355   1.885  11.903  1.00  0.00    -0.344 N 
HETATM   27  C15 UNL     1       2.876   0.569  11.796  1.00  0.00     0.282 C 
HETATM   28  O2  UNL     1       2.354   0.187  10.706  1.00  0.00    -0.268 OA
ATOM     29  H5  UNL     1       3.776   2.181  12.782  1.00  0.00     0.163 HD
BRANCH  27  30
HETATM   30  C16 UNL     1       2.946  -0.413  12.909  1.00  0.00     0.306 C 
HETATM   31  C17 UNL     1       3.631   0.154  14.127  1.00  0.00     0.086 C 
HETATM   32  C18 UNL     1       4.801  -0.746  14.311  1.00  0.00     0.025 C 
HETATM   33  C19 UNL     1       5.186  -0.998  15.736  1.00  0.00     0.009 C 
HETATM   34  C29 UNL     1       4.466  -1.954  13.533  1.00  0.00     0.065 C 
HETATM   35  C20 UNL     1       4.381  -2.027  16.442  1.00  0.00     0.010 C 
HETATM   36  C21 UNL     1       4.133  -3.293  15.667  1.00  0.00    -0.038 C 
HETATM   37  C22 UNL     1       5.337  -4.169  15.700  1.00  0.00     0.010 C 
HETATM   38  C27 UNL     1       2.895  -3.914  16.290  1.00  0.00     0.010 C 
HETATM   39  C28 UNL     1       3.772  -3.057  14.219  1.00  0.00     0.047 C 
HETATM   40  C23 UNL     1       5.327  -5.275  16.708  1.00  0.00     0.001 C 
HETATM   41  C24 UNL     1       4.177  -6.226  16.579  1.00  0.00     0.000 C 
HETATM   42  C25 UNL     1       3.181  -5.876  17.671  1.00  0.00     0.000 C 
HETATM   43  C26 UNL     1       3.078  -4.359  17.708  1.00  0.00     0.001 C 
HETATM   44  C30 UNL     1       5.728  -2.420  12.789  1.00  0.00     0.046 C 
HETATM   45  O3  UNL     1       3.624  -1.514  12.503  1.00  0.00    -0.336 OA
BRANCH  30  46
HETATM   46  N6  UNL     1       1.568  -0.798  13.240  1.00  0.00    -0.037 N 
ATOM     47  H63 UNL     1       0.912  -0.019  13.182  1.00  0.00     0.278 HD
ATOM     48  H62 UNL     1       1.137  -1.389  12.529  1.00  0.00     0.278 HD
ATOM     49  H61 UNL     1       1.588  -1.234  14.162  1.00  0.00     0.278 HD
ENDBRANCH  30  46
ENDBRANCH  27  30
ENDBRANCH   1  26
TORSDOF 10
ENDMDL
MODEL 3
REMARK VINA RESULT: -9.338230380      1.203      1.355
REMARK  10 active torsions:
REMARK  status: ('A' for Active; 'I' for Inactive)
REMARK    1  A    between atoms: C2_2  and  N1_3 
REMARK       I    between atoms: C3_5  and  N3_7 
REMARK    2  A    between atoms: C7_11  and  C8_12 
REMARK    3  A    between atoms: C8_12  and  N4_13 
REMARK    4  A    between atoms: C8_12  and  C31_46 
REMARK       I    between atoms: N4_13  and  C9_15 
REMARK    5  A    between atoms: C9_15  and  C10_17 
REMARK    6  A    between atoms: C10_17  and  C11_18 
REMARK    7  A    between atoms: C10_17  and  N5_22 
REMARK    8  A    between atoms: C11_18  and  C12_19 
REMARK       I    between atoms: N5_22  and  C15_24 
REMARK    9  A    between atoms: C15_24  and  C16_26 
REMARK   10  A    between atoms: C16_26  and  N6_27 
ROOT
HETATM    1  C10 UNL     1       7.691  -5.681  17.090  1.00  0.00     0.177 C 
ENDROOT
BRANCH   1   2
HETATM    2  C9  UNL     1       6.932  -6.739  17.776  1.00  0.00     0.241 C 
HETATM    3  N4  UNL     1       6.557  -7.997  17.274  1.00  0.00    -0.346 N 
ATOM      4  H4  UNL     1       6.806  -8.254  16.319  1.00  0.00     0.163 HD
HETATM    5  O1  UNL     1       6.587  -6.430  18.989  1.00  0.00    -0.271 OA
BRANCH   3   6
HETATM    6  C8  UNL     1       5.805  -8.948  18.116  1.00  0.00     0.179 C 
BRANCH   6   7
HETATM    7  C7  UNL     1       6.388 -10.340  17.893  1.00  0.00     0.035 C 
HETATM    8  C6  UNL     1       7.725 -10.231  17.190  1.00  0.00     0.010 C 
HETATM    9  C5  UNL     1       8.176 -11.598  16.753  1.00  0.00     0.020 C 
HETATM   10  C4  UNL     1       7.824 -12.628  17.786  1.00  0.00     0.125 C 
HETATM   11  N3  UNL     1       7.694 -11.986  19.069  1.00  0.00    -0.355 N 
HETATM   12  C3  UNL     1       8.537 -12.238  20.169  1.00  0.00     0.186 C 
HETATM   13  C32 UNL     1       6.592 -11.011  19.214  1.00  0.00     0.132 C 
HETATM   14  N1  UNL     1       9.811 -12.045  20.162  1.00  0.00    -0.365 N 
HETATM   15  N2  UNL     1       7.944 -12.744  21.375  1.00  0.00    -0.064 NA
ATOM     16  H1  UNL     1      10.250 -11.686  19.315  1.00  0.00     0.162 HD
BRANCH  14  17
HETATM   17  C2  UNL     1      10.640 -12.323  21.319  1.00  0.00     0.118 C 
HETATM   18  C1  UNL     1      11.140 -11.040  21.938  1.00  0.00     0.026 C 
ENDBRANCH  14  17
ENDBRANCH   6   7
BRANCH   6  19
HETATM   19  C31 UNL     1       4.382  -8.919  17.791  1.00  0.00     0.254 C 
HETATM   20  N7  UNL     1       3.426  -8.157  18.513  1.00  0.00    -0.060 NA
HETATM   21  O4  UNL     1       3.886  -9.587  16.816  1.00  0.00    -0.275 OA
ENDBRANCH   6  19
ENDBRANCH   3   6
ENDBRANCH   1   2
BRANCH   1  22
HETATM   22  C11 UNL     1       8.577  -4.874  17.978  1.00  0.00     0.038 C 
BRANCH  22  23
HETATM   23  C12 UNL     1      10.032  -4.936  17.767  1.00  0.00    -0.020 C 
HETATM   24  C13 UNL     1      10.382  -6.173  16.952  1.00  0.00     0.009 C 
HETATM   25  C14 UNL     1      10.378  -3.750  16.828  1.00  0.00     0.009 C 
ENDBRANCH  22  23
ENDBRANCH   1  22
BRANCH   1  26
HETATM   26  N5  UNL     1       6.790  -4.725  16.433  1.00  0.00    -0.344 N 
HETATM   27  C15 UNL     1       7.054  -4.182  15.165  1.00  0.00     0.282 C 
HETATM   28  O2  UNL     1       8.108  -4.525  14.552  1.00  0.00    -0.268 OA
ATOM     29  H5  UNL     1       5.938  -4.446  16.917  1.00  0.00     0.163 HD
BRANCH  27  30
HETATM   30  C16 UNL     1       6.151  -3.210  14.495  1.00  0.00     0.306 C 
HETATM   31  C17 UNL     1       6.379  -1.797  14.972  1.00  0.00     0.086 C 
HETATM   32  C18 UNL     1       5.063  -1.416  15.552  1.00  0.00     0.025 C 
HETATM   33  C19 UNL     1       4.685   0.021  15.369  1.00  0.00     0.009 C 
HETATM   34  C29 UNL     1       4.111  -2.387  14.982  1.00  0.00     0.065 C 
HETATM   35  C20 UNL     1       4.115   0.368  14.042  1.00  0.00     0.010 C 
HETATM   36  C21 UNL     1       3.074  -0.586  13.521  1.00  0.00    -0.038 C 
HETATM   37  C22 UNL     1       1.763  -0.336  14.183  1.00  0.00     0.010 C 
HETATM   38  C27 UNL     1       3.057  -0.386  12.016  1.00  0.00     0.010 C 
HETATM   39  C28 UNL     1       3.425  -2.040  13.725  1.00  0.00     0.047 C 
HETATM   40  C23 UNL     1       0.781   0.500  13.422  1.00  0.00     0.001 C 
HETATM   41  C24 UNL     1       0.422  -0.035  12.071  1.00  0.00     0.000 C 
HETATM   42  C25 UNL     1       1.182   0.788  11.045  1.00  0.00     0.000 C 
HETATM   43  C26 UNL     1       2.594   0.969  11.580  1.00  0.00     0.001 C 
HETATM   44  C30 UNL     1       3.135  -2.821  16.087  1.00  0.00     0.046 C 
HETATM   45  O3  UNL     1       4.861  -3.546  14.736  1.00  0.00    -0.336 OA
BRANCH  30  46
HETATM   46  N6  UNL     1       6.405  -3.300  13.052  1.00  0.00    -0.037 N 
ATOM     47  H63 UNL     1       6.673  -4.237  12.752  1.00  0.00     0.278 HD
ATOM     48  H62 UNL     1       5.556  -3.219  12.492  1.00  0.00     0.278 HD
ATOM     49  H61 UNL     1       7.103  -2.593  12.822  1.00  0.00     0.278 HD
ENDBRANCH  30  46
ENDBRANCH  27  30
ENDBRANCH   1  26
TORSDOF 10
ENDMDL
MODEL 4
REMARK VINA RESULT: -9.254454262      1.700      2.214
REMARK  10 active torsions:
REMARK  status: ('A' for Active; 'I' for Inactive)
REMARK    1  A    between atoms: C2_2  and  N1_3 
REMARK       I    between atoms: C3_5  and  N3_7 
REMARK    2  A    between atoms: C7_11  and  C8_12 
REMARK    3  A    between atoms: C8_12  and  N4_13 
REMARK    4  A    between atoms: C8_12  and  C31_46 
REMARK       I    between atoms: N4_13  and  C9_15 
REMARK    5  A    between atoms: C9_15  and  C10_17 
REMARK    6  A    between atoms: C10_17  and  C11_18 
REMARK    7  A    between atoms: C10_17  and  N5_22 
REMARK    8  A    between atoms: C11_18  and  C12_19 
REMARK       I    between atoms: N5_22  and  C15_24 
REMARK    9  A    between atoms: C15_24  and  C16_26 
REMARK   10  A    between atoms: C16_26  and  N6_27 
ROOT
HETATM    1  C10 UNL     1       7.500  -4.795  16.092  1.00  0.00     0.177 C 
ENDROOT
BRANCH   1   2
HETATM    2  C9  UNL     1       6.659  -5.394  17.141  1.00  0.00     0.241 C 
HETATM    3  N4  UNL     1       5.414  -6.029  16.992  1.00  0.00    -0.346 N 
ATOM      4  H4  UNL     1       4.991  -6.101  16.067  1.00  0.00     0.163 HD
HETATM    5  O1  UNL     1       7.167  -5.302  18.332  1.00  0.00    -0.271 OA
BRANCH   3   6
HETATM    6  C8  UNL     1       4.714  -6.593  18.163  1.00  0.00     0.179 C 
BRANCH   6   7
HETATM    7  C7  UNL     1       4.439  -8.067  17.885  1.00  0.00     0.035 C 
HETATM    8  C6  UNL     1       4.563  -8.342  16.401  1.00  0.00     0.010 C 
HETATM    9  C5  UNL     1       4.055  -9.726  16.102  1.00  0.00     0.020 C 
HETATM   10  C4  UNL     1       4.440 -10.681  17.193  1.00  0.00     0.125 C 
HETATM   11  N3  UNL     1       5.604 -10.174  17.875  1.00  0.00    -0.355 N 
HETATM   12  C3  UNL     1       6.859 -10.814  17.879  1.00  0.00     0.186 C 
HETATM   13  C32 UNL     1       5.439  -8.905  18.615  1.00  0.00     0.132 C 
HETATM   14  N1  UNL     1       7.546 -11.064  16.818  1.00  0.00    -0.365 N 
HETATM   15  N2  UNL     1       7.411 -11.216  19.142  1.00  0.00    -0.064 NA
ATOM     16  H1  UNL     1       7.171 -10.786  15.911  1.00  0.00     0.162 HD
BRANCH  14  17
HETATM   17  C2  UNL     1       8.834 -11.728  16.871  1.00  0.00     0.118 C 
HETATM   18  C1  UNL     1       8.705 -13.177  16.468  1.00  0.00     0.026 C 
ENDBRANCH  14  17
ENDBRANCH   6   7
BRANCH   6  19
HETATM   19  C31 UNL     1       3.471  -5.870  18.424  1.00  0.00     0.254 C 
HETATM   20  N7  UNL     1       2.965  -4.848  17.578  1.00  0.00    -0.060 NA
HETATM   21  O4  UNL     1       2.738  -6.111  19.446  1.00  0.00    -0.275 OA
ENDBRANCH   6  19
ENDBRANCH   3   6
ENDBRANCH   1   2
BRANCH   1  22
HETATM   22  C11 UNL     1       8.555  -3.868  16.593  1.00  0.00     0.038 C 
BRANCH  22  23
HETATM   23  C12 UNL     1       9.963  -4.175  16.297  1.00  0.00    -0.020 C 
HETATM   24  C13 UNL     1      10.478  -5.222  17.276  1.00  0.00     0.009 C 
HETATM   25  C14 UNL     1       9.963  -4.903  14.927  1.00  0.00     0.009 C 
ENDBRANCH  22  23
ENDBRANCH   1  22
BRANCH   1  26
HETATM   26  N5  UNL     1       6.690  -4.021  15.143  1.00  0.00    -0.344 N 
HETATM   27  C15 UNL     1       5.733  -3.080  15.554  1.00  0.00     0.282 C 
HETATM   28  O2  UNL     1       5.554  -2.879  16.793  1.00  0.00    -0.268 OA
ATOM     29  H5  UNL     1       6.828  -4.173  14.145  1.00  0.00     0.163 HD
BRANCH  27  30
HETATM   30  C16 UNL     1       4.904  -2.296  14.602  1.00  0.00     0.306 C 
HETATM   31  C17 UNL     1       5.684  -1.872  13.383  1.00  0.00     0.086 C 
HETATM   32  C18 UNL     1       5.618  -0.387  13.434  1.00  0.00     0.025 C 
HETATM   33  C19 UNL     1       5.545   0.289  12.100  1.00  0.00     0.009 C 
HETATM   34  C29 UNL     1       4.491  -0.097  14.341  1.00  0.00     0.065 C 
HETATM   35  C20 UNL     1       4.198   0.327  11.476  1.00  0.00     0.010 C 
HETATM   36  C21 UNL     1       3.074   0.719  12.396  1.00  0.00    -0.038 C 
HETATM   37  C22 UNL     1       3.056   2.195  12.595  1.00  0.00     0.010 C 
HETATM   38  C27 UNL     1       1.813   0.163  11.757  1.00  0.00     0.010 C 
HETATM   39  C28 UNL     1       3.148   0.070  13.757  1.00  0.00     0.047 C 
HETATM   40  C23 UNL     1       2.086   2.968  11.757  1.00  0.00     0.001 C 
HETATM   41  C24 UNL     1       0.657   2.553  11.914  1.00  0.00     0.000 C 
HETATM   42  C25 UNL     1       0.296   1.717  10.697  1.00  0.00     0.000 C 
HETATM   43  C26 UNL     1       1.468   0.783  10.439  1.00  0.00     0.001 C 
HETATM   44  C30 UNL     1       4.888   1.074  15.255  1.00  0.00     0.046 C 
HETATM   45  O3  UNL     1       4.427  -1.188  15.219  1.00  0.00    -0.336 OA
BRANCH  30  46
HETATM   46  N6  UNL     1       3.773  -3.144  14.205  1.00  0.00    -0.037 N 
ATOM     47  H63 UNL     1       2.899  -2.626  14.111  1.00  0.00     0.278 HD
ATOM     48  H62 UNL     1       3.839  -3.469  13.239  1.00  0.00     0.278 HD
ATOM     49  H61 UNL     1       3.714  -3.907  14.879  1.00  0.00     0.278 HD
ENDBRANCH  30  46
ENDBRANCH  27  30
ENDBRANCH   1  26
TORSDOF 10
ENDMDL
MODEL 5
REMARK VINA RESULT: -9.250794340      1.501      1.829
REMARK  10 active torsions:
REMARK  status: ('A' for Active; 'I' for Inactive)
REMARK    1  A    between atoms: C2_2  and  N1_3 
REMARK       I    between atoms: C3_5  and  N3_7 
REMARK    2  A    between atoms: C7_11  and  C8_12 
REMARK    3  A    between atoms: C8_12  and  N4_13 
REMARK    4  A    between atoms: C8_12  and  C31_46 
REMARK       I    between atoms: N4_13  and  C9_15 
REMARK    5  A    between atoms: C9_15  and  C10_17 
REMARK    6  A    between atoms: C10_17  and  C11_18 
REMARK    7  A    between atoms: C10_17  and  N5_22 
REMARK    8  A    between atoms: C11_18  and  C12_19 
REMARK       I    between atoms: N5_22  and  C15_24 
REMARK    9  A    between atoms: C15_24  and  C16_26 
REMARK   10  A    between atoms: C16_26  and  N6_27 
ROOT
HETATM    1  C10 UNL     1       7.479  -5.469  16.597  1.00  0.00     0.177 C 
ENDROOT
BRANCH   1   2
HETATM    2  C9  UNL     1       6.579  -6.231  17.478  1.00  0.00     0.241 C 
HETATM    3  N4  UNL     1       5.516  -7.072  17.107  1.00  0.00    -0.346 N 
ATOM      4  H4  UNL     1       5.291  -7.197  16.121  1.00  0.00     0.163 HD
HETATM    5  O1  UNL     1       6.833  -6.077  18.742  1.00  0.00    -0.271 OA
BRANCH   3   6
HETATM    6  C8  UNL     1       4.723  -7.778  18.134  1.00  0.00     0.179 C 
BRANCH   6   7
HETATM    7  C7  UNL     1       4.501  -9.210  17.659  1.00  0.00     0.035 C 
HETATM    8  C6  UNL     1       4.803  -9.313  16.178  1.00  0.00     0.010 C 
HETATM    9  C5  UNL     1       4.351 -10.653  15.665  1.00  0.00     0.020 C 
HETATM   10  C4  UNL     1       4.617 -11.727  16.678  1.00  0.00     0.125 C 
HETATM   11  N3  UNL     1       5.686 -11.304  17.547  1.00  0.00    -0.355 N 
HETATM   12  C3  UNL     1       6.939 -11.941  17.627  1.00  0.00     0.186 C 
HETATM   13  C32 UNL     1       5.418 -10.128  18.402  1.00  0.00     0.132 C 
HETATM   14  N1  UNL     1       7.749 -12.069  16.633  1.00  0.00    -0.365 N 
HETATM   15  N2  UNL     1       7.343 -12.486  18.893  1.00  0.00    -0.064 NA
ATOM     16  H1  UNL     1       7.481 -11.688  15.726  1.00  0.00     0.162 HD
BRANCH  14  17
HETATM   17  C2  UNL     1       9.030 -12.736  16.763  1.00  0.00     0.118 C 
HETATM   18  C1  UNL     1       8.932 -14.173  16.310  1.00  0.00     0.026 C 
ENDBRANCH  14  17
ENDBRANCH   6   7
BRANCH   6  19
HETATM   19  C31 UNL     1       3.450  -7.100  18.363  1.00  0.00     0.254 C 
HETATM   20  N7  UNL     1       3.304  -5.964  19.201  1.00  0.00    -0.060 NA
HETATM   21  O4  UNL     1       2.358  -7.487  17.816  1.00  0.00    -0.275 OA
ENDBRANCH   6  19
ENDBRANCH   3   6
ENDBRANCH   1   2
BRANCH   1  22
HETATM   22  C11 UNL     1       8.397  -4.531  17.305  1.00  0.00     0.038 C 
BRANCH  22  23
HETATM   23  C12 UNL     1       9.844  -4.642  17.063  1.00  0.00    -0.020 C 
HETATM   24  C13 UNL     1      10.276  -6.096  17.186  1.00  0.00     0.009 C 
HETATM   25  C14 UNL     1      10.052  -4.308  15.562  1.00  0.00     0.009 C 
ENDBRANCH  22  23
ENDBRANCH   1  22
BRANCH   1  26
HETATM   26  N5  UNL     1       6.718  -4.655  15.641  1.00  0.00    -0.344 N 
HETATM   27  C15 UNL     1       5.625  -3.861  16.021  1.00  0.00     0.282 C 
HETATM   28  O2  UNL     1       5.274  -3.834  17.239  1.00  0.00    -0.268 OA
ATOM     29  H5  UNL     1       6.995  -4.667  14.660  1.00  0.00     0.163 HD
BRANCH  27  30
HETATM   30  C16 UNL     1       4.845  -3.038  15.060  1.00  0.00     0.306 C 
HETATM   31  C17 UNL     1       5.629  -2.727  13.809  1.00  0.00     0.086 C 
HETATM   32  C18 UNL     1       5.696  -1.242  13.809  1.00  0.00     0.025 C 
HETATM   33  C19 UNL     1       5.650  -0.608  12.453  1.00  0.00     0.009 C 
HETATM   34  C29 UNL     1       4.623  -0.821  14.729  1.00  0.00     0.065 C 
HETATM   35  C20 UNL     1       4.296  -0.471  11.858  1.00  0.00     0.010 C 
HETATM   36  C21 UNL     1       3.235   0.052  12.788  1.00  0.00    -0.038 C 
HETATM   37  C22 UNL     1       3.353   1.530  12.934  1.00  0.00     0.010 C 
HETATM   38  C27 UNL     1       1.914  -0.410  12.198  1.00  0.00     0.010 C 
HETATM   39  C28 UNL     1       3.286  -0.555  14.170  1.00  0.00     0.047 C 
HETATM   40  C23 UNL     1       2.436   2.358  12.090  1.00  0.00     0.001 C 
HETATM   41  C24 UNL     1       0.979   2.078  12.294  1.00  0.00     0.000 C 
HETATM   42  C25 UNL     1       0.515   1.236  11.117  1.00  0.00     0.000 C 
HETATM   43  C26 UNL     1       1.592   0.193  10.866  1.00  0.00     0.001 C 
HETATM   44  C30 UNL     1       5.146   0.339  15.591  1.00  0.00     0.046 C 
HETATM   45  O3  UNL     1       4.484  -1.872  15.647  1.00  0.00    -0.336 OA
BRANCH  30  46
HETATM   46  N6  UNL     1       3.634  -3.795  14.719  1.00  0.00    -0.037 N 
ATOM     47  H63 UNL     1       3.556  -3.995  13.722  1.00  0.00     0.278 HD
ATOM     48  H62 UNL     1       3.662  -4.761  15.047  1.00  0.00     0.278 HD
ATOM     49  H61 UNL     1       2.837  -3.273  15.084  1.00  0.00     0.278 HD
ENDBRANCH  30  46
ENDBRANCH  27  30
ENDBRANCH   1  26
TORSDOF 10
ENDMDL
