MODEL 1
REMARK VINA RESULT: -7.067665557      0.000      0.000
REMARK  10 active torsions:
REMARK  status: ('A' for Active; 'I' for Inactive)
REMARK    1  A    between atoms: C2_2  and  N1_3 
REMARK    2  A    between atoms: C2_2  and  C10_18 
REMARK    3  A    between atoms: N1_3  and  C3_5 
REMARK    4  A    between atoms: C3_5  and  C4_7 
REMARK    5  A    between atoms: C4_7  and  O1_8 
REMARK    6  A    between atoms: O1_8  and  C5_9 
REMARK    7  A    between atoms: C5_9  and  C6_11 
REMARK    8  A    between atoms: C10_18  and  O5_20 
REMARK    9  A    between atoms: O5_20  and  C11_21 
REMARK   10  A    between atoms: C11_21  and  C12_22 
ROOT
HETATM    1  C3  UNL     1      16.584 -12.488  21.173  1.00  0.00     0.199 C 
HETATM    2 CL1  UNL     1      17.430 -12.937  19.650  1.00  0.00    -0.101 Cl
ENDROOT
BRANCH   1   3
HETATM    3  N1  UNL     1      15.595 -11.537  20.834  1.00  0.00    -0.391 N 
ATOM      4  H1  UNL     1      15.834 -10.693  20.314  1.00  0.00     0.155 HD
BRANCH   3   5
HETATM    5  C2  UNL     1      14.270 -11.791  21.235  1.00  0.00     0.174 C 
HETATM    6  C1  UNL     1      13.554 -10.618  21.851  1.00  0.00     0.042 C 
BRANCH   5   7
HETATM    7  C10 UNL     1      13.448 -12.239  20.079  1.00  0.00     0.281 C 
HETATM    8  O4  UNL     1      12.480 -13.001  20.276  1.00  0.00    -0.263 OA
BRANCH   7   9
HETATM    9  O5  UNL     1      13.731 -11.832  18.791  1.00  0.00    -0.309 OA
BRANCH   9  10
HETATM   10  C11 UNL     1      14.385 -12.620  17.837  1.00  0.00     0.291 C 
BRANCH  10  11
HETATM   11  C12 UNL     1      14.970 -11.832  16.732  1.00  0.00     0.198 C 
HETATM   12  O6  UNL     1      14.416 -11.615  15.645  1.00  0.00    -0.646 OA
HETATM   13  O7  UNL     1      16.243 -11.282  16.913  1.00  0.00    -0.646 OA
ENDBRANCH  10  11
ENDBRANCH   9  10
ENDBRANCH   7   9
ENDBRANCH   5   7
ENDBRANCH   3   5
ENDBRANCH   1   3
BRANCH   1  14
HETATM   14  C4  UNL     1      16.042 -13.767  21.752  1.00  0.00     0.220 C 
BRANCH  14  15
HETATM   15  O1  UNL     1      16.920 -14.189  22.800  1.00  0.00    -0.313 OA
BRANCH  15  16
HETATM   16  C5  UNL     1      18.058 -14.916  22.610  1.00  0.00     0.317 C 
HETATM   17  O2  UNL     1      18.112 -15.733  21.679  1.00  0.00    -0.257 OA
BRANCH  16  18
HETATM   18  C6  UNL     1      19.190 -14.712  23.516  1.00  0.00     0.153 A 
HETATM   19  C7  UNL     1      20.525 -14.753  23.161  1.00  0.00     0.071 A 
HETATM   20  C8  UNL     1      21.240 -14.510  24.304  1.00  0.00     0.078 A 
HETATM   21 CL2  UNL     1      22.986 -14.449  24.415  1.00  0.00    -0.081 Cl
HETATM   22  C9  UNL     1      20.329 -14.329  25.315  1.00  0.00     0.144 A 
HETATM   23 BR1  UNL     1      20.809 -13.959  27.130  1.00  0.00    -0.021 Br
HETATM   24  O3  UNL     1      19.155 -14.459  24.790  1.00  0.00    -0.295 OA
ENDBRANCH  16  18
ENDBRANCH  15  16
ENDBRANCH  14  15
ENDBRANCH   1  14
TORSDOF 10
ENDMDL
MODEL 2
REMARK VINA RESULT: -7.050495452      2.693      4.054
REMARK  10 active torsions:
REMARK  status: ('A' for Active; 'I' for Inactive)
REMARK    1  A    between atoms: C2_2  and  N1_3 
REMARK    2  A    between atoms: C2_2  and  C10_18 
REMARK    3  A    between atoms: N1_3  and  C3_5 
REMARK    4  A    between atoms: C3_5  and  C4_7 
REMARK    5  A    between atoms: C4_7  and  O1_8 
REMARK    6  A    between atoms: O1_8  and  C5_9 
REMARK    7  A    between atoms: C5_9  and  C6_11 
REMARK    8  A    between atoms: C10_18  and  O5_20 
REMARK    9  A    between atoms: O5_20  and  C11_21 
REMARK   10  A    between atoms: C11_21  and  C12_22 
ROOT
HETATM    1  C3  UNL     1      15.514 -12.411  21.336  1.00  0.00     0.199 C 
HETATM    2 CL1  UNL     1      16.166 -12.555  19.666  1.00  0.00    -0.101 Cl
ENDROOT
BRANCH   1   3
HETATM    3  N1  UNL     1      14.104 -12.415  21.234  1.00  0.00    -0.391 N 
ATOM      4  H1  UNL     1      13.615 -13.168  20.749  1.00  0.00     0.155 HD
BRANCH   3   5
HETATM    5  C2  UNL     1      13.397 -11.350  21.820  1.00  0.00     0.174 C 
HETATM    6  C1  UNL     1      12.690 -10.440  20.849  1.00  0.00     0.042 C 
BRANCH   5   7
HETATM    7  C10 UNL     1      12.364 -11.860  22.762  1.00  0.00     0.281 C 
HETATM    8  O4  UNL     1      12.387 -13.060  23.102  1.00  0.00    -0.263 OA
BRANCH   7   9
HETATM    9  O5  UNL     1      11.380 -11.037  23.269  1.00  0.00    -0.309 OA
BRANCH   9  10
HETATM   10  C11 UNL     1      11.347 -10.557  24.583  1.00  0.00     0.291 C 
BRANCH  10  11
HETATM   11  C12 UNL     1      11.766  -9.144  24.698  1.00  0.00     0.198 C 
HETATM   12  O6  UNL     1      11.069  -8.233  25.169  1.00  0.00    -0.646 OA
HETATM   13  O7  UNL     1      13.042  -8.793  24.245  1.00  0.00    -0.646 OA
ENDBRANCH  10  11
ENDBRANCH   9  10
ENDBRANCH   7   9
ENDBRANCH   5   7
ENDBRANCH   3   5
ENDBRANCH   1   3
BRANCH   1  14
HETATM   14  C4  UNL     1      16.082 -13.566  22.116  1.00  0.00     0.220 C 
BRANCH  14  15
HETATM   15  O1  UNL     1      17.510 -13.483  22.059  1.00  0.00    -0.313 OA
BRANCH  15  16
HETATM   16  C5  UNL     1      18.353 -14.544  22.215  1.00  0.00     0.317 C 
HETATM   17  O2  UNL     1      18.211 -15.547  21.500  1.00  0.00    -0.257 OA
BRANCH  16  18
HETATM   18  C6  UNL     1      19.407 -14.470  23.228  1.00  0.00     0.153 A 
HETATM   19  C7  UNL     1      20.761 -14.619  22.996  1.00  0.00     0.071 A 
HETATM   20  C8  UNL     1      21.383 -14.476  24.209  1.00  0.00     0.078 A 
HETATM   21 CL2  UNL     1      23.109 -14.575  24.482  1.00  0.00    -0.081 Cl
HETATM   22  C9  UNL     1      20.399 -14.245  25.138  1.00  0.00     0.144 A 
HETATM   23 BR1  UNL     1      20.733 -13.975  27.002  1.00  0.00    -0.021 Br
HETATM   24  O3  UNL     1      19.273 -14.253  24.502  1.00  0.00    -0.295 OA
ENDBRANCH  16  18
ENDBRANCH  15  16
ENDBRANCH  14  15
ENDBRANCH   1  14
TORSDOF 10
ENDMDL
MODEL 3
REMARK VINA RESULT: -7.031180454      1.568      2.879
REMARK  10 active torsions:
REMARK  status: ('A' for Active; 'I' for Inactive)
REMARK    1  A    between atoms: C2_2  and  N1_3 
REMARK    2  A    between atoms: C2_2  and  C10_18 
REMARK    3  A    between atoms: N1_3  and  C3_5 
REMARK    4  A    between atoms: C3_5  and  C4_7 
REMARK    5  A    between atoms: C4_7  and  O1_8 
REMARK    6  A    between atoms: O1_8  and  C5_9 
REMARK    7  A    between atoms: C5_9  and  C6_11 
REMARK    8  A    between atoms: C10_18  and  O5_20 
REMARK    9  A    between atoms: O5_20  and  C11_21 
REMARK   10  A    between atoms: C11_21  and  C12_22 
ROOT
HETATM    1  C3  UNL     1      16.311 -12.376  21.087  1.00  0.00     0.199 C 
HETATM    2 CL1  UNL     1      16.666 -12.845  19.387  1.00  0.00    -0.101 Cl
ENDROOT
BRANCH   1   3
HETATM    3  N1  UNL     1      15.350 -11.342  21.041  1.00  0.00    -0.391 N 
ATOM      4  H1  UNL     1      15.595 -10.411  20.705  1.00  0.00     0.155 HD
BRANCH   3   5
HETATM    5  C2  UNL     1      14.043 -11.635  21.473  1.00  0.00     0.174 C 
HETATM    6  C1  UNL     1      13.334 -10.508  22.176  1.00  0.00     0.042 C 
BRANCH   5   7
HETATM    7  C10 UNL     1      13.187 -12.033  20.324  1.00  0.00     0.281 C 
HETATM    8  O4  UNL     1      13.195 -11.340  19.287  1.00  0.00    -0.263 OA
BRANCH   7   9
HETATM    9  O5  UNL     1      12.381 -13.152  20.377  1.00  0.00    -0.309 OA
BRANCH   9  10
HETATM   10  C11 UNL     1      12.079 -13.857  21.548  1.00  0.00     0.291 C 
BRANCH  10  11
HETATM   11  C12 UNL     1      12.335 -15.308  21.437  1.00  0.00     0.198 C 
HETATM   12  O6  UNL     1      12.698 -16.038  22.371  1.00  0.00    -0.646 OA
HETATM   13  O7  UNL     1      12.159 -15.918  20.191  1.00  0.00    -0.646 OA
ENDBRANCH  10  11
ENDBRANCH   9  10
ENDBRANCH   7   9
ENDBRANCH   5   7
ENDBRANCH   3   5
ENDBRANCH   1   3
BRANCH   1  14
HETATM   14  C4  UNL     1      15.846 -13.625  21.786  1.00  0.00     0.220 C 
BRANCH  14  15
HETATM   15  O1  UNL     1      16.831 -13.985  22.760  1.00  0.00    -0.313 OA
BRANCH  15  16
HETATM   16  C5  UNL     1      17.974 -14.676  22.485  1.00  0.00     0.317 C 
HETATM   17  O2  UNL     1      18.029 -15.386  21.470  1.00  0.00    -0.257 OA
BRANCH  16  18
HETATM   18  C6  UNL     1      19.110 -14.560  23.400  1.00  0.00     0.153 A 
HETATM   19  C7  UNL     1      20.442 -14.678  23.052  1.00  0.00     0.071 A 
HETATM   20  C8  UNL     1      21.164 -14.503  24.204  1.00  0.00     0.078 A 
HETATM   21 CL2  UNL     1      22.909 -14.554  24.325  1.00  0.00    -0.081 Cl
HETATM   22  C9  UNL     1      20.259 -14.283  25.213  1.00  0.00     0.144 A 
HETATM   23 BR1  UNL     1      20.749 -13.977  27.037  1.00  0.00    -0.021 Br
HETATM   24  O3  UNL     1      19.083 -14.328  24.678  1.00  0.00    -0.295 OA
ENDBRANCH  16  18
ENDBRANCH  15  16
ENDBRANCH  14  15
ENDBRANCH   1  14
TORSDOF 10
ENDMDL
MODEL 4
REMARK VINA RESULT: -6.991950745      3.487      7.824
REMARK  10 active torsions:
REMARK  status: ('A' for Active; 'I' for Inactive)
REMARK    1  A    between atoms: C2_2  and  N1_3 
REMARK    2  A    between atoms: C2_2  and  C10_18 
REMARK    3  A    between atoms: N1_3  and  C3_5 
REMARK    4  A    between atoms: C3_5  and  C4_7 
REMARK    5  A    between atoms: C4_7  and  O1_8 
REMARK    6  A    between atoms: O1_8  and  C5_9 
REMARK    7  A    between atoms: C5_9  and  C6_11 
REMARK    8  A    between atoms: C10_18  and  O5_20 
REMARK    9  A    between atoms: O5_20  and  C11_21 
REMARK   10  A    between atoms: C11_21  and  C12_22 
ROOT
HETATM    1  C3  UNL     1      17.043 -13.315  21.475  1.00  0.00     0.199 C 
HETATM    2 CL1  UNL     1      16.668 -15.009  20.998  1.00  0.00    -0.101 Cl
ENDROOT
BRANCH   1   3
HETATM    3  N1  UNL     1      18.440 -13.241  21.678  1.00  0.00    -0.391 N 
ATOM      4  H1  UNL     1      18.832 -12.666  22.423  1.00  0.00     0.155 HD
BRANCH   3   5
HETATM    5  C2  UNL     1      19.272 -13.985  20.821  1.00  0.00     0.174 C 
HETATM    6  C1  UNL     1      20.127 -13.166  19.890  1.00  0.00     0.042 C 
BRANCH   5   7
HETATM    7  C10 UNL     1      20.195 -14.848  21.606  1.00  0.00     0.281 C 
HETATM    8  O4  UNL     1      20.219 -16.076  21.386  1.00  0.00    -0.263 OA
BRANCH   7   9
HETATM    9  O5  UNL     1      21.028 -14.324  22.573  1.00  0.00    -0.309 OA
BRANCH   9  10
HETATM   10  C11 UNL     1      21.114 -14.799  23.887  1.00  0.00     0.291 C 
BRANCH  10  11
HETATM   11  C12 UNL     1      20.045 -14.280  24.765  1.00  0.00     0.198 C 
HETATM   12  O6  UNL     1      18.832 -14.464  24.590  1.00  0.00    -0.646 OA
HETATM   13  O7  UNL     1      20.414 -13.526  25.883  1.00  0.00    -0.646 OA
ENDBRANCH  10  11
ENDBRANCH   9  10
ENDBRANCH   7   9
ENDBRANCH   5   7
ENDBRANCH   3   5
ENDBRANCH   1   3
BRANCH   1  14
HETATM   14  C4  UNL     1      16.531 -12.437  20.366  1.00  0.00     0.220 C 
BRANCH  14  15
HETATM   15  O1  UNL     1      15.557 -11.545  20.918  1.00  0.00    -0.313 OA
BRANCH  15  16
HETATM   16  C5  UNL     1      14.208 -11.683  20.765  1.00  0.00     0.317 C 
HETATM   17  O2  UNL     1      13.753 -12.075  19.681  1.00  0.00    -0.257 OA
BRANCH  16  18
HETATM   18  C6  UNL     1      13.331 -11.360  21.891  1.00  0.00     0.153 A 
HETATM   19  C7  UNL     1      12.410 -12.214  22.468  1.00  0.00     0.071 A 
HETATM   20  C8  UNL     1      11.809 -11.515  23.482  1.00  0.00     0.078 A 
HETATM   21 CL2  UNL     1      10.560 -12.134  24.539  1.00  0.00    -0.081 Cl
HETATM   22  C9  UNL     1      12.377 -10.265  23.496  1.00  0.00     0.144 A 
HETATM   23 BR1  UNL     1      11.891  -8.886  24.731  1.00  0.00    -0.021 Br
HETATM   24  O3  UNL     1      13.254 -10.241  22.547  1.00  0.00    -0.295 OA
ENDBRANCH  16  18
ENDBRANCH  15  16
ENDBRANCH  14  15
ENDBRANCH   1  14
TORSDOF 10
ENDMDL
MODEL 5
REMARK VINA RESULT: -6.976938974      2.283      3.978
REMARK  10 active torsions:
REMARK  status: ('A' for Active; 'I' for Inactive)
REMARK    1  A    between atoms: C2_2  and  N1_3 
REMARK    2  A    between atoms: C2_2  and  C10_18 
REMARK    3  A    between atoms: N1_3  and  C3_5 
REMARK    4  A    between atoms: C3_5  and  C4_7 
REMARK    5  A    between atoms: C4_7  and  O1_8 
REMARK    6  A    between atoms: O1_8  and  C5_9 
REMARK    7  A    between atoms: C5_9  and  C6_11 
REMARK    8  A    between atoms: C10_18  and  O5_20 
REMARK    9  A    between atoms: O5_20  and  C11_21 
REMARK   10  A    between atoms: C11_21  and  C12_22 
ROOT
HETATM    1  C3  UNL     1      16.682 -12.411  19.965  1.00  0.00     0.199 C 
HETATM    2 CL1  UNL     1      15.495 -12.806  18.672  1.00  0.00    -0.101 Cl
ENDROOT
BRANCH   1   3
HETATM    3  N1  UNL     1      15.942 -12.000  21.097  1.00  0.00    -0.391 N 
ATOM      4  H1  UNL     1      16.376 -11.445  21.834  1.00  0.00     0.155 HD
BRANCH   3   5
HETATM    5  C2  UNL     1      14.589 -12.380  21.174  1.00  0.00     0.174 C 
HETATM    6  C1  UNL     1      14.321 -13.627  21.974  1.00  0.00     0.042 C 
BRANCH   5   7
HETATM    7  C10 UNL     1      13.774 -11.294  21.782  1.00  0.00     0.281 C 
HETATM    8  O4  UNL     1      13.876 -10.132  21.340  1.00  0.00    -0.263 OA
BRANCH   7   9
HETATM    9  O5  UNL     1      12.906 -11.542  22.826  1.00  0.00    -0.309 OA
BRANCH   9  10
HETATM   10  C11 UNL     1      11.627 -10.986  22.942  1.00  0.00     0.291 C 
BRANCH  10  11
HETATM   11  C12 UNL     1      11.271 -10.627  24.330  1.00  0.00     0.198 C 
HETATM   12  O6  UNL     1      11.289  -9.477  24.793  1.00  0.00    -0.646 OA
HETATM   13  O7  UNL     1      10.880 -11.650  25.200  1.00  0.00    -0.646 OA
ENDBRANCH  10  11
ENDBRANCH   9  10
ENDBRANCH   7   9
ENDBRANCH   5   7
ENDBRANCH   3   5
ENDBRANCH   1   3
BRANCH   1  14
HETATM   14  C4  UNL     1      17.506 -13.652  20.180  1.00  0.00     0.220 C 
BRANCH  14  15
HETATM   15  O1  UNL     1      18.192 -13.520  21.430  1.00  0.00    -0.313 OA
BRANCH  15  16
HETATM   16  C5  UNL     1      18.254 -14.493  22.384  1.00  0.00     0.317 C 
HETATM   17  O2  UNL     1      17.398 -15.390  22.398  1.00  0.00    -0.257 OA
BRANCH  16  18
HETATM   18  C6  UNL     1      19.334 -14.450  23.371  1.00  0.00     0.153 A 
HETATM   19  C7  UNL     1      20.680 -14.612  23.103  1.00  0.00     0.071 A 
HETATM   20  C8  UNL     1      21.334 -14.499  24.302  1.00  0.00     0.078 A 
HETATM   21 CL2  UNL     1      23.065 -14.623  24.529  1.00  0.00    -0.081 Cl
HETATM   22  C9  UNL     1      20.376 -14.272  25.259  1.00  0.00     0.144 A 
HETATM   23 BR1  UNL     1      20.762 -14.039  27.119  1.00  0.00    -0.021 Br
HETATM   24  O3  UNL     1      19.235 -14.255  24.652  1.00  0.00    -0.295 OA
ENDBRANCH  16  18
ENDBRANCH  15  16
ENDBRANCH  14  15
ENDBRANCH   1  14
TORSDOF 10
ENDMDL
