MODEL 1
REMARK VINA RESULT: -7.645727117      0.000      0.000
REMARK  10 active torsions:
REMARK  status: ('A' for Active; 'I' for Inactive)
REMARK    1  A    between atoms: O1_2  and  C2_3 
REMARK    2  A    between atoms: C2_3  and  C3_4 
REMARK    3  A    between atoms: C3_4  and  N1_5 
REMARK    4  A    between atoms: C3_4  and  C19_30 
REMARK       I    between atoms: N1_5  and  C4_7 
REMARK    5  A    between atoms: C4_7  and  C5_9 
REMARK    6  A    between atoms: C7_11  and  O3_12 
REMARK    7  A    between atoms: C15_20  and  C16_21 
REMARK    8  A    between atoms: C16_21  and  C17_26 
REMARK    9  A    between atoms: N2_22  and  O4_24 
REMARK   10  A    between atoms: C17_26  and  O6_28 
ROOT
HETATM    1  C5  UNL     1      15.094 -12.365  21.302  1.00  0.00     0.113 C 
HETATM    2  C6  UNL     1      15.639 -12.286  19.922  1.00  0.00     0.021 C 
HETATM    3  C7  UNL     1      16.829 -12.818  19.684  1.00  0.00     0.052 C 
HETATM    4  C9  UNL     1      17.538 -13.444  20.756  1.00  0.00     0.013 C 
HETATM    5  C10 UNL     1      18.399 -12.663  21.716  1.00  0.00     0.021 C 
HETATM    6  C11 UNL     1      19.369 -12.633  20.579  1.00  0.00    -0.008 A 
HETATM    7  C12 UNL     1      20.034 -13.686  19.860  1.00  0.00     0.011 A 
HETATM    8  C13 UNL     1      18.846 -14.108  20.493  1.00  0.00     0.005 A 
HETATM    9  C14 UNL     1      16.563 -14.394  21.456  1.00  0.00     0.029 C 
HETATM   10  C15 UNL     1      15.272 -13.737  21.840  1.00  0.00     0.061 C 
ENDROOT
BRANCH   1  11
HETATM   11  C4  UNL     1      13.736 -11.801  21.395  1.00  0.00     0.226 C 
HETATM   12  N1  UNL     1      13.089 -11.751  22.656  1.00  0.00    -0.348 N 
ATOM     13  H1  UNL     1      13.572 -12.107  23.480  1.00  0.00     0.163 HD
HETATM   14  O2  UNL     1      13.096 -11.349  20.414  1.00  0.00    -0.273 OA
BRANCH  12  15
HETATM   15  C3  UNL     1      11.759 -11.206  22.793  1.00  0.00     0.173 C 
BRANCH  15  16
HETATM   16  C2  UNL     1      11.628 -10.470  24.094  1.00  0.00     0.197 C 
BRANCH  16  17
HETATM   17  O1  UNL     1      12.427  -9.323  24.111  1.00  0.00    -0.394 OA
HETATM   18  C1  UNL     1      11.923  -8.375  24.984  1.00  0.00     0.201 C 
ENDBRANCH  16  17
ENDBRANCH  15  16
BRANCH  15  19
HETATM   19  C19 UNL     1      10.702 -12.293  22.775  1.00  0.00     0.377 C 
HETATM   20  F1  UNL     1      10.376 -12.564  24.086  1.00  0.00    -0.212 F 
HETATM   21  F2  UNL     1      11.143 -13.403  22.094  1.00  0.00    -0.212 F 
ENDBRANCH  15  19
ENDBRANCH  12  15
ENDBRANCH   1  11
BRANCH  10  22
HETATM   22  C16 UNL     1      14.196 -14.691  21.491  1.00  0.00     0.112 C 
HETATM   23  N2  UNL     1      13.527 -15.249  22.425  1.00  0.00    -0.267 N 
ATOM     24  H2  UNL     1      13.769 -15.006  23.385  1.00  0.00     0.194 HD
BRANCH  23  25
HETATM   25  O4  UNL     1      12.517 -16.141  22.240  1.00  0.00    -0.290 OA
ATOM     26  H4  UNL     1      11.601 -15.916  22.125  1.00  0.00     0.244 HD
ENDBRANCH  23  25
BRANCH  22  27
HETATM   27  C17 UNL     1      13.898 -14.989  20.102  1.00  0.00     0.307 C 
HETATM   28  O5  UNL     1      12.816 -14.601  19.556  1.00  0.00    -0.258 OA
BRANCH  27  29
HETATM   29  O6  UNL     1      14.757 -15.706  19.281  1.00  0.00    -0.322 OA
HETATM   30  C18 UNL     1      14.808 -15.532  17.876  1.00  0.00     0.213 C 
ENDBRANCH  27  29
ENDBRANCH  22  27
ENDBRANCH  10  22
BRANCH   3  31
HETATM   31  O3  UNL     1      17.310 -12.731  18.392  1.00  0.00    -0.360 OA
HETATM   32  C8  UNL     1      16.545 -12.301  17.291  1.00  0.00     0.209 C 
ENDBRANCH   3  31
TORSDOF 10
ENDMDL
MODEL 2
REMARK VINA RESULT: -7.341034613      2.461      4.321
REMARK  10 active torsions:
REMARK  status: ('A' for Active; 'I' for Inactive)
REMARK    1  A    between atoms: O1_2  and  C2_3 
REMARK    2  A    between atoms: C2_3  and  C3_4 
REMARK    3  A    between atoms: C3_4  and  N1_5 
REMARK    4  A    between atoms: C3_4  and  C19_30 
REMARK       I    between atoms: N1_5  and  C4_7 
REMARK    5  A    between atoms: C4_7  and  C5_9 
REMARK    6  A    between atoms: C7_11  and  O3_12 
REMARK    7  A    between atoms: C15_20  and  C16_21 
REMARK    8  A    between atoms: C16_21  and  C17_26 
REMARK    9  A    between atoms: N2_22  and  O4_24 
REMARK   10  A    between atoms: C17_26  and  O6_28 
ROOT
HETATM    1  C5  UNL     1      16.614 -15.162  20.740  1.00  0.00     0.113 C 
HETATM    2  C6  UNL     1      16.735 -15.116  22.220  1.00  0.00     0.021 C 
HETATM    3  C7  UNL     1      17.905 -14.786  22.745  1.00  0.00     0.052 C 
HETATM    4  C9  UNL     1      19.000 -14.489  21.875  1.00  0.00     0.013 C 
HETATM    5  C10 UNL     1      19.886 -15.565  21.300  1.00  0.00     0.021 C 
HETATM    6  C11 UNL     1      20.481 -15.591  22.672  1.00  0.00    -0.008 A 
HETATM    7  C12 UNL     1      21.149 -14.579  23.445  1.00  0.00     0.011 A 
HETATM    8  C13 UNL     1      20.304 -14.050  22.447  1.00  0.00     0.005 A 
HETATM    9  C14 UNL     1      18.492 -13.500  20.823  1.00  0.00     0.029 C 
HETATM   10  C15 UNL     1      17.238 -13.955  20.142  1.00  0.00     0.061 C 
ENDROOT
BRANCH   1  11
HETATM   11  C4  UNL     1      15.241 -15.468  20.304  1.00  0.00     0.226 C 
HETATM   12  N1  UNL     1      14.147 -14.864  20.975  1.00  0.00    -0.348 N 
ATOM     13  H1  UNL     1      14.326 -14.226  21.750  1.00  0.00     0.163 HD
HETATM   14  O2  UNL     1      14.962 -16.244  19.357  1.00  0.00    -0.273 OA
BRANCH  12  15
HETATM   15  C3  UNL     1      12.785 -15.135  20.581  1.00  0.00     0.173 C 
BRANCH  15  16
HETATM   16  C2  UNL     1      11.947 -13.897  20.713  1.00  0.00     0.197 C 
BRANCH  16  17
HETATM   17  O1  UNL     1      12.716 -12.807  21.133  1.00  0.00    -0.394 OA
HETATM   18  C1  UNL     1      11.949 -11.898  21.841  1.00  0.00     0.201 C 
ENDBRANCH  16  17
ENDBRANCH  15  16
BRANCH  15  19
HETATM   19  C19 UNL     1      12.153 -16.209  21.446  1.00  0.00     0.377 C 
HETATM   20  F1  UNL     1      12.931 -16.328  22.577  1.00  0.00    -0.212 F 
HETATM   21  F2  UNL     1      12.029 -17.391  20.756  1.00  0.00    -0.212 F 
ENDBRANCH  15  19
ENDBRANCH  12  15
ENDBRANCH   1  11
BRANCH  10  22
HETATM   22  C16 UNL     1      16.355 -12.771  20.054  1.00  0.00     0.112 C 
HETATM   23  N2  UNL     1      16.110 -12.094  21.108  1.00  0.00    -0.267 N 
ATOM     24  H2  UNL     1      16.542 -12.405  21.977  1.00  0.00     0.194 HD
BRANCH  23  25
HETATM   25  O4  UNL     1      15.317 -10.989  21.162  1.00  0.00    -0.290 OA
ATOM     26  H4  UNL     1      15.158 -10.468  21.941  1.00  0.00     0.244 HD
ENDBRANCH  23  25
BRANCH  22  27
HETATM   27  C17 UNL     1      15.775 -12.378  18.782  1.00  0.00     0.307 C 
HETATM   28  O5  UNL     1      14.549 -12.588  18.517  1.00  0.00    -0.258 OA
BRANCH  27  29
HETATM   29  O6  UNL     1      16.505 -11.755  17.779  1.00  0.00    -0.322 OA
HETATM   30  C18 UNL     1      17.025 -12.447  16.658  1.00  0.00     0.213 C 
ENDBRANCH  27  29
ENDBRANCH  22  27
ENDBRANCH  10  22
BRANCH   3  31
HETATM   31  O3  UNL     1      17.988 -14.750  24.124  1.00  0.00    -0.360 OA
HETATM   32  C8  UNL     1      17.891 -15.885  24.951  1.00  0.00     0.209 C 
ENDBRANCH   3  31
TORSDOF 10
ENDMDL
MODEL 3
REMARK VINA RESULT: -7.297976041      1.162      1.673
REMARK  10 active torsions:
REMARK  status: ('A' for Active; 'I' for Inactive)
REMARK    1  A    between atoms: O1_2  and  C2_3 
REMARK    2  A    between atoms: C2_3  and  C3_4 
REMARK    3  A    between atoms: C3_4  and  N1_5 
REMARK    4  A    between atoms: C3_4  and  C19_30 
REMARK       I    between atoms: N1_5  and  C4_7 
REMARK    5  A    between atoms: C4_7  and  C5_9 
REMARK    6  A    between atoms: C7_11  and  O3_12 
REMARK    7  A    between atoms: C15_20  and  C16_21 
REMARK    8  A    between atoms: C16_21  and  C17_26 
REMARK    9  A    between atoms: N2_22  and  O4_24 
REMARK   10  A    between atoms: C17_26  and  O6_28 
ROOT
HETATM    1  C5  UNL     1      15.028 -12.786  20.983  1.00  0.00     0.113 C 
HETATM    2  C6  UNL     1      15.698 -12.501  19.688  1.00  0.00     0.021 C 
HETATM    3  C7  UNL     1      16.938 -12.933  19.513  1.00  0.00     0.052 C 
HETATM    4  C9  UNL     1      17.581 -13.650  20.569  1.00  0.00     0.013 C 
HETATM    5  C10 UNL     1      18.290 -12.952  21.702  1.00  0.00     0.021 C 
HETATM    6  C11 UNL     1      19.361 -12.722  20.684  1.00  0.00    -0.008 A 
HETATM    7  C12 UNL     1      20.162 -13.636  19.916  1.00  0.00     0.011 A 
HETATM    8  C13 UNL     1      18.950 -14.201  20.365  1.00  0.00     0.005 A 
HETATM    9  C14 UNL     1      16.609 -14.734  21.042  1.00  0.00     0.029 C 
HETATM   10  C15 UNL     1      15.245 -14.204  21.366  1.00  0.00     0.061 C 
ENDROOT
BRANCH   1  11
HETATM   11  C4  UNL     1      13.632 -12.315  21.002  1.00  0.00     0.226 C 
HETATM   12  N1  UNL     1      12.961 -12.177  22.243  1.00  0.00    -0.348 N 
ATOM     13  H1  UNL     1      13.453 -12.407  23.106  1.00  0.00     0.163 HD
HETATM   14  O2  UNL     1      12.979 -12.018  19.971  1.00  0.00    -0.273 OA
BRANCH  12  15
HETATM   15  C3  UNL     1      11.594 -11.718  22.308  1.00  0.00     0.173 C 
BRANCH  15  16
HETATM   16  C2  UNL     1      11.548 -10.269  22.696  1.00  0.00     0.197 C 
BRANCH  16  17
HETATM   17  O1  UNL     1      12.614  -9.935  23.537  1.00  0.00    -0.394 OA
HETATM   18  C1  UNL     1      12.203  -9.089  24.552  1.00  0.00     0.201 C 
ENDBRANCH  16  17
ENDBRANCH  15  16
BRANCH  15  19
HETATM   19  C19 UNL     1      10.790 -12.492  23.335  1.00  0.00     0.377 C 
HETATM   20  F1  UNL     1      10.175 -11.566  24.150  1.00  0.00    -0.212 F 
HETATM   21  F2  UNL     1      11.586 -13.370  24.031  1.00  0.00    -0.212 F 
ENDBRANCH  15  19
ENDBRANCH  12  15
ENDBRANCH   1  11
BRANCH  10  22
HETATM   22  C16 UNL     1      14.276 -15.164  20.793  1.00  0.00     0.112 C 
HETATM   23  N2  UNL     1      14.381 -15.504  19.567  1.00  0.00    -0.267 N 
ATOM     24  H2  UNL     1      15.142 -15.092  19.029  1.00  0.00     0.194 HD
BRANCH  23  25
HETATM   25  O4  UNL     1      13.557 -16.374  18.922  1.00  0.00    -0.290 OA
ATOM     26  H4  UNL     1      13.760 -16.818  18.107  1.00  0.00     0.244 HD
ENDBRANCH  23  25
BRANCH  22  27
HETATM   27  C17 UNL     1      13.218 -15.720  21.617  1.00  0.00     0.307 C 
HETATM   28  O5  UNL     1      12.021 -15.295  21.539  1.00  0.00    -0.258 OA
BRANCH  27  29
HETATM   29  O6  UNL     1      13.430 -16.740  22.535  1.00  0.00    -0.322 OA
HETATM   30  C18 UNL     1      14.354 -17.793  22.319  1.00  0.00     0.213 C 
ENDBRANCH  27  29
ENDBRANCH  22  27
ENDBRANCH  10  22
BRANCH   3  31
HETATM   31  O3  UNL     1      17.535 -12.654  18.298  1.00  0.00    -0.360 OA
HETATM   32  C8  UNL     1      16.833 -12.516  17.086  1.00  0.00     0.209 C 
ENDBRANCH   3  31
TORSDOF 10
ENDMDL
MODEL 4
REMARK VINA RESULT: -7.227954721      2.228      3.141
REMARK  10 active torsions:
REMARK  status: ('A' for Active; 'I' for Inactive)
REMARK    1  A    between atoms: O1_2  and  C2_3 
REMARK    2  A    between atoms: C2_3  and  C3_4 
REMARK    3  A    between atoms: C3_4  and  N1_5 
REMARK    4  A    between atoms: C3_4  and  C19_30 
REMARK       I    between atoms: N1_5  and  C4_7 
REMARK    5  A    between atoms: C4_7  and  C5_9 
REMARK    6  A    between atoms: C7_11  and  O3_12 
REMARK    7  A    between atoms: C15_20  and  C16_21 
REMARK    8  A    between atoms: C16_21  and  C17_26 
REMARK    9  A    between atoms: N2_22  and  O4_24 
REMARK   10  A    between atoms: C17_26  and  O6_28 
ROOT
HETATM    1  C5  UNL     1      16.361 -13.434  21.489  1.00  0.00     0.113 C 
HETATM    2  C6  UNL     1      17.747 -13.336  20.965  1.00  0.00     0.021 C 
HETATM    3  C7  UNL     1      18.538 -14.393  21.076  1.00  0.00     0.052 C 
HETATM    4  C9  UNL     1      18.032 -15.579  21.693  1.00  0.00     0.013 C 
HETATM    5  C10 UNL     1      18.039 -15.776  23.187  1.00  0.00     0.021 C 
HETATM    6  C11 UNL     1      19.497 -16.038  22.990  1.00  0.00    -0.008 A 
HETATM    7  C12 UNL     1      20.196 -17.036  22.226  1.00  0.00     0.011 A 
HETATM    8  C13 UNL     1      18.883 -16.800  21.765  1.00  0.00     0.005 A 
HETATM    9  C14 UNL     1      16.676 -15.885  21.050  1.00  0.00     0.029 C 
HETATM   10  C15 UNL     1      15.743 -14.712  21.055  1.00  0.00     0.061 C 
ENDROOT
BRANCH   1  11
HETATM   11  C4  UNL     1      15.581 -12.213  21.227  1.00  0.00     0.226 C 
HETATM   12  N1  UNL     1      14.373 -11.992  21.937  1.00  0.00    -0.348 N 
ATOM     13  H1  UNL     1      14.061 -12.682  22.619  1.00  0.00     0.163 HD
HETATM   14  O2  UNL     1      15.917 -11.330  20.399  1.00  0.00    -0.273 OA
BRANCH  12  15
HETATM   15  C3  UNL     1      13.578 -10.809  21.711  1.00  0.00     0.173 C 
BRANCH  15  16
HETATM   16  C2  UNL     1      13.027 -10.295  23.009  1.00  0.00     0.197 C 
BRANCH  16  17
HETATM   17  O1  UNL     1      12.233 -11.258  23.640  1.00  0.00    -0.394 OA
HETATM   18  C1  UNL     1      11.275 -10.666  24.445  1.00  0.00     0.201 C 
ENDBRANCH  16  17
ENDBRANCH  15  16
BRANCH  15  19
HETATM   19  C19 UNL     1      12.402 -11.088  20.794  1.00  0.00     0.377 C 
HETATM   20  F1  UNL     1      12.919 -11.379  19.550  1.00  0.00    -0.212 F 
HETATM   21  F2  UNL     1      11.525 -10.030  20.774  1.00  0.00    -0.212 F 
ENDBRANCH  15  19
ENDBRANCH  12  15
ENDBRANCH   1  11
BRANCH  10  22
HETATM   22  C16 UNL     1      15.105 -14.679  19.721  1.00  0.00     0.112 C 
HETATM   23  N2  UNL     1      15.823 -14.456  18.689  1.00  0.00    -0.267 N 
ATOM     24  H2  UNL     1      16.821 -14.309  18.834  1.00  0.00     0.194 HD
BRANCH  23  25
HETATM   25  O4  UNL     1      15.361 -14.399  17.410  1.00  0.00    -0.290 OA
ATOM     26  H4  UNL     1      15.354 -15.125  16.798  1.00  0.00     0.244 HD
ENDBRANCH  23  25
BRANCH  22  27
HETATM   27  C17 UNL     1      13.677 -14.902  19.582  1.00  0.00     0.307 C 
HETATM   28  O5  UNL     1      13.203 -15.612  18.639  1.00  0.00    -0.258 OA
BRANCH  27  29
HETATM   29  O6  UNL     1      12.740 -14.366  20.455  1.00  0.00    -0.322 OA
HETATM   30  C18 UNL     1      12.318 -15.026  21.636  1.00  0.00     0.213 C 
ENDBRANCH  27  29
ENDBRANCH  22  27
ENDBRANCH  10  22
BRANCH   3  31
HETATM   31  O3  UNL     1      19.822 -14.274  20.578  1.00  0.00    -0.360 OA
HETATM   32  C8  UNL     1      20.266 -13.196  19.790  1.00  0.00     0.209 C 
ENDBRANCH   3  31
TORSDOF 10
ENDMDL
MODEL 5
REMARK VINA RESULT: -7.220580302      2.297      3.207
REMARK  10 active torsions:
REMARK  status: ('A' for Active; 'I' for Inactive)
REMARK    1  A    between atoms: O1_2  and  C2_3 
REMARK    2  A    between atoms: C2_3  and  C3_4 
REMARK    3  A    between atoms: C3_4  and  N1_5 
REMARK    4  A    between atoms: C3_4  and  C19_30 
REMARK       I    between atoms: N1_5  and  C4_7 
REMARK    5  A    between atoms: C4_7  and  C5_9 
REMARK    6  A    between atoms: C7_11  and  O3_12 
REMARK    7  A    between atoms: C15_20  and  C16_21 
REMARK    8  A    between atoms: C16_21  and  C17_26 
REMARK    9  A    between atoms: N2_22  and  O4_24 
REMARK   10  A    between atoms: C17_26  and  O6_28 
ROOT
HETATM    1  C5  UNL     1      16.784 -13.183  21.928  1.00  0.00     0.113 C 
HETATM    2  C6  UNL     1      18.121 -13.093  21.285  1.00  0.00     0.021 C 
HETATM    3  C7  UNL     1      19.073 -13.917  21.696  1.00  0.00     0.052 C 
HETATM    4  C9  UNL     1      18.782 -14.855  22.735  1.00  0.00     0.013 C 
HETATM    5  C10 UNL     1      18.866 -14.490  24.196  1.00  0.00     0.021 C 
HETATM    6  C11 UNL     1      20.341 -14.602  23.979  1.00  0.00    -0.008 A 
HETATM    7  C12 UNL     1      21.166 -15.704  23.562  1.00  0.00     0.011 A 
HETATM    8  C13 UNL     1      19.819 -15.835  23.163  1.00  0.00     0.005 A 
HETATM    9  C14 UNL     1      17.473 -15.557  22.364  1.00  0.00     0.029 C 
HETATM   10  C15 UNL     1      16.365 -14.603  22.032  1.00  0.00     0.061 C 
ENDROOT
BRANCH   1  11
HETATM   11  C4  UNL     1      15.811 -12.261  21.317  1.00  0.00     0.226 C 
HETATM   12  N1  UNL     1      14.557 -12.055  21.947  1.00  0.00    -0.348 N 
ATOM     13  H1  UNL     1      14.346 -12.549  22.814  1.00  0.00     0.163 HD
HETATM   14  O2  UNL     1      16.018 -11.628  20.253  1.00  0.00    -0.273 OA
BRANCH  12  15
HETATM   15  C3  UNL     1      13.575 -11.161  21.384  1.00  0.00     0.173 C 
BRANCH  15  16
HETATM   16  C2  UNL     1      12.714 -10.582  22.467  1.00  0.00     0.197 C 
BRANCH  16  17
HETATM   17  O1  UNL     1      12.342 -11.558  23.396  1.00  0.00    -0.394 OA
HETATM   18  C1  UNL     1      11.221 -11.170  24.109  1.00  0.00     0.201 C 
ENDBRANCH  16  17
ENDBRANCH  15  16
BRANCH  15  19
HETATM   19  C19 UNL     1      12.661 -11.874  20.405  1.00  0.00     0.377 C 
HETATM   20  F1  UNL     1      12.692 -13.214  20.726  1.00  0.00    -0.212 F 
HETATM   21  F2  UNL     1      13.034 -11.627  19.106  1.00  0.00    -0.212 F 
ENDBRANCH  15  19
ENDBRANCH  12  15
ENDBRANCH   1  11
BRANCH  10  22
HETATM   22  C16 UNL     1      15.689 -15.147  20.833  1.00  0.00     0.112 C 
HETATM   23  N2  UNL     1      16.022 -14.717  19.678  1.00  0.00    -0.267 N 
ATOM     24  H2  UNL     1      16.752 -14.007  19.633  1.00  0.00     0.194 HD
BRANCH  23  25
HETATM   25  O4  UNL     1      15.479 -15.133  18.501  1.00  0.00    -0.290 OA
ATOM     26  H4  UNL     1      15.899 -15.718  17.882  1.00  0.00     0.244 HD
ENDBRANCH  23  25
BRANCH  22  27
HETATM   27  C17 UNL     1      14.661 -16.162  20.966  1.00  0.00     0.307 C 
HETATM   28  O5  UNL     1      14.706 -17.246  20.302  1.00  0.00    -0.258 OA
BRANCH  27  29
HETATM   29  O6  UNL     1      13.570 -16.028  21.815  1.00  0.00    -0.322 OA
HETATM   30  C18 UNL     1      12.263 -16.451  21.467  1.00  0.00     0.213 C 
ENDBRANCH  27  29
ENDBRANCH  22  27
ENDBRANCH  10  22
BRANCH   3  31
HETATM   31  O3  UNL     1      20.305 -13.812  21.079  1.00  0.00    -0.360 OA
HETATM   32  C8  UNL     1      20.615 -12.857  20.093  1.00  0.00     0.209 C 
ENDBRANCH   3  31
TORSDOF 10
ENDMDL
