MODEL 1
REMARK VINA RESULT: -9.323053742      0.000      0.000
REMARK  8 active torsions:
REMARK  status: ('A' for Active; 'I' for Inactive)
REMARK    1  A    between atoms: O1_2  and  N1_3 
REMARK    2  A    between atoms: C2_5  and  C3_6 
REMARK    3  A    between atoms: C2_5  and  C6_11 
REMARK       I    between atoms: C3_6  and  N2_8 
REMARK    4  A    between atoms: C7_14  and  N4_15 
REMARK    5  A    between atoms: N4_15  and  C8_16 
REMARK    6  A    between atoms: N4_15  and  C12_20 
REMARK    7  A    between atoms: C8_16  and  C9_17 
REMARK    8  A    between atoms: C12_20  and  C13_21 
ROOT
HETATM    1  C6  UNL     1      13.807 -13.719  21.916  1.00  0.00     0.170 A 
HETATM    2  N3  UNL     1      15.075 -14.200  22.169  1.00  0.00    -0.172 N 
ATOM      3  H3  UNL     1      15.192 -15.175  22.445  1.00  0.00     0.186 HD
HETATM    4  C7  UNL     1      16.142 -13.426  22.062  1.00  0.00     0.704 A 
HETATM    5  N5  UNL     1      15.948 -12.144  21.694  1.00  0.00    -0.022 N 
ATOM      6  H5  UNL     1      16.757 -11.530  21.605  1.00  0.00     0.203 HD
HETATM    7  C19 UNL     1      14.734 -11.650  21.442  1.00  0.00     0.692 A 
HETATM    8  N6  UNL     1      14.599 -10.413  21.093  1.00  0.00    -0.234 N 
ATOM      9  H61 UNL     1      13.671 -10.035  20.900  1.00  0.00     0.174 HD
ATOM     10  H62 UNL     1      15.418  -9.811  21.009  1.00  0.00     0.174 HD
HETATM   11  N7  UNL     1      13.633 -12.460  21.556  1.00  0.00    -0.173 N 
ATOM     12  H7  UNL     1      12.698 -12.098  21.366  1.00  0.00     0.186 HD
ENDROOT
BRANCH   4  13
HETATM   13  N4  UNL     1      17.513 -13.893  22.341  1.00  0.00    -0.175 N 
BRANCH  13  14
HETATM   14  C8  UNL     1      18.498 -13.295  21.509  1.00  0.00     0.091 C 
BRANCH  14  15
HETATM   15  C9  UNL     1      19.245 -14.051  20.497  1.00  0.00     0.017 C 
HETATM   16  C10 UNL     1      20.032 -15.220  21.104  1.00  0.00     0.015 C 
HETATM   17  C11 UNL     1      20.358 -13.035  20.010  1.00  0.00     0.015 C 
ENDBRANCH  14  15
ENDBRANCH  13  14
BRANCH  13  18
HETATM   18  C12 UNL     1      17.669 -14.825  23.373  1.00  0.00     0.092 C 
BRANCH  18  19
HETATM   19  C13 UNL     1      18.444 -14.661  24.599  1.00  0.00     0.031 C 
HETATM   20  C14 UNL     1      18.627 -16.124  25.185  1.00  0.00     0.013 C 
HETATM   21  C15 UNL     1      18.955 -15.971  26.634  1.00  0.00     0.044 C 
HETATM   22  C16 UNL     1      20.248 -15.240  26.758  1.00  0.00     0.242 C 
HETATM   23  F1  UNL     1      20.086 -14.239  27.727  1.00  0.00    -0.243 F 
HETATM   24  C17 UNL     1      20.810 -14.692  25.494  1.00  0.00     0.274 C 
HETATM   25  F2  UNL     1      21.688 -13.665  25.877  1.00  0.00    -0.203 F 
HETATM   26  F3  UNL     1      21.622 -15.598  24.814  1.00  0.00    -0.203 F 
HETATM   27  C18 UNL     1      19.811 -14.079  24.554  1.00  0.00     0.092 C 
ENDBRANCH  18  19
ENDBRANCH  13  18
ENDBRANCH   4  13
BRANCH   1  28
HETATM   28  C2  UNL     1      12.667 -14.639  22.047  1.00  0.00     0.167 C 
HETATM   29  N1  UNL     1      11.539 -14.121  22.355  1.00  0.00    -0.258 N 
ATOM     30  H1  UNL     1      10.763 -14.780  22.420  1.00  0.00     0.194 HD
BRANCH  29  31
HETATM   31  O1  UNL     1      11.227 -12.859  22.601  1.00  0.00    -0.285 OA
HETATM   32  C1  UNL     1      10.875 -12.487  23.940  1.00  0.00     0.237 C 
ENDBRANCH  29  31
BRANCH  28  33
HETATM   33  C3  UNL     1      12.733 -16.076  21.826  1.00  0.00     0.275 C 
HETATM   34  O2  UNL     1      13.206 -16.880  22.703  1.00  0.00    -0.266 OA
HETATM   35  N2  UNL     1      12.277 -16.649  20.630  1.00  0.00    -0.355 N 
HETATM   36  C4  UNL     1      11.719 -15.945  19.537  1.00  0.00     0.152 C 
HETATM   37  C5  UNL     1      12.386 -18.115  20.495  1.00  0.00     0.152 C 
ENDBRANCH  28  33
ENDBRANCH   1  28
TORSDOF 8
ENDMDL
MODEL 2
REMARK VINA RESULT: -9.309686514      1.915      3.572
REMARK  8 active torsions:
REMARK  status: ('A' for Active; 'I' for Inactive)
REMARK    1  A    between atoms: O1_2  and  N1_3 
REMARK    2  A    between atoms: C2_5  and  C3_6 
REMARK    3  A    between atoms: C2_5  and  C6_11 
REMARK       I    between atoms: C3_6  and  N2_8 
REMARK    4  A    between atoms: C7_14  and  N4_15 
REMARK    5  A    between atoms: N4_15  and  C8_16 
REMARK    6  A    between atoms: N4_15  and  C12_20 
REMARK    7  A    between atoms: C8_16  and  C9_17 
REMARK    8  A    between atoms: C12_20  and  C13_21 
ROOT
HETATM    1  C6  UNL     1      14.199 -13.234  21.641  1.00  0.00     0.170 A 
HETATM    2  N3  UNL     1      15.555 -13.140  21.877  1.00  0.00    -0.172 N 
ATOM      3  H3  UNL     1      16.011 -12.231  21.804  1.00  0.00     0.186 HD
HETATM    4  C7  UNL     1      16.275 -14.202  22.196  1.00  0.00     0.704 A 
HETATM    5  N5  UNL     1      15.636 -15.385  22.285  1.00  0.00    -0.022 N 
ATOM      6  H5  UNL     1      16.173 -16.216  22.532  1.00  0.00     0.203 HD
HETATM    7  C19 UNL     1      14.327 -15.507  22.063  1.00  0.00     0.692 A 
HETATM    8  N6  UNL     1      13.759 -16.665  22.160  1.00  0.00    -0.234 N 
ATOM      9  H61 UNL     1      12.758 -16.759  21.990  1.00  0.00     0.174 HD
ATOM     10  H62 UNL     1      14.310 -17.487  22.406  1.00  0.00     0.174 HD
HETATM   11  N7  UNL     1      13.586 -14.401  21.732  1.00  0.00    -0.173 N 
ATOM     12  H7  UNL     1      12.584 -14.477  21.559  1.00  0.00     0.186 HD
ENDROOT
BRANCH   4  13
HETATM   13  N4  UNL     1      17.729 -14.150  22.439  1.00  0.00    -0.175 N 
BRANCH  13  14
HETATM   14  C8  UNL     1      18.415 -13.238  21.591  1.00  0.00     0.091 C 
BRANCH  14  15
HETATM   15  C9  UNL     1      19.054 -13.652  20.337  1.00  0.00     0.017 C 
HETATM   16  C10 UNL     1      20.418 -12.981  20.126  1.00  0.00     0.015 C 
HETATM   17  C11 UNL     1      18.128 -13.028  19.215  1.00  0.00     0.015 C 
ENDBRANCH  14  15
ENDBRANCH  13  14
BRANCH  13  18
HETATM   18  C12 UNL     1      18.233 -14.966  23.458  1.00  0.00     0.092 C 
BRANCH  18  19
HETATM   19  C13 UNL     1      19.082 -14.561  24.574  1.00  0.00     0.031 C 
HETATM   20  C14 UNL     1      19.031 -15.765  25.606  1.00  0.00     0.013 C 
HETATM   21  C15 UNL     1      19.450 -15.216  26.931  1.00  0.00     0.044 C 
HETATM   22  C16 UNL     1      20.856 -14.733  26.826  1.00  0.00     0.242 C 
HETATM   23  F1  UNL     1      20.920 -13.461  27.414  1.00  0.00    -0.243 F 
HETATM   24  C17 UNL     1      21.445 -14.734  25.460  1.00  0.00     0.274 C 
HETATM   25  F2  UNL     1      22.509 -13.817  25.500  1.00  0.00    -0.203 F 
HETATM   26  F3  UNL     1      22.050 -15.943  25.123  1.00  0.00    -0.203 F 
HETATM   27  C18 UNL     1      20.526 -14.285  24.359  1.00  0.00     0.092 C 
ENDBRANCH  18  19
ENDBRANCH  13  18
ENDBRANCH   4  13
BRANCH   1  28
HETATM   28  C2  UNL     1      13.458 -12.010  21.297  1.00  0.00     0.167 C 
HETATM   29  N1  UNL     1      13.066 -11.893  20.086  1.00  0.00    -0.258 N 
ATOM     30  H1  UNL     1      12.539 -11.044  19.881  1.00  0.00     0.194 HD
BRANCH  29  31
HETATM   31  O1  UNL     1      13.241 -12.706  19.057  1.00  0.00    -0.285 OA
HETATM   32  C1  UNL     1      14.350 -12.474  18.179  1.00  0.00     0.237 C 
ENDBRANCH  29  31
BRANCH  28  33
HETATM   33  C3  UNL     1      13.125 -10.953  22.240  1.00  0.00     0.275 C 
HETATM   34  O2  UNL     1      13.785  -9.858  22.298  1.00  0.00    -0.266 OA
HETATM   35  N2  UNL     1      12.053 -11.089  23.135  1.00  0.00    -0.355 N 
HETATM   36  C4  UNL     1      11.197 -12.211  23.235  1.00  0.00     0.152 C 
HETATM   37  C5  UNL     1      11.791  -9.965  24.055  1.00  0.00     0.152 C 
ENDBRANCH  28  33
ENDBRANCH   1  28
TORSDOF 8
ENDMDL
MODEL 3
REMARK VINA RESULT: -8.916267888      1.616      2.306
REMARK  8 active torsions:
REMARK  status: ('A' for Active; 'I' for Inactive)
REMARK    1  A    between atoms: O1_2  and  N1_3 
REMARK    2  A    between atoms: C2_5  and  C3_6 
REMARK    3  A    between atoms: C2_5  and  C6_11 
REMARK       I    between atoms: C3_6  and  N2_8 
REMARK    4  A    between atoms: C7_14  and  N4_15 
REMARK    5  A    between atoms: N4_15  and  C8_16 
REMARK    6  A    between atoms: N4_15  and  C12_20 
REMARK    7  A    between atoms: C8_16  and  C9_17 
REMARK    8  A    between atoms: C12_20  and  C13_21 
ROOT
HETATM    1  C6  UNL     1      14.447 -14.395  21.911  1.00  0.00     0.170 A 
HETATM    2  N3  UNL     1      15.625 -15.086  22.110  1.00  0.00    -0.172 N 
ATOM      3  H3  UNL     1      15.586 -16.057  22.418  1.00  0.00     0.186 HD
HETATM    4  C7  UNL     1      16.801 -14.517  21.910  1.00  0.00     0.704 A 
HETATM    5  N5  UNL     1      16.812 -13.233  21.501  1.00  0.00    -0.022 N 
ATOM      6  H5  UNL     1      17.709 -12.776  21.340  1.00  0.00     0.203 HD
HETATM    7  C19 UNL     1      15.691 -12.539  21.300  1.00  0.00     0.692 A 
HETATM    8  N6  UNL     1      15.753 -11.308  20.908  1.00  0.00    -0.234 N 
ATOM      9  H61 UNL     1      14.896 -10.778  20.754  1.00  0.00     0.174 HD
ATOM     10  H62 UNL     1      16.658 -10.864  20.753  1.00  0.00     0.174 HD
HETATM   11  N7  UNL     1      14.474 -13.136  21.510  1.00  0.00    -0.173 N 
ATOM     12  H7  UNL     1      13.607 -12.619  21.360  1.00  0.00     0.186 HD
ENDROOT
BRANCH   4  13
HETATM   13  N4  UNL     1      18.084 -15.212  22.128  1.00  0.00    -0.175 N 
BRANCH  13  14
HETATM   14  C8  UNL     1      18.118 -16.526  21.585  1.00  0.00     0.091 C 
BRANCH  14  15
HETATM   15  C9  UNL     1      18.137 -17.729  22.425  1.00  0.00     0.017 C 
HETATM   16  C10 UNL     1      19.527 -18.375  22.491  1.00  0.00     0.015 C 
HETATM   17  C11 UNL     1      17.256 -18.768  21.619  1.00  0.00     0.015 C 
ENDBRANCH  14  15
ENDBRANCH  13  14
BRANCH  13  18
HETATM   18  C12 UNL     1      19.084 -14.504  22.804  1.00  0.00     0.092 C 
BRANCH  18  19
HETATM   19  C13 UNL     1      19.819 -14.932  23.990  1.00  0.00     0.031 C 
HETATM   20  C14 UNL     1      21.300 -14.399  23.787  1.00  0.00     0.013 C 
HETATM   21  C15 UNL     1      22.177 -15.210  24.684  1.00  0.00     0.044 C 
HETATM   22  C16 UNL     1      21.770 -14.969  26.097  1.00  0.00     0.242 C 
HETATM   23  F1  UNL     1      21.679 -16.213  26.738  1.00  0.00    -0.243 F 
HETATM   24  C17 UNL     1      20.534 -14.163  26.291  1.00  0.00     0.274 C 
HETATM   25  F2  UNL     1      20.069 -14.476  27.579  1.00  0.00    -0.203 F 
HETATM   26  F3  UNL     1      20.774 -12.791  26.340  1.00  0.00    -0.203 F 
HETATM   27  C18 UNL     1      19.411 -14.462  25.339  1.00  0.00     0.092 C 
ENDBRANCH  18  19
ENDBRANCH  13  18
ENDBRANCH   4  13
BRANCH   1  28
HETATM   28  C2  UNL     1      13.174 -15.092  22.146  1.00  0.00     0.167 C 
HETATM   29  N1  UNL     1      12.247 -14.425  22.721  1.00  0.00    -0.258 N 
ATOM     30  H1  UNL     1      11.370 -14.928  22.853  1.00  0.00     0.194 HD
BRANCH  29  31
HETATM   31  O1  UNL     1      12.254 -13.181  23.170  1.00  0.00    -0.285 OA
HETATM   32  C1  UNL     1      11.185 -12.306  22.786  1.00  0.00     0.237 C 
ENDBRANCH  29  31
BRANCH  28  33
HETATM   33  C3  UNL     1      12.897 -16.465  21.748  1.00  0.00     0.275 C 
HETATM   34  O2  UNL     1      13.236 -17.466  22.470  1.00  0.00    -0.266 OA
HETATM   35  N2  UNL     1      12.238 -16.753  20.544  1.00  0.00    -0.355 N 
HETATM   36  C4  UNL     1      11.777 -15.800  19.605  1.00  0.00     0.152 C 
HETATM   37  C5  UNL     1      12.001 -18.174  20.223  1.00  0.00     0.152 C 
ENDBRANCH  28  33
ENDBRANCH   1  28
TORSDOF 8
ENDMDL
MODEL 4
REMARK VINA RESULT: -8.818378519      1.848      3.541
REMARK  8 active torsions:
REMARK  status: ('A' for Active; 'I' for Inactive)
REMARK    1  A    between atoms: O1_2  and  N1_3 
REMARK    2  A    between atoms: C2_5  and  C3_6 
REMARK    3  A    between atoms: C2_5  and  C6_11 
REMARK       I    between atoms: C3_6  and  N2_8 
REMARK    4  A    between atoms: C7_14  and  N4_15 
REMARK    5  A    between atoms: N4_15  and  C8_16 
REMARK    6  A    between atoms: N4_15  and  C12_20 
REMARK    7  A    between atoms: C8_16  and  C9_17 
REMARK    8  A    between atoms: C12_20  and  C13_21 
ROOT
HETATM    1  C6  UNL     1      14.687 -14.886  21.480  1.00  0.00     0.170 A 
HETATM    2  N3  UNL     1      16.053 -14.696  21.529  1.00  0.00    -0.172 N 
ATOM      3  H3  UNL     1      16.452 -13.848  21.127  1.00  0.00     0.186 HD
HETATM    4  C7  UNL     1      16.854 -15.588  22.085  1.00  0.00     0.704 A 
HETATM    5  N5  UNL     1      16.290 -16.695  22.606  1.00  0.00    -0.022 N 
ATOM      6  H5  UNL     1      16.890 -17.396  23.041  1.00  0.00     0.203 HD
HETATM    7  C19 UNL     1      14.973 -16.907  22.574  1.00  0.00     0.692 A 
HETATM    8  N6  UNL     1      14.478 -17.986  23.088  1.00  0.00    -0.234 N 
ATOM      9  H61 UNL     1      13.472 -18.147  23.064  1.00  0.00     0.174 HD
ATOM     10  H62 UNL     1      15.092 -18.677  23.518  1.00  0.00     0.174 HD
HETATM   11  N7  UNL     1      14.148 -15.976  21.995  1.00  0.00    -0.173 N 
ATOM     12  H7  UNL     1      13.139 -16.123  21.963  1.00  0.00     0.186 HD
ENDROOT
BRANCH   4  13
HETATM   13  N4  UNL     1      18.320 -15.435  22.143  1.00  0.00    -0.175 N 
BRANCH  13  14
HETATM   14  C8  UNL     1      18.870 -14.790  21.001  1.00  0.00     0.091 C 
BRANCH  14  15
HETATM   15  C9  UNL     1      19.471 -13.453  21.061  1.00  0.00     0.017 C 
HETATM   16  C10 UNL     1      18.417 -12.337  21.080  1.00  0.00     0.015 C 
HETATM   17  C11 UNL     1      20.187 -13.296  19.657  1.00  0.00     0.015 C 
ENDBRANCH  14  15
ENDBRANCH  13  14
BRANCH  13  18
HETATM   18  C12 UNL     1      18.964 -15.910  23.290  1.00  0.00     0.092 C 
BRANCH  18  19
HETATM   19  C13 UNL     1      19.579 -15.117  24.350  1.00  0.00     0.031 C 
HETATM   20  C14 UNL     1      19.477 -16.006  25.660  1.00  0.00     0.013 C 
HETATM   21  C15 UNL     1      19.620 -15.079  26.823  1.00  0.00     0.044 C 
HETATM   22  C16 UNL     1      20.971 -14.453  26.772  1.00  0.00     0.242 C 
HETATM   23  F1  UNL     1      20.817 -13.075  26.987  1.00  0.00    -0.243 F 
HETATM   24  C17 UNL     1      21.772 -14.729  25.549  1.00  0.00     0.274 C 
HETATM   25  F2  UNL     1      22.722 -13.698  25.470  1.00  0.00    -0.203 F 
HETATM   26  F3  UNL     1      22.537 -15.891  25.643  1.00  0.00    -0.203 F 
HETATM   27  C18 UNL     1      21.006 -14.712  24.257  1.00  0.00     0.092 C 
ENDBRANCH  18  19
ENDBRANCH  13  18
ENDBRANCH   4  13
BRANCH   1  28
HETATM   28  C2  UNL     1      13.854 -13.849  20.852  1.00  0.00     0.167 C 
HETATM   29  N1  UNL     1      13.075 -14.224  19.911  1.00  0.00    -0.258 N 
ATOM     30  H1  UNL     1      12.496 -13.487  19.508  1.00  0.00     0.194 HD
BRANCH  29  31
HETATM   31  O1  UNL     1      12.905 -15.424  19.382  1.00  0.00    -0.285 OA
HETATM   32  C1  UNL     1      11.618 -16.045  19.486  1.00  0.00     0.237 C 
ENDBRANCH  29  31
BRANCH  28  33
HETATM   33  C3  UNL     1      13.842 -12.447  21.247  1.00  0.00     0.275 C 
HETATM   34  O2  UNL     1      14.664 -11.595  20.760  1.00  0.00    -0.266 OA
HETATM   35  N2  UNL     1      12.920 -11.965  22.187  1.00  0.00    -0.355 N 
HETATM   36  C4  UNL     1      11.929 -12.734  22.842  1.00  0.00     0.152 C 
HETATM   37  C5  UNL     1      12.984 -10.530  22.525  1.00  0.00     0.152 C 
ENDBRANCH  28  33
ENDBRANCH   1  28
TORSDOF 8
ENDMDL
MODEL 5
REMARK VINA RESULT: -8.816622681      1.469      1.642
REMARK  8 active torsions:
REMARK  status: ('A' for Active; 'I' for Inactive)
REMARK    1  A    between atoms: O1_2  and  N1_3 
REMARK    2  A    between atoms: C2_5  and  C3_6 
REMARK    3  A    between atoms: C2_5  and  C6_11 
REMARK       I    between atoms: C3_6  and  N2_8 
REMARK    4  A    between atoms: C7_14  and  N4_15 
REMARK    5  A    between atoms: N4_15  and  C8_16 
REMARK    6  A    between atoms: N4_15  and  C12_20 
REMARK    7  A    between atoms: C8_16  and  C9_17 
REMARK    8  A    between atoms: C12_20  and  C13_21 
ROOT
HETATM    1  C6  UNL     1      14.109 -14.311  20.974  1.00  0.00     0.170 A 
HETATM    2  N3  UNL     1      15.464 -14.457  21.187  1.00  0.00    -0.172 N 
ATOM      3  H3  UNL     1      15.787 -15.061  21.942  1.00  0.00     0.186 HD
HETATM    4  C7  UNL     1      16.352 -13.832  20.434  1.00  0.00     0.704 A 
HETATM    5  N5  UNL     1      15.887 -13.043  19.445  1.00  0.00    -0.022 N 
ATOM      6  H5  UNL     1      16.556 -12.553  18.851  1.00  0.00     0.203 HD
HETATM    7  C19 UNL     1      14.584 -12.882  19.214  1.00  0.00     0.692 A 
HETATM    8  N6  UNL     1      14.186 -12.114  18.253  1.00  0.00    -0.234 N 
ATOM      9  H61 UNL     1      13.189 -11.992  18.076  1.00  0.00     0.174 HD
ATOM     10  H62 UNL     1      14.867 -11.629  17.669  1.00  0.00     0.174 HD
HETATM   11  N7  UNL     1      13.668 -13.535  20.000  1.00  0.00    -0.173 N 
ATOM     12  H7  UNL     1      12.667 -13.423  19.837  1.00  0.00     0.186 HD
ENDROOT
BRANCH   4  13
HETATM   13  N4  UNL     1      17.809 -13.944  20.638  1.00  0.00    -0.175 N 
BRANCH  13  14
HETATM   14  C8  UNL     1      18.570 -13.098  19.785  1.00  0.00     0.091 C 
BRANCH  14  15
HETATM   15  C9  UNL     1      19.978 -13.358  19.464  1.00  0.00     0.017 C 
HETATM   16  C10 UNL     1      20.937 -12.529  20.329  1.00  0.00     0.015 C 
HETATM   17  C11 UNL     1      20.149 -12.767  18.006  1.00  0.00     0.015 C 
ENDBRANCH  14  15
ENDBRANCH  13  14
BRANCH  13  18
HETATM   18  C12 UNL     1      18.245 -14.829  21.630  1.00  0.00     0.092 C 
BRANCH  18  19
HETATM   19  C13 UNL     1      18.879 -14.488  22.900  1.00  0.00     0.031 C 
HETATM   20  C14 UNL     1      18.349 -15.561  23.941  1.00  0.00     0.013 C 
HETATM   21  C15 UNL     1      18.554 -14.978  25.302  1.00  0.00     0.044 C 
HETATM   22  C16 UNL     1      20.014 -14.777  25.522  1.00  0.00     0.242 C 
HETATM   23  F1  UNL     1      20.198 -13.490  26.049  1.00  0.00    -0.243 F 
HETATM   24  C17 UNL     1      20.890 -15.014  24.342  1.00  0.00     0.274 C 
HETATM   25  F2  UNL     1      22.078 -14.311  24.598  1.00  0.00    -0.203 F 
HETATM   26  F3  UNL     1      21.298 -16.341  24.217  1.00  0.00    -0.203 F 
HETATM   27  C18 UNL     1      20.359 -14.506  23.031  1.00  0.00     0.092 C 
ENDBRANCH  18  19
ENDBRANCH  13  18
ENDBRANCH   4  13
BRANCH   1  28
HETATM   28  C2  UNL     1      13.176 -15.042  21.846  1.00  0.00     0.167 C 
HETATM   29  N1  UNL     1      12.502 -14.349  22.682  1.00  0.00    -0.258 N 
ATOM     30  H1  UNL     1      11.851 -14.881  23.260  1.00  0.00     0.194 HD
BRANCH  29  31
HETATM   31  O1  UNL     1      12.523 -13.047  22.912  1.00  0.00    -0.285 OA
HETATM   32  C1  UNL     1      11.303 -12.306  22.774  1.00  0.00     0.237 C 
ENDBRANCH  29  31
BRANCH  28  33
HETATM   33  C3  UNL     1      12.956 -16.481  21.799  1.00  0.00     0.275 C 
HETATM   34  O2  UNL     1      13.467 -17.277  22.662  1.00  0.00    -0.266 OA
HETATM   35  N2  UNL     1      12.166 -17.063  20.797  1.00  0.00    -0.355 N 
HETATM   36  C4  UNL     1      11.510 -16.367  19.754  1.00  0.00     0.152 C 
HETATM   37  C5  UNL     1      12.000 -18.529  20.830  1.00  0.00     0.152 C 
ENDBRANCH  28  33
ENDBRANCH   1  28
TORSDOF 8
ENDMDL
