MODEL 1
REMARK VINA RESULT: -7.331717741      0.000      0.000
REMARK  10 active torsions:
REMARK  status: ('A' for Active; 'I' for Inactive)
REMARK    1  A    between atoms: C2_2  and  C3_3 
REMARK    2  A    between atoms: C3_3  and  N1_4 
REMARK    3  A    between atoms: N1_4  and  C4_5 
REMARK    4  A    between atoms: N1_4  and  C6_8 
REMARK    5  A    between atoms: C4_5  and  C5_6 
REMARK    6  A    between atoms: C6_8  and  C7_13 
REMARK    7  A    between atoms: N2_9  and  O1_11 
REMARK    8  A    between atoms: N3_15  and  C9_16 
REMARK    9  A    between atoms: C12_20  and  N4_21 
REMARK   10  A    between atoms: C14_23  and  O2_24 
ROOT
HETATM    1  C7  UNL     1      14.552 -13.731  20.541  1.00  0.00     0.120 C 
HETATM    2  C8  UNL     1      15.251 -13.702  21.921  1.00  0.00     0.141 C 
HETATM    3  N3  UNL     1      16.618 -13.319  21.590  1.00  0.00    -0.374 N 
HETATM    4  C18 UNL     1      16.479 -12.318  20.586  1.00  0.00     0.176 C 
HETATM    5  C19 UNL     1      15.310 -12.762  19.796  1.00  0.00     0.013 C 
HETATM    6  N5  UNL     1      15.061 -12.331  18.629  1.00  0.00    -0.399 N 
ATOM      7  H5  UNL     1      15.714 -11.639  18.259  1.00  0.00     0.158 HD
HETATM    8  C20 UNL     1      13.995 -12.688  17.779  1.00  0.00     0.145 C 
ENDROOT
BRANCH   3   9
HETATM    9  C9  UNL     1      17.821 -13.822  22.133  1.00  0.00     0.036 A 
HETATM   10  C10 UNL     1      17.816 -14.610  23.267  1.00  0.00     0.074 A 
HETATM   11  C11 UNL     1      18.979 -15.110  23.789  1.00  0.00     0.150 A 
HETATM   12  F1  UNL     1      18.968 -15.893  24.918  1.00  0.00    -0.203 F 
HETATM   13  C12 UNL     1      20.196 -14.831  23.186  1.00  0.00     0.134 A 
HETATM   14  C16 UNL     1      20.185 -14.049  22.063  1.00  0.00     0.150 A 
HETATM   15  F2  UNL     1      21.335 -13.733  21.414  1.00  0.00    -0.203 F 
HETATM   16  C17 UNL     1      19.018 -13.541  21.528  1.00  0.00     0.074 A 
BRANCH  13  17
HETATM   17  N4  UNL     1      21.411 -15.356  23.722  1.00  0.00    -0.250 N 
HETATM   18  C13 UNL     1      22.401 -14.639  24.465  1.00  0.00     0.190 C 
HETATM   19  C14 UNL     1      23.476 -15.675  24.783  1.00  0.00     0.164 C 
HETATM   20  C15 UNL     1      22.714 -16.963  24.517  1.00  0.00     0.234 C 
HETATM   21  O3  UNL     1      21.773 -16.654  23.570  1.00  0.00    -0.275 OA
BRANCH  19  22
HETATM   22  O2  UNL     1      24.527 -15.549  23.904  1.00  0.00    -0.392 OA
ATOM     23  H2  UNL     1      24.900 -16.403  23.718  1.00  0.00     0.210 HD
ENDBRANCH  19  22
ENDBRANCH  13  17
ENDBRANCH   3   9
BRANCH   1  24
HETATM   24  C6  UNL     1      13.150 -13.551  20.797  1.00  0.00     0.114 C 
HETATM   25  N2  UNL     1      12.396 -14.583  20.589  1.00  0.00    -0.256 N 
ATOM     26  H2  UNL     1      11.396 -14.475  20.765  1.00  0.00     0.195 HD
BRANCH  24  27
HETATM   27  N1  UNL     1      12.435 -12.401  21.251  1.00  0.00    -0.347 N 
BRANCH  27  28
HETATM   28  C3  UNL     1      11.292 -12.669  22.092  1.00  0.00     0.129 C 
BRANCH  28  29
HETATM   29  C2  UNL     1      11.689 -12.973  23.535  1.00  0.00     0.016 C 
HETATM   30  C1  UNL     1      10.864 -12.035  24.410  1.00  0.00     0.006 C 
ENDBRANCH  28  29
ENDBRANCH  27  28
BRANCH  27  31
HETATM   31  C4  UNL     1      12.750 -11.065  20.943  1.00  0.00     0.080 C 
BRANCH  31  32
HETATM   32  C5  UNL     1      13.636 -10.338  21.900  1.00  0.00     0.159 C 
HETATM   33 CL1  UNL     1      12.885  -9.584  23.279  1.00  0.00    -0.125 Cl
ENDBRANCH  31  32
ENDBRANCH  27  31
ENDBRANCH  24  27
BRANCH  25  34
HETATM   34  O1  UNL     1      12.826 -15.800  20.156  1.00  0.00    -0.288 OA
ATOM     35  H1  UNL     1      12.520 -16.245  19.374  1.00  0.00     0.244 HD
ENDBRANCH  25  34
ENDBRANCH   1  24
TORSDOF 10
ENDMDL
MODEL 2
REMARK VINA RESULT: -7.107952434      1.013      1.748
REMARK  10 active torsions:
REMARK  status: ('A' for Active; 'I' for Inactive)
REMARK    1  A    between atoms: C2_2  and  C3_3 
REMARK    2  A    between atoms: C3_3  and  N1_4 
REMARK    3  A    between atoms: N1_4  and  C4_5 
REMARK    4  A    between atoms: N1_4  and  C6_8 
REMARK    5  A    between atoms: C4_5  and  C5_6 
REMARK    6  A    between atoms: C6_8  and  C7_13 
REMARK    7  A    between atoms: N2_9  and  O1_11 
REMARK    8  A    between atoms: N3_15  and  C9_16 
REMARK    9  A    between atoms: C12_20  and  N4_21 
REMARK   10  A    between atoms: C14_23  and  O2_24 
ROOT
HETATM    1  C7  UNL     1      15.035 -14.210  20.730  1.00  0.00     0.120 C 
HETATM    2  C8  UNL     1      15.649 -14.413  22.136  1.00  0.00     0.141 C 
HETATM    3  N3  UNL     1      17.044 -14.037  21.943  1.00  0.00    -0.374 N 
HETATM    4  C18 UNL     1      16.997 -12.894  21.095  1.00  0.00     0.176 C 
HETATM    5  C19 UNL     1      15.866 -13.171  20.183  1.00  0.00     0.013 C 
HETATM    6  N5  UNL     1      15.701 -12.563  19.081  1.00  0.00    -0.399 N 
ATOM      7  H5  UNL     1      16.396 -11.850  18.856  1.00  0.00     0.158 HD
HETATM    8  C20 UNL     1      14.679 -12.750  18.129  1.00  0.00     0.145 C 
ENDROOT
BRANCH   3   9
HETATM    9  C9  UNL     1      18.196 -14.661  22.471  1.00  0.00     0.036 A 
HETATM   10  C10 UNL     1      19.442 -14.077  22.348  1.00  0.00     0.074 A 
HETATM   11  C11 UNL     1      20.560 -14.672  22.869  1.00  0.00     0.150 A 
HETATM   12  F1  UNL     1      21.796 -14.088  22.744  1.00  0.00    -0.203 F 
HETATM   13  C12 UNL     1      20.463 -15.885  23.535  1.00  0.00     0.134 A 
HETATM   14  C16 UNL     1      19.222 -16.451  23.648  1.00  0.00     0.150 A 
HETATM   15  F2  UNL     1      19.046 -17.636  24.287  1.00  0.00    -0.203 F 
HETATM   16  C17 UNL     1      18.090 -15.859  23.128  1.00  0.00     0.074 A 
BRANCH  13  17
HETATM   17  N4  UNL     1      21.624 -16.507  24.087  1.00  0.00    -0.250 N 
HETATM   18  C13 UNL     1      22.234 -16.219  25.349  1.00  0.00     0.190 C 
HETATM   19  C14 UNL     1      23.430 -17.165  25.428  1.00  0.00     0.164 C 
HETATM   20  C15 UNL     1      23.068 -18.168  24.346  1.00  0.00     0.234 C 
HETATM   21  O3  UNL     1      22.306 -17.482  23.437  1.00  0.00    -0.275 OA
BRANCH  19  22
HETATM   22  O2  UNL     1      24.584 -16.495  25.095  1.00  0.00    -0.392 OA
ATOM     23  H2  UNL     1      25.284 -16.735  25.692  1.00  0.00     0.210 HD
ENDBRANCH  19  22
ENDBRANCH  13  17
ENDBRANCH   3   9
BRANCH   1  24
HETATM   24  C6  UNL     1      13.626 -14.017  20.931  1.00  0.00     0.114 C 
HETATM   25  N2  UNL     1      12.851 -14.947  20.471  1.00  0.00    -0.256 N 
ATOM     26  H2  UNL     1      11.847 -14.827  20.603  1.00  0.00     0.195 HD
BRANCH  24  27
HETATM   27  N1  UNL     1      12.923 -12.948  21.567  1.00  0.00    -0.347 N 
BRANCH  27  28
HETATM   28  C3  UNL     1      12.266 -13.286  22.808  1.00  0.00     0.129 C 
BRANCH  28  29
HETATM   29  C2  UNL     1      10.926 -12.573  22.970  1.00  0.00     0.016 C 
HETATM   30  C1  UNL     1      10.858 -12.117  24.424  1.00  0.00     0.006 C 
ENDBRANCH  28  29
ENDBRANCH  27  28
BRANCH  27  31
HETATM   31  C4  UNL     1      12.820 -11.631  21.082  1.00  0.00     0.080 C 
BRANCH  31  32
HETATM   32  C5  UNL     1      13.698 -10.604  21.715  1.00  0.00     0.159 C 
HETATM   33 CL1  UNL     1      13.044  -9.698  23.051  1.00  0.00    -0.125 Cl
ENDBRANCH  31  32
ENDBRANCH  27  31
ENDBRANCH  24  27
BRANCH  25  34
HETATM   34  O1  UNL     1      13.267 -16.071  19.824  1.00  0.00    -0.288 OA
ATOM     35  H1  UNL     1      12.703 -16.679  19.362  1.00  0.00     0.244 HD
ENDBRANCH  25  34
ENDBRANCH   1  24
TORSDOF 10
ENDMDL
MODEL 3
REMARK VINA RESULT: -6.941016961      2.267      2.909
REMARK  10 active torsions:
REMARK  status: ('A' for Active; 'I' for Inactive)
REMARK    1  A    between atoms: C2_2  and  C3_3 
REMARK    2  A    between atoms: C3_3  and  N1_4 
REMARK    3  A    between atoms: N1_4  and  C4_5 
REMARK    4  A    between atoms: N1_4  and  C6_8 
REMARK    5  A    between atoms: C4_5  and  C5_6 
REMARK    6  A    between atoms: C6_8  and  C7_13 
REMARK    7  A    between atoms: N2_9  and  O1_11 
REMARK    8  A    between atoms: N3_15  and  C9_16 
REMARK    9  A    between atoms: C12_20  and  N4_21 
REMARK   10  A    between atoms: C14_23  and  O2_24 
ROOT
HETATM    1  C7  UNL     1      14.817 -14.881  21.810  1.00  0.00     0.120 C 
HETATM    2  C8  UNL     1      16.159 -14.173  22.116  1.00  0.00     0.141 C 
HETATM    3  N3  UNL     1      17.152 -15.156  21.699  1.00  0.00    -0.374 N 
HETATM    4  C18 UNL     1      16.633 -15.704  20.492  1.00  0.00     0.176 C 
HETATM    5  C19 UNL     1      15.171 -15.743  20.715  1.00  0.00     0.013 C 
HETATM    6  N5  UNL     1      14.385 -16.458  20.021  1.00  0.00    -0.399 N 
ATOM      7  H5  UNL     1      14.818 -17.008  19.279  1.00  0.00     0.158 HD
HETATM    8  C20 UNL     1      12.987 -16.588  20.149  1.00  0.00     0.145 C 
ENDROOT
BRANCH   3   9
HETATM    9  C9  UNL     1      18.361 -15.501  22.342  1.00  0.00     0.036 A 
HETATM   10  C10 UNL     1      18.792 -14.817  23.462  1.00  0.00     0.074 A 
HETATM   11  C11 UNL     1      19.958 -15.156  24.095  1.00  0.00     0.150 A 
HETATM   12  F1  UNL     1      20.383 -14.474  25.209  1.00  0.00    -0.203 F 
HETATM   13  C12 UNL     1      20.737 -16.201  23.620  1.00  0.00     0.134 A 
HETATM   14  C16 UNL     1      20.297 -16.868  22.509  1.00  0.00     0.150 A 
HETATM   15  F2  UNL     1      21.003 -17.902  21.984  1.00  0.00    -0.203 F 
HETATM   16  C17 UNL     1      19.123 -16.535  21.865  1.00  0.00     0.074 A 
BRANCH  13  17
HETATM   17  N4  UNL     1      21.950 -16.563  24.281  1.00  0.00    -0.250 N 
HETATM   18  C13 UNL     1      22.193 -17.754  25.037  1.00  0.00     0.190 C 
HETATM   19  C14 UNL     1      23.638 -17.624  25.514  1.00  0.00     0.164 C 
HETATM   20  C15 UNL     1      24.146 -16.537  24.582  1.00  0.00     0.234 C 
HETATM   21  O3  UNL     1      23.053 -15.775  24.262  1.00  0.00    -0.275 OA
BRANCH  19  22
HETATM   22  O2  UNL     1      23.667 -17.190  26.819  1.00  0.00    -0.392 OA
ATOM     23  H2  UNL     1      24.555 -16.960  27.066  1.00  0.00     0.210 HD
ENDBRANCH  19  22
ENDBRANCH  13  17
ENDBRANCH   3   9
BRANCH   1  24
HETATM   24  C6  UNL     1      13.839 -13.840  21.661  1.00  0.00     0.114 C 
HETATM   25  N2  UNL     1      12.750 -13.978  22.349  1.00  0.00    -0.256 N 
ATOM     26  H2  UNL     1      12.042 -13.249  22.256  1.00  0.00     0.195 HD
BRANCH  24  27
HETATM   27  N1  UNL     1      13.867 -12.654  20.865  1.00  0.00    -0.347 N 
BRANCH  27  28
HETATM   28  C3  UNL     1      14.219 -11.441  21.565  1.00  0.00     0.129 C 
BRANCH  28  29
HETATM   29  C2  UNL     1      13.081 -10.424  21.574  1.00  0.00     0.016 C 
HETATM   30  C1  UNL     1      12.522 -10.423  22.994  1.00  0.00     0.006 C 
ENDBRANCH  28  29
ENDBRANCH  27  28
BRANCH  27  31
HETATM   31  C4  UNL     1      13.578 -12.583  19.489  1.00  0.00     0.080 C 
BRANCH  31  32
HETATM   32  C5  UNL     1      14.631 -13.067  18.549  1.00  0.00     0.159 C 
HETATM   33 CL1  UNL     1      16.267 -12.538  18.831  1.00  0.00    -0.125 Cl
ENDBRANCH  31  32
ENDBRANCH  27  31
ENDBRANCH  24  27
BRANCH  25  34
HETATM   34  O1  UNL     1      12.472 -15.015  23.186  1.00  0.00    -0.288 OA
ATOM     35  H1  UNL     1      11.898 -14.973  23.942  1.00  0.00     0.244 HD
ENDBRANCH  25  34
ENDBRANCH   1  24
TORSDOF 10
ENDMDL
MODEL 4
REMARK VINA RESULT: -6.919942915      1.908      2.263
REMARK  10 active torsions:
REMARK  status: ('A' for Active; 'I' for Inactive)
REMARK    1  A    between atoms: C2_2  and  C3_3 
REMARK    2  A    between atoms: C3_3  and  N1_4 
REMARK    3  A    between atoms: N1_4  and  C4_5 
REMARK    4  A    between atoms: N1_4  and  C6_8 
REMARK    5  A    between atoms: C4_5  and  C5_6 
REMARK    6  A    between atoms: C6_8  and  C7_13 
REMARK    7  A    between atoms: N2_9  and  O1_11 
REMARK    8  A    between atoms: N3_15  and  C9_16 
REMARK    9  A    between atoms: C12_20  and  N4_21 
REMARK   10  A    between atoms: C14_23  and  O2_24 
ROOT
HETATM    1  C7  UNL     1      15.901 -14.287  19.652  1.00  0.00     0.120 C 
HETATM    2  C8  UNL     1      16.183 -14.677  21.122  1.00  0.00     0.141 C 
HETATM    3  N3  UNL     1      17.489 -14.080  21.377  1.00  0.00    -0.374 N 
HETATM    4  C18 UNL     1      17.435 -12.810  20.736  1.00  0.00     0.176 C 
HETATM    5  C19 UNL     1      16.631 -13.055  19.519  1.00  0.00     0.013 C 
HETATM    6  N5  UNL     1      16.628 -12.269  18.523  1.00  0.00    -0.399 N 
ATOM      7  H5  UNL     1      17.210 -11.436  18.609  1.00  0.00     0.158 HD
HETATM    8  C20 UNL     1      15.919 -12.403  17.312  1.00  0.00     0.145 C 
ENDROOT
BRANCH   3   9
HETATM    9  C9  UNL     1      18.574 -14.630  22.094  1.00  0.00     0.036 A 
HETATM   10  C10 UNL     1      19.017 -14.052  23.267  1.00  0.00     0.074 A 
HETATM   11  C11 UNL     1      20.062 -14.589  23.972  1.00  0.00     0.150 A 
HETATM   12  F1  UNL     1      20.499 -14.011  25.139  1.00  0.00    -0.203 F 
HETATM   13  C12 UNL     1      20.702 -15.732  23.517  1.00  0.00     0.134 A 
HETATM   14  C16 UNL     1      20.251 -16.292  22.352  1.00  0.00     0.150 A 
HETATM   15  F2  UNL     1      20.825 -17.413  21.843  1.00  0.00    -0.203 F 
HETATM   16  C17 UNL     1      19.199 -15.760  21.636  1.00  0.00     0.074 A 
BRANCH  13  17
HETATM   17  N4  UNL     1      21.787 -16.300  24.252  1.00  0.00    -0.250 N 
HETATM   18  C13 UNL     1      21.733 -17.437  25.120  1.00  0.00     0.190 C 
HETATM   19  C14 UNL     1      23.161 -17.600  25.636  1.00  0.00     0.164 C 
HETATM   20  C15 UNL     1      23.923 -16.753  24.630  1.00  0.00     0.234 C 
HETATM   21  O3  UNL     1      23.043 -15.793  24.204  1.00  0.00    -0.275 OA
BRANCH  19  22
HETATM   22  O2  UNL     1      23.271 -17.062  26.897  1.00  0.00    -0.392 OA
ATOM     23  H2  UNL     1      22.602 -17.425  27.466  1.00  0.00     0.210 HD
ENDBRANCH  19  22
ENDBRANCH  13  17
ENDBRANCH   3   9
BRANCH   1  24
HETATM   24  C6  UNL     1      14.475 -14.335  19.489  1.00  0.00     0.114 C 
HETATM   25  N2  UNL     1      14.028 -15.190  18.625  1.00  0.00    -0.256 N 
ATOM     26  H2  UNL     1      13.017 -15.239  18.495  1.00  0.00     0.195 HD
BRANCH  24  27
HETATM   27  N1  UNL     1      13.446 -13.583  20.136  1.00  0.00    -0.347 N 
BRANCH  27  28
HETATM   28  C3  UNL     1      12.332 -14.354  20.636  1.00  0.00     0.129 C 
BRANCH  28  29
HETATM   29  C2  UNL     1      12.674 -15.107  21.920  1.00  0.00     0.016 C 
HETATM   30  C1  UNL     1      12.427 -16.583  21.627  1.00  0.00     0.006 C 
ENDBRANCH  28  29
ENDBRANCH  27  28
BRANCH  27  31
HETATM   31  C4  UNL     1      13.437 -12.187  20.310  1.00  0.00     0.080 C 
BRANCH  31  32
HETATM   32  C5  UNL     1      13.914 -11.663  21.623  1.00  0.00     0.159 C 
HETATM   33 CL1  UNL     1      12.721 -11.003  22.708  1.00  0.00    -0.125 Cl
ENDBRANCH  31  32
ENDBRANCH  27  31
ENDBRANCH  24  27
BRANCH  25  34
HETATM   34  O1  UNL     1      14.796 -16.028  17.875  1.00  0.00    -0.288 OA
ATOM     35  H1  UNL     1      15.712 -16.221  18.032  1.00  0.00     0.244 HD
ENDBRANCH  25  34
ENDBRANCH   1  24
TORSDOF 10
ENDMDL
MODEL 5
REMARK VINA RESULT: -6.917065345      1.544      2.641
REMARK  10 active torsions:
REMARK  status: ('A' for Active; 'I' for Inactive)
REMARK    1  A    between atoms: C2_2  and  C3_3 
REMARK    2  A    between atoms: C3_3  and  N1_4 
REMARK    3  A    between atoms: N1_4  and  C4_5 
REMARK    4  A    between atoms: N1_4  and  C6_8 
REMARK    5  A    between atoms: C4_5  and  C5_6 
REMARK    6  A    between atoms: C6_8  and  C7_13 
REMARK    7  A    between atoms: N2_9  and  O1_11 
REMARK    8  A    between atoms: N3_15  and  C9_16 
REMARK    9  A    between atoms: C12_20  and  N4_21 
REMARK   10  A    between atoms: C14_23  and  O2_24 
ROOT
HETATM    1  C7  UNL     1      14.202 -14.360  21.957  1.00  0.00     0.120 C 
HETATM    2  C8  UNL     1      15.574 -13.647  21.900  1.00  0.00     0.141 C 
HETATM    3  N3  UNL     1      16.500 -14.738  21.620  1.00  0.00    -0.374 N 
HETATM    4  C18 UNL     1      15.823 -15.550  20.666  1.00  0.00     0.176 C 
HETATM    5  C19 UNL     1      14.404 -15.479  21.077  1.00  0.00     0.013 C 
HETATM    6  N5  UNL     1      13.530 -16.315  20.693  1.00  0.00    -0.399 N 
ATOM      7  H5  UNL     1      13.859 -17.048  20.063  1.00  0.00     0.158 HD
HETATM    8  C20 UNL     1      12.161 -16.358  21.027  1.00  0.00     0.145 C 
ENDROOT
BRANCH   3   9
HETATM    9  C9  UNL     1      17.783 -14.956  22.168  1.00  0.00     0.036 A 
HETATM   10  C10 UNL     1      17.968 -15.824  23.225  1.00  0.00     0.074 A 
HETATM   11  C11 UNL     1      19.213 -16.047  23.752  1.00  0.00     0.150 A 
HETATM   12  F1  UNL     1      19.392 -16.912  24.803  1.00  0.00    -0.203 F 
HETATM   13  C12 UNL     1      20.322 -15.398  23.229  1.00  0.00     0.134 A 
HETATM   14  C16 UNL     1      20.122 -14.540  22.182  1.00  0.00     0.150 A 
HETATM   15  F2  UNL     1      21.158 -13.869  21.616  1.00  0.00    -0.203 F 
HETATM   16  C17 UNL     1      18.873 -14.310  21.644  1.00  0.00     0.074 A 
BRANCH  13  17
HETATM   17  N4  UNL     1      21.623 -15.632  23.770  1.00  0.00    -0.250 N 
HETATM   18  C13 UNL     1      22.453 -14.685  24.449  1.00  0.00     0.190 C 
HETATM   19  C14 UNL     1      23.719 -15.461  24.804  1.00  0.00     0.164 C 
HETATM   20  C15 UNL     1      23.233 -16.890  24.629  1.00  0.00     0.234 C 
HETATM   21  O3  UNL     1      22.240 -16.836  23.686  1.00  0.00    -0.275 OA
BRANCH  19  22
HETATM   22  O2  UNL     1      24.715 -15.179  23.897  1.00  0.00    -0.392 OA
ATOM     23  H2  UNL     1      25.531 -15.006  24.353  1.00  0.00     0.210 HD
ENDBRANCH  19  22
ENDBRANCH  13  17
ENDBRANCH   3   9
BRANCH   1  24
HETATM   24  C6  UNL     1      13.215 -13.354  21.677  1.00  0.00     0.114 C 
HETATM   25  N2  UNL     1      12.248 -13.250  22.532  1.00  0.00    -0.256 N 
ATOM     26  H2  UNL     1      11.537 -12.542  22.351  1.00  0.00     0.195 HD
BRANCH  24  27
HETATM   27  N1  UNL     1      13.121 -12.429  20.592  1.00  0.00    -0.347 N 
BRANCH  27  28
HETATM   28  C3  UNL     1      13.262 -13.000  19.273  1.00  0.00     0.129 C 
BRANCH  28  29
HETATM   29  C2  UNL     1      14.595 -12.639  18.622  1.00  0.00     0.016 C 
HETATM   30  C1  UNL     1      14.856 -13.707  17.565  1.00  0.00     0.006 C 
ENDBRANCH  28  29
ENDBRANCH  27  28
BRANCH  27  31
HETATM   31  C4  UNL     1      12.915 -11.043  20.712  1.00  0.00     0.080 C 
BRANCH  31  32
HETATM   32  C5  UNL     1      13.630 -10.343  21.819  1.00  0.00     0.159 C 
HETATM   33 CL1  UNL     1      12.716  -9.961  23.252  1.00  0.00    -0.125 Cl
ENDBRANCH  31  32
ENDBRANCH  27  31
ENDBRANCH  24  27
BRANCH  25  34
HETATM   34  O1  UNL     1      12.102 -14.010  23.653  1.00  0.00    -0.288 OA
ATOM     35  H1  UNL     1      11.274 -14.294  24.021  1.00  0.00     0.244 HD
ENDBRANCH  25  34
ENDBRANCH   1  24
TORSDOF 10
ENDMDL
