MODEL 1
REMARK VINA RESULT: -7.487959992      0.000      0.000
REMARK  12 active torsions:
REMARK  status: ('A' for Active; 'I' for Inactive)
REMARK    1  A    between atoms: N1_5  and  C5_6 
REMARK    2  A    between atoms: C5_6  and  O1_7 
REMARK    3  A    between atoms: C5_6  and  C6_9 
REMARK    4  A    between atoms: C6_9  and  O2_10 
REMARK    5  A    between atoms: C6_9  and  C7_12 
REMARK    6  A    between atoms: C6_9  and  C15_24 
REMARK    7  A    between atoms: C7_12  and  N2_13 
REMARK    8  A    between atoms: N2_13  and  C8_14 
REMARK    9  A    between atoms: N2_13  and  C13_19 
REMARK   10  A    between atoms: C8_14  and  C9_15 
REMARK   11  A    between atoms: C13_19  and  C14_20 
REMARK   12  A    between atoms: C15_24  and  N3_25 
ROOT
HETATM    1  C6  UNL     1      15.502 -13.269  21.278  1.00  0.00     0.161 C 
ENDROOT
BRANCH   1   2
HETATM    2  C5  UNL     1      15.326 -14.475  20.489  1.00  0.00     0.399 C 
BRANCH   2   3
HETATM    3  N1  UNL     1      14.374 -15.469  20.837  1.00  0.00     0.130 N 
HETATM    4  C4  UNL     1      13.077 -15.420  20.264  1.00  0.00     0.281 C 
HETATM    5  C3  UNL     1      12.146 -16.433  20.914  1.00  0.00     0.063 C 
HETATM    6  C2  UNL     1      12.766 -17.690  21.305  1.00  0.00    -0.085 C 
HETATM    7  C1  UNL     1      12.110 -18.836  21.306  1.00  0.00     0.014 C 
HETATM    8  C21 UNL     1      14.212 -17.653  21.717  1.00  0.00     0.074 C 
HETATM    9  C18 UNL     1      14.893 -16.803  20.640  1.00  0.00     0.159 C 
HETATM   10  C19 UNL     1      14.533 -17.428  19.329  1.00  0.00     0.049 C 
HETATM   11  C20 UNL     1      16.366 -16.969  20.833  1.00  0.00     0.049 C 
ENDBRANCH   2   3
BRANCH   2  12
HETATM   12  O1  UNL     1      14.951 -13.985  19.168  1.00  0.00    -0.365 OA
ATOM     13  H1  UNL     1      14.807 -13.051  19.257  1.00  0.00     0.212 HD
ENDBRANCH   2  12
ENDBRANCH   1   2
BRANCH   1  14
HETATM   14  O2  UNL     1      15.245 -13.597  22.686  1.00  0.00    -0.378 OA
ATOM     15  H2  UNL     1      15.903 -13.165  23.219  1.00  0.00     0.211 HD
ENDBRANCH   1  14
BRANCH   1  16
HETATM   16  C7  UNL     1      16.881 -12.665  21.339  1.00  0.00     0.107 C 
BRANCH  16  17
HETATM   17  N2  UNL     1      18.058 -13.378  21.222  1.00  0.00    -0.362 N 
BRANCH  17  18
HETATM   18  C8  UNL     1      18.937 -13.558  22.270  1.00  0.00     0.072 C 
BRANCH  18  19
HETATM   19  C9  UNL     1      19.099 -14.869  22.960  1.00  0.00    -0.019 C 
HETATM   20  C10 UNL     1      20.318 -14.646  23.907  1.00  0.00     0.020 C 
HETATM   21  C11 UNL     1      17.948 -15.147  23.923  1.00  0.00     0.020 C 
HETATM   22  C12 UNL     1      19.416 -16.077  22.193  1.00  0.00     0.020 C 
ENDBRANCH  18  19
ENDBRANCH  17  18
BRANCH  17  23
HETATM   23  C13 UNL     1      18.581 -13.233  19.876  1.00  0.00     0.244 C 
BRANCH  23  24
HETATM   24  C14 UNL     1      20.030 -13.307  19.669  1.00  0.00     0.403 C 
HETATM   25  F1  UNL     1      20.599 -14.549  19.785  1.00  0.00    -0.169 F 
HETATM   26  F2  UNL     1      20.815 -12.387  20.321  1.00  0.00    -0.169 F 
HETATM   27  F3  UNL     1      20.247 -12.985  18.298  1.00  0.00    -0.169 F 
ENDBRANCH  23  24
ENDBRANCH  17  23
ENDBRANCH  16  17
ENDBRANCH   1  16
BRANCH   1  28
HETATM   28  C15 UNL     1      14.487 -12.212  20.984  1.00  0.00     0.198 C 
BRANCH  28  29
HETATM   29  N3  UNL     1      13.483 -11.885  21.942  1.00  0.00    -0.283 N 
HETATM   30  C16 UNL     1      13.205 -10.625  22.351  1.00  0.00     0.201 A 
HETATM   31  N4  UNL     1      12.167 -10.683  23.185  1.00  0.00    -0.346 N 
HETATM   32  C17 UNL     1      11.786 -11.945  23.308  1.00  0.00     0.198 A 
ATOM     33  H4  UNL     1      11.736  -9.885  23.651  1.00  0.00     0.167 HD
HETATM   34  N5  UNL     1      12.603 -12.663  22.542  1.00  0.00    -0.293 N 
ATOM     35  H5  UNL     1      12.555 -13.676  22.433  1.00  0.00     0.188 HD
ENDBRANCH  28  29
ENDBRANCH   1  28
TORSDOF 12
ENDMDL
MODEL 2
REMARK VINA RESULT: -7.240491041      2.074      5.497
REMARK  12 active torsions:
REMARK  status: ('A' for Active; 'I' for Inactive)
REMARK    1  A    between atoms: N1_5  and  C5_6 
REMARK    2  A    between atoms: C5_6  and  O1_7 
REMARK    3  A    between atoms: C5_6  and  C6_9 
REMARK    4  A    between atoms: C6_9  and  O2_10 
REMARK    5  A    between atoms: C6_9  and  C7_12 
REMARK    6  A    between atoms: C6_9  and  C15_24 
REMARK    7  A    between atoms: C7_12  and  N2_13 
REMARK    8  A    between atoms: N2_13  and  C8_14 
REMARK    9  A    between atoms: N2_13  and  C13_19 
REMARK   10  A    between atoms: C8_14  and  C9_15 
REMARK   11  A    between atoms: C13_19  and  C14_20 
REMARK   12  A    between atoms: C15_24  and  N3_25 
ROOT
HETATM    1  C6  UNL     1      16.809 -15.322  22.075  1.00  0.00     0.161 C 
ENDROOT
BRANCH   1   2
HETATM    2  C5  UNL     1      17.725 -16.036  22.946  1.00  0.00     0.399 C 
BRANCH   2   3
HETATM    3  N1  UNL     1      18.816 -15.389  23.583  1.00  0.00     0.130 N 
HETATM    4  C4  UNL     1      18.712 -15.037  24.953  1.00  0.00     0.281 C 
HETATM    5  C3  UNL     1      19.885 -14.173  25.395  1.00  0.00     0.063 C 
HETATM    6  C2  UNL     1      21.163 -14.496  24.780  1.00  0.00    -0.085 C 
HETATM    7  C1  UNL     1      22.315 -14.325  25.403  1.00  0.00     0.014 C 
HETATM    8  C21 UNL     1      21.142 -15.045  23.379  1.00  0.00     0.074 C 
HETATM    9  C18 UNL     1      20.051 -16.119  23.408  1.00  0.00     0.159 C 
HETATM   10  C19 UNL     1      20.401 -17.036  24.537  1.00  0.00     0.049 C 
HETATM   11  C20 UNL     1      20.180 -16.894  22.137  1.00  0.00     0.049 C 
ENDBRANCH   2   3
BRANCH   2  12
HETATM   12  O1  UNL     1      16.874 -16.557  24.009  1.00  0.00    -0.365 OA
ATOM     13  H1  UNL     1      17.374 -17.234  24.448  1.00  0.00     0.212 HD
ENDBRANCH   2  12
ENDBRANCH   1   2
BRANCH   1  14
HETATM   14  O2  UNL     1      16.215 -14.215  22.837  1.00  0.00    -0.378 OA
ATOM     15  H2  UNL     1      15.384 -14.509  23.192  1.00  0.00     0.211 HD
ENDBRANCH   1  14
BRANCH   1  16
HETATM   16  C7  UNL     1      17.387 -14.610  20.879  1.00  0.00     0.107 C 
BRANCH  16  17
HETATM   17  N2  UNL     1      17.392 -13.240  20.707  1.00  0.00    -0.362 N 
BRANCH  17  18
HETATM   18  C8  UNL     1      16.520 -12.584  19.863  1.00  0.00     0.072 C 
BRANCH  18  19
HETATM   19  C9  UNL     1      16.069 -13.168  18.568  1.00  0.00    -0.019 C 
HETATM   20  C10 UNL     1      14.616 -12.629  18.399  1.00  0.00     0.020 C 
HETATM   21  C11 UNL     1      16.815 -12.558  17.383  1.00  0.00     0.020 C 
HETATM   22  C12 UNL     1      15.969 -14.621  18.405  1.00  0.00     0.020 C 
ENDBRANCH  18  19
ENDBRANCH  17  18
BRANCH  17  23
HETATM   23  C13 UNL     1      18.745 -12.737  20.859  1.00  0.00     0.244 C 
BRANCH  23  24
HETATM   24  C14 UNL     1      19.789 -13.238  19.960  1.00  0.00     0.403 C 
HETATM   25  F1  UNL     1      19.568 -13.072  18.617  1.00  0.00    -0.169 F 
HETATM   26  F2  UNL     1      20.272 -14.505  20.186  1.00  0.00    -0.169 F 
HETATM   27  F3  UNL     1      20.934 -12.422  20.198  1.00  0.00    -0.169 F 
ENDBRANCH  23  24
ENDBRANCH  17  23
ENDBRANCH  16  17
ENDBRANCH   1  16
BRANCH   1  28
HETATM   28  C15 UNL     1      15.619 -16.132  21.671  1.00  0.00     0.198 C 
BRANCH  28  29
HETATM   29  N3  UNL     1      14.309 -15.571  21.721  1.00  0.00    -0.283 N 
HETATM   30  C16 UNL     1      13.221 -16.226  22.191  1.00  0.00     0.201 A 
HETATM   31  N4  UNL     1      12.191 -15.381  22.164  1.00  0.00    -0.346 N 
HETATM   32  C17 UNL     1      12.603 -14.216  21.691  1.00  0.00     0.198 A 
ATOM     33  H4  UNL     1      11.239 -15.598  22.460  1.00  0.00     0.167 HD
HETATM   34  N5  UNL     1      13.900 -14.353  21.426  1.00  0.00    -0.293 N 
ATOM     35  H5  UNL     1      14.495 -13.617  21.046  1.00  0.00     0.188 HD
ENDBRANCH  28  29
ENDBRANCH   1  28
TORSDOF 12
ENDMDL
MODEL 3
REMARK VINA RESULT: -7.007685513      2.582      6.331
REMARK  12 active torsions:
REMARK  status: ('A' for Active; 'I' for Inactive)
REMARK    1  A    between atoms: N1_5  and  C5_6 
REMARK    2  A    between atoms: C5_6  and  O1_7 
REMARK    3  A    between atoms: C5_6  and  C6_9 
REMARK    4  A    between atoms: C6_9  and  O2_10 
REMARK    5  A    between atoms: C6_9  and  C7_12 
REMARK    6  A    between atoms: C6_9  and  C15_24 
REMARK    7  A    between atoms: C7_12  and  N2_13 
REMARK    8  A    between atoms: N2_13  and  C8_14 
REMARK    9  A    between atoms: N2_13  and  C13_19 
REMARK   10  A    between atoms: C8_14  and  C9_15 
REMARK   11  A    between atoms: C13_19  and  C14_20 
REMARK   12  A    between atoms: C15_24  and  N3_25 
ROOT
HETATM    1  C6  UNL     1      17.373 -16.498  22.398  1.00  0.00     0.161 C 
ENDROOT
BRANCH   1   2
HETATM    2  C5  UNL     1      18.736 -16.489  22.896  1.00  0.00     0.399 C 
BRANCH   2   3
HETATM    3  N1  UNL     1      19.089 -15.853  24.115  1.00  0.00     0.130 N 
HETATM    4  C4  UNL     1      19.134 -16.617  25.310  1.00  0.00     0.281 C 
HETATM    5  C3  UNL     1      19.321 -15.728  26.531  1.00  0.00     0.063 C 
HETATM    6  C2  UNL     1      20.170 -14.564  26.331  1.00  0.00    -0.085 C 
HETATM    7  C1  UNL     1      20.910 -14.050  27.296  1.00  0.00     0.014 C 
HETATM    8  C21 UNL     1      20.187 -13.943  24.961  1.00  0.00     0.074 C 
HETATM    9  C18 UNL     1      20.335 -15.131  24.006  1.00  0.00     0.159 C 
HETATM   10  C19 UNL     1      21.540 -15.888  24.470  1.00  0.00     0.049 C 
HETATM   11  C20 UNL     1      20.647 -14.561  22.660  1.00  0.00     0.049 C 
ENDBRANCH   2   3
BRANCH   2  12
HETATM   12  O1  UNL     1      19.068 -17.900  23.053  1.00  0.00    -0.365 OA
ATOM     13  H1  UNL     1      19.802 -18.070  22.475  1.00  0.00     0.212 HD
ENDBRANCH   2  12
ENDBRANCH   1   2
BRANCH   1  14
HETATM   14  O2  UNL     1      16.602 -15.496  23.147  1.00  0.00    -0.378 OA
ATOM     15  H2  UNL     1      17.040 -14.657  23.062  1.00  0.00     0.211 HD
ENDBRANCH   1  14
BRANCH   1  16
HETATM   16  C7  UNL     1      17.143 -16.073  20.971  1.00  0.00     0.107 C 
BRANCH  16  17
HETATM   17  N2  UNL     1      16.504 -14.910  20.590  1.00  0.00    -0.362 N 
BRANCH  17  18
HETATM   18  C8  UNL     1      15.218 -14.886  20.089  1.00  0.00     0.072 C 
BRANCH  18  19
HETATM   19  C9  UNL     1      14.169 -13.973  20.625  1.00  0.00    -0.019 C 
HETATM   20  C10 UNL     1      14.088 -12.832  19.566  1.00  0.00     0.020 C 
HETATM   21  C11 UNL     1      12.783 -14.611  20.567  1.00  0.00     0.020 C 
HETATM   22  C12 UNL     1      14.359 -13.299  21.912  1.00  0.00     0.020 C 
ENDBRANCH  18  19
ENDBRANCH  17  18
BRANCH  17  23
HETATM   23  C13 UNL     1      17.480 -13.965  20.081  1.00  0.00     0.244 C 
BRANCH  23  24
HETATM   24  C14 UNL     1      17.893 -12.847  20.934  1.00  0.00     0.403 C 
HETATM   25  F1  UNL     1      19.112 -12.284  20.653  1.00  0.00    -0.169 F 
HETATM   26  F2  UNL     1      17.771 -13.003  22.294  1.00  0.00    -0.169 F 
HETATM   27  F3  UNL     1      16.982 -11.786  20.660  1.00  0.00    -0.169 F 
ENDBRANCH  23  24
ENDBRANCH  17  23
ENDBRANCH  16  17
ENDBRANCH   1  16
BRANCH   1  28
HETATM   28  C15 UNL     1      16.643 -17.770  22.684  1.00  0.00     0.198 C 
BRANCH  28  29
HETATM   29  N3  UNL     1      15.316 -17.969  22.202  1.00  0.00    -0.283 N 
HETATM   30  C16 UNL     1      14.964 -18.941  21.327  1.00  0.00     0.201 A 
HETATM   31  N4  UNL     1      13.643 -18.883  21.161  1.00  0.00    -0.346 N 
HETATM   32  C17 UNL     1      13.158 -17.904  21.907  1.00  0.00     0.198 A 
ATOM     33  H4  UNL     1      13.094 -19.495  20.556  1.00  0.00     0.167 HD
HETATM   34  N5  UNL     1      14.196 -17.358  22.535  1.00  0.00    -0.293 N 
ATOM     35  H5  UNL     1      14.135 -16.573  23.184  1.00  0.00     0.188 HD
ENDBRANCH  28  29
ENDBRANCH   1  28
TORSDOF 12
ENDMDL
MODEL 4
REMARK VINA RESULT: -6.998309782      2.038      3.151
REMARK  12 active torsions:
REMARK  status: ('A' for Active; 'I' for Inactive)
REMARK    1  A    between atoms: N1_5  and  C5_6 
REMARK    2  A    between atoms: C5_6  and  O1_7 
REMARK    3  A    between atoms: C5_6  and  C6_9 
REMARK    4  A    between atoms: C6_9  and  O2_10 
REMARK    5  A    between atoms: C6_9  and  C7_12 
REMARK    6  A    between atoms: C6_9  and  C15_24 
REMARK    7  A    between atoms: C7_12  and  N2_13 
REMARK    8  A    between atoms: N2_13  and  C8_14 
REMARK    9  A    between atoms: N2_13  and  C13_19 
REMARK   10  A    between atoms: C8_14  and  C9_15 
REMARK   11  A    between atoms: C13_19  and  C14_20 
REMARK   12  A    between atoms: C15_24  and  N3_25 
ROOT
HETATM    1  C6  UNL     1      15.769 -12.991  20.595  1.00  0.00     0.161 C 
ENDROOT
BRANCH   1   2
HETATM    2  C5  UNL     1      14.916 -13.865  21.381  1.00  0.00     0.399 C 
BRANCH   2   3
HETATM    3  N1  UNL     1      14.773 -15.245  21.081  1.00  0.00     0.130 N 
HETATM    4  C4  UNL     1      15.382 -16.207  21.926  1.00  0.00     0.281 C 
HETATM    5  C3  UNL     1      15.296 -17.604  21.330  1.00  0.00     0.063 C 
HETATM    6  C2  UNL     1      14.076 -17.893  20.592  1.00  0.00    -0.085 C 
HETATM    7  C1  UNL     1      13.552 -19.104  20.531  1.00  0.00     0.014 C 
HETATM    8  C21 UNL     1      13.405 -16.749  19.882  1.00  0.00     0.074 C 
HETATM    9  C18 UNL     1      13.387 -15.618  20.915  1.00  0.00     0.159 C 
HETATM   10  C19 UNL     1      12.741 -16.186  22.140  1.00  0.00     0.049 C 
HETATM   11  C20 UNL     1      12.483 -14.559  20.373  1.00  0.00     0.049 C 
ENDBRANCH   2   3
BRANCH   2  12
HETATM   12  O1  UNL     1      15.472 -13.788  22.726  1.00  0.00    -0.365 OA
ATOM     13  H1  UNL     1      16.290 -13.312  22.654  1.00  0.00     0.212 HD
ENDBRANCH   2  12
ENDBRANCH   1   2
BRANCH   1  14
HETATM   14  O2  UNL     1      15.057 -11.724  20.380  1.00  0.00    -0.378 OA
ATOM     15  H2  UNL     1      14.181 -11.808  20.739  1.00  0.00     0.211 HD
ENDBRANCH   1  14
BRANCH   1  16
HETATM   16  C7  UNL     1      17.062 -12.528  21.214  1.00  0.00     0.107 C 
BRANCH  16  17
HETATM   17  N2  UNL     1      18.263 -13.203  21.123  1.00  0.00    -0.362 N 
BRANCH  17  18
HETATM   18  C8  UNL     1      19.022 -13.539  22.225  1.00  0.00     0.072 C 
BRANCH  18  19
HETATM   19  C9  UNL     1      19.108 -14.935  22.741  1.00  0.00    -0.019 C 
HETATM   20  C10 UNL     1      20.609 -15.100  23.130  1.00  0.00     0.020 C 
HETATM   21  C11 UNL     1      18.376 -15.091  24.072  1.00  0.00     0.020 C 
HETATM   22  C12 UNL     1      18.804 -16.069  21.865  1.00  0.00     0.020 C 
ENDBRANCH  18  19
ENDBRANCH  17  18
BRANCH  17  23
HETATM   23  C13 UNL     1      18.930 -12.843  19.886  1.00  0.00     0.244 C 
BRANCH  23  24
HETATM   24  C14 UNL     1      20.331 -13.232  19.700  1.00  0.00     0.403 C 
HETATM   25  F1  UNL     1      20.603 -14.574  19.765  1.00  0.00    -0.169 F 
HETATM   26  F2  UNL     1      21.285 -12.542  20.409  1.00  0.00    -0.169 F 
HETATM   27  F3  UNL     1      20.651 -12.908  18.349  1.00  0.00    -0.169 F 
ENDBRANCH  23  24
ENDBRANCH  17  23
ENDBRANCH  16  17
ENDBRANCH   1  16
BRANCH   1  28
HETATM   28  C15 UNL     1      16.008 -13.486  19.205  1.00  0.00     0.198 C 
BRANCH  28  29
HETATM   29  N3  UNL     1      15.684 -12.672  18.080  1.00  0.00    -0.283 N 
HETATM   30  C16 UNL     1      16.601 -12.146  17.234  1.00  0.00     0.201 A 
HETATM   31  N4  UNL     1      15.947 -11.513  16.261  1.00  0.00    -0.346 N 
HETATM   32  C17 UNL     1      14.645 -11.628  16.473  1.00  0.00     0.198 A 
ATOM     33  H4  UNL     1      16.379 -11.019  15.480  1.00  0.00     0.167 HD
HETATM   34  N5  UNL     1      14.506 -12.339  17.589  1.00  0.00    -0.293 N 
ATOM     35  H5  UNL     1      13.611 -12.592  18.008  1.00  0.00     0.188 HD
ENDBRANCH  28  29
ENDBRANCH   1  28
TORSDOF 12
ENDMDL
MODEL 5
REMARK VINA RESULT: -6.945705088      2.781      3.993
REMARK  12 active torsions:
REMARK  status: ('A' for Active; 'I' for Inactive)
REMARK    1  A    between atoms: N1_5  and  C5_6 
REMARK    2  A    between atoms: C5_6  and  O1_7 
REMARK    3  A    between atoms: C5_6  and  C6_9 
REMARK    4  A    between atoms: C6_9  and  O2_10 
REMARK    5  A    between atoms: C6_9  and  C7_12 
REMARK    6  A    between atoms: C6_9  and  C15_24 
REMARK    7  A    between atoms: C7_12  and  N2_13 
REMARK    8  A    between atoms: N2_13  and  C8_14 
REMARK    9  A    between atoms: N2_13  and  C13_19 
REMARK   10  A    between atoms: C8_14  and  C9_15 
REMARK   11  A    between atoms: C13_19  and  C14_20 
REMARK   12  A    between atoms: C15_24  and  N3_25 
ROOT
HETATM    1  C6  UNL     1      15.599 -13.022  19.909  1.00  0.00     0.161 C 
ENDROOT
BRANCH   1   2
HETATM    2  C5  UNL     1      15.342 -12.619  18.538  1.00  0.00     0.399 C 
BRANCH   2   3
HETATM    3  N1  UNL     1      15.597 -13.482  17.439  1.00  0.00     0.130 N 
HETATM    4  C4  UNL     1      14.637 -14.468  17.093  1.00  0.00     0.281 C 
HETATM    5  C3  UNL     1      15.178 -15.422  16.037  1.00  0.00     0.063 C 
HETATM    6  C2  UNL     1      16.055 -14.820  15.044  1.00  0.00    -0.085 C 
HETATM    7  C1  UNL     1      16.130 -15.262  13.802  1.00  0.00     0.014 C 
HETATM    8  C21 UNL     1      16.896 -13.650  15.476  1.00  0.00     0.074 C 
HETATM    9  C18 UNL     1      15.925 -12.746  16.241  1.00  0.00     0.159 C 
HETATM   10  C19 UNL     1      14.771 -12.503  15.319  1.00  0.00     0.049 C 
HETATM   11  C20 UNL     1      16.626 -11.442  16.443  1.00  0.00     0.049 C 
ENDBRANCH   2   3
BRANCH   2  12
HETATM   12  O1  UNL     1      13.914 -12.327  18.513  1.00  0.00    -0.365 OA
ATOM     13  H1  UNL     1      13.787 -11.557  19.053  1.00  0.00     0.212 HD
ENDBRANCH   2  12
ENDBRANCH   1   2
BRANCH   1  14
HETATM   14  O2  UNL     1      15.833 -14.472  19.927  1.00  0.00    -0.378 OA
ATOM     15  H2  UNL     1      15.342 -14.863  19.214  1.00  0.00     0.211 HD
ENDBRANCH   1  14
BRANCH   1  16
HETATM   16  C7  UNL     1      16.840 -12.491  20.576  1.00  0.00     0.107 C 
BRANCH  16  17
HETATM   17  N2  UNL     1      18.038 -13.173  20.668  1.00  0.00    -0.362 N 
BRANCH  17  18
HETATM   18  C8  UNL     1      18.682 -13.405  21.865  1.00  0.00     0.072 C 
BRANCH  18  19
HETATM   19  C9  UNL     1      18.753 -14.758  22.485  1.00  0.00    -0.019 C 
HETATM   20  C10 UNL     1      20.235 -14.880  22.953  1.00  0.00     0.020 C 
HETATM   21  C11 UNL     1      17.962 -14.823  23.790  1.00  0.00     0.020 C 
HETATM   22  C12 UNL     1      18.497 -15.957  21.682  1.00  0.00     0.020 C 
ENDBRANCH  18  19
ENDBRANCH  17  18
BRANCH  17  23
HETATM   23  C13 UNL     1      18.826 -12.932  19.474  1.00  0.00     0.244 C 
BRANCH  23  24
HETATM   24  C14 UNL     1      20.260 -13.230  19.502  1.00  0.00     0.403 C 
HETATM   25  F1  UNL     1      20.605 -14.546  19.676  1.00  0.00    -0.169 F 
HETATM   26  F2  UNL     1      21.061 -12.444  20.296  1.00  0.00    -0.169 F 
HETATM   27  F3  UNL     1      20.746 -12.946  18.192  1.00  0.00    -0.169 F 
ENDBRANCH  23  24
ENDBRANCH  17  23
ENDBRANCH  16  17
ENDBRANCH   1  16
BRANCH   1  28
HETATM   28  C15 UNL     1      14.416 -12.858  20.808  1.00  0.00     0.198 C 
BRANCH  28  29
HETATM   29  N3  UNL     1      13.583 -13.972  21.121  1.00  0.00    -0.283 N 
HETATM   30  C16 UNL     1      13.072 -14.217  22.350  1.00  0.00     0.201 A 
HETATM   31  N4  UNL     1      12.283 -15.287  22.262  1.00  0.00    -0.346 N 
HETATM   32  C17 UNL     1      12.285 -15.719  21.011  1.00  0.00     0.198 A 
ATOM     33  H4  UNL     1      11.762 -15.705  23.033  1.00  0.00     0.167 HD
HETATM   34  N5  UNL     1      13.086 -14.903  20.330  1.00  0.00    -0.293 N 
ATOM     35  H5  UNL     1      13.287 -14.986  19.334  1.00  0.00     0.188 HD
ENDBRANCH  28  29
ENDBRANCH   1  28
TORSDOF 12
ENDMDL
