MODEL 1
REMARK VINA RESULT: -8.028777094      0.000      0.000
REMARK  10 active torsions:
REMARK  status: ('A' for Active; 'I' for Inactive)
REMARK    1  A    between atoms: C2_2  and  O1_3 
REMARK    2  A    between atoms: C2_2  and  C20_32 
REMARK    3  A    between atoms: O1_3  and  C3_4 
REMARK    4  A    between atoms: C5_6  and  N1_7 
REMARK    5  A    between atoms: C9_12  and  C10_13 
REMARK    6  A    between atoms: C10_13  and  C11_14 
REMARK    7  A    between atoms: C11_14  and  O2_15 
REMARK    8  A    between atoms: O2_15  and  C12_16 
REMARK    9  A    between atoms: C12_16  and  C13_17 
REMARK   10  A    between atoms: C19_26  and  N5_27 
ROOT
HETATM    1  N1  UNL     1      16.226 -13.818  21.662  1.00  0.00    -0.365 N 
HETATM    2  C6  UNL     1      16.735 -12.474  21.460  1.00  0.00     0.144 C 
HETATM    3  C7  UNL     1      17.962 -12.807  20.577  1.00  0.00     0.116 C 
HETATM    4  C8  UNL     1      17.368 -13.286  19.303  1.00  0.00     0.066 C 
HETATM    5  N2  UNL     1      16.883 -13.655  18.309  1.00  0.00    -0.197 NA
HETATM    6  C9  UNL     1      18.511 -13.914  21.401  1.00  0.00     0.025 C 
HETATM    7  C18 UNL     1      17.316 -14.800  21.589  1.00  0.00     0.130 C 
ENDROOT
BRANCH   6   8
HETATM    8  C10 UNL     1      19.768 -14.542  21.004  1.00  0.00     0.034 C 
BRANCH   8   9
HETATM    9  C11 UNL     1      20.107 -15.881  21.522  1.00  0.00     0.168 C 
BRANCH   9  10
HETATM   10  O2  UNL     1      21.061 -15.797  22.514  1.00  0.00    -0.391 OA
BRANCH  10  11
HETATM   11  C12 UNL     1      21.147 -14.606  23.176  1.00  0.00     0.173 C 
BRANCH  11  12
HETATM   12  C13 UNL     1      21.368 -14.735  24.662  1.00  0.00     0.039 C 
HETATM   13  C14 UNL     1      20.309 -13.936  25.410  1.00  0.00     0.038 C 
HETATM   14  C15 UNL     1      20.353 -14.631  26.774  1.00  0.00     0.272 C 
HETATM   15  N3  UNL     1      20.401 -16.034  26.403  1.00  0.00     0.084 N 
HETATM   16  C16 UNL     1      19.031 -16.461  26.183  1.00  0.00     0.309 C 
HETATM   17  C17 UNL     1      21.148 -16.118  25.182  1.00  0.00     0.278 C 
ENDBRANCH  11  12
ENDBRANCH  10  11
ENDBRANCH   9  10
ENDBRANCH   8   9
ENDBRANCH   6   8
BRANCH   1  18
HETATM   18  C5  UNL     1      14.870 -14.157  21.900  1.00  0.00     0.123 A 
HETATM   19  C4  UNL     1      13.935 -13.244  22.337  1.00  0.00     0.105 A 
HETATM   20  C3  UNL     1      12.617 -13.582  22.566  1.00  0.00     0.161 A 
HETATM   21  N6  UNL     1      12.264 -14.867  22.344  1.00  0.00    -0.171 N 
HETATM   22  C19 UNL     1      13.157 -15.776  21.918  1.00  0.00     0.679 A 
ATOM     23  H6  UNL     1      11.298 -15.154  22.503  1.00  0.00     0.186 HD
HETATM   24  N4  UNL     1      14.415 -15.416  21.708  1.00  0.00    -0.177 N 
ATOM     25  H4  UNL     1      15.074 -16.125  21.386  1.00  0.00     0.185 HD
BRANCH  20  26
HETATM   26  O1  UNL     1      11.686 -12.628  23.011  1.00  0.00    -0.321 OA
BRANCH  26  27
HETATM   27  C2  UNL     1      12.031 -11.299  23.256  1.00  0.00     0.233 C 
HETATM   28  C1  UNL     1      11.668 -10.384  22.102  1.00  0.00     0.049 C 
BRANCH  27  29
HETATM   29  C20 UNL     1      11.426 -10.724  24.507  1.00  0.00     0.413 C 
HETATM   30  F1  UNL     1      12.097  -9.592  24.931  1.00  0.00    -0.168 F 
HETATM   31  F2  UNL     1      10.133 -10.306  24.177  1.00  0.00    -0.168 F 
HETATM   32  F3  UNL     1      11.289 -11.650  25.509  1.00  0.00    -0.168 F 
ENDBRANCH  27  29
ENDBRANCH  26  27
ENDBRANCH  20  26
BRANCH  22  33
HETATM   33  N5  UNL     1      12.764 -16.985  21.724  1.00  0.00    -0.234 N 
ATOM     34  H52 UNL     1      13.148 -17.504  20.934  1.00  0.00     0.174 HD
ATOM     35  H51 UNL     1      12.083 -17.427  22.340  1.00  0.00     0.174 HD
ENDBRANCH  22  33
ENDBRANCH   1  18
TORSDOF 10
ENDMDL
MODEL 2
REMARK VINA RESULT: -7.935056512      2.245      3.664
REMARK  10 active torsions:
REMARK  status: ('A' for Active; 'I' for Inactive)
REMARK    1  A    between atoms: C2_2  and  O1_3 
REMARK    2  A    between atoms: C2_2  and  C20_32 
REMARK    3  A    between atoms: O1_3  and  C3_4 
REMARK    4  A    between atoms: C5_6  and  N1_7 
REMARK    5  A    between atoms: C9_12  and  C10_13 
REMARK    6  A    between atoms: C10_13  and  C11_14 
REMARK    7  A    between atoms: C11_14  and  O2_15 
REMARK    8  A    between atoms: O2_15  and  C12_16 
REMARK    9  A    between atoms: C12_16  and  C13_17 
REMARK   10  A    between atoms: C19_26  and  N5_27 
ROOT
HETATM    1  N1  UNL     1      18.482 -13.870  21.608  1.00  0.00    -0.365 N 
HETATM    2  C6  UNL     1      19.591 -14.284  20.768  1.00  0.00     0.144 C 
HETATM    3  C7  UNL     1      20.233 -15.334  21.707  1.00  0.00     0.116 C 
HETATM    4  C8  UNL     1      19.236 -16.432  21.752  1.00  0.00     0.066 C 
HETATM    5  N2  UNL     1      18.442 -17.287  21.771  1.00  0.00    -0.197 NA
HETATM    6  C9  UNL     1      20.238 -14.518  22.948  1.00  0.00     0.025 C 
HETATM    7  C18 UNL     1      18.818 -14.041  23.027  1.00  0.00     0.130 C 
ENDROOT
BRANCH   6   8
HETATM    8  C10 UNL     1      20.839 -15.068  24.160  1.00  0.00     0.034 C 
BRANCH   8   9
HETATM    9  C11 UNL     1      20.828 -14.274  25.403  1.00  0.00     0.168 C 
BRANCH   9  10
HETATM   10  O2  UNL     1      19.858 -14.732  26.270  1.00  0.00    -0.391 OA
BRANCH  10  11
HETATM   11  C12 UNL     1      19.841 -16.076  26.508  1.00  0.00     0.173 C 
BRANCH  11  12
HETATM   12  C13 UNL     1      18.461 -16.668  26.639  1.00  0.00     0.039 C 
HETATM   13  C14 UNL     1      17.904 -16.980  25.256  1.00  0.00     0.038 C 
HETATM   14  C15 UNL     1      16.847 -18.028  25.616  1.00  0.00     0.272 C 
HETATM   15  N3  UNL     1      17.556 -18.866  26.568  1.00  0.00     0.084 N 
HETATM   16  C16 UNL     1      18.315 -19.834  25.797  1.00  0.00     0.309 C 
HETATM   17  C17 UNL     1      18.444 -18.008  27.297  1.00  0.00     0.278 C 
ENDBRANCH  11  12
ENDBRANCH  10  11
ENDBRANCH   9  10
ENDBRANCH   8   9
ENDBRANCH   6   8
BRANCH   1  18
HETATM   18  C5  UNL     1      17.240 -13.367  21.143  1.00  0.00     0.123 A 
HETATM   19  C4  UNL     1      16.143 -13.212  21.962  1.00  0.00     0.105 A 
HETATM   20  C3  UNL     1      14.937 -12.722  21.503  1.00  0.00     0.161 A 
HETATM   21  N6  UNL     1      14.866 -12.392  20.194  1.00  0.00    -0.171 N 
HETATM   22  C19 UNL     1      15.922 -12.534  19.377  1.00  0.00     0.679 A 
ATOM     23  H6  UNL     1      13.990 -12.027  19.819  1.00  0.00     0.186 HD
HETATM   24  N4  UNL     1      17.064 -13.008  19.852  1.00  0.00    -0.177 N 
ATOM     25  H4  UNL     1      17.852 -13.107  19.210  1.00  0.00     0.185 HD
BRANCH  20  26
HETATM   26  O1  UNL     1      13.834 -12.575  22.362  1.00  0.00    -0.321 OA
BRANCH  26  27
HETATM   27  C2  UNL     1      12.610 -12.064  21.931  1.00  0.00     0.233 C 
HETATM   28  C1  UNL     1      11.433 -12.879  22.434  1.00  0.00     0.049 C 
BRANCH  27  29
HETATM   29  C20 UNL     1      12.371 -10.629  22.311  1.00  0.00     0.413 C 
HETATM   30  F1  UNL     1      13.555  -9.930  22.454  1.00  0.00    -0.168 F 
HETATM   31  F2  UNL     1      11.697 -10.034  21.240  1.00  0.00    -0.168 F 
HETATM   32  F3  UNL     1      11.555 -10.493  23.404  1.00  0.00    -0.168 F 
ENDBRANCH  27  29
ENDBRANCH  26  27
ENDBRANCH  20  26
BRANCH  22  33
HETATM   33  N5  UNL     1      15.796 -12.204  18.140  1.00  0.00    -0.234 N 
ATOM     34  H52 UNL     1      16.014 -12.896  17.423  1.00  0.00     0.174 HD
ATOM     35  H51 UNL     1      15.486 -11.272  17.868  1.00  0.00     0.174 HD
ENDBRANCH  22  33
ENDBRANCH   1  18
TORSDOF 10
ENDMDL
MODEL 3
REMARK VINA RESULT: -7.769878789      3.728      8.011
REMARK  10 active torsions:
REMARK  status: ('A' for Active; 'I' for Inactive)
REMARK    1  A    between atoms: C2_2  and  O1_3 
REMARK    2  A    between atoms: C2_2  and  C20_32 
REMARK    3  A    between atoms: O1_3  and  C3_4 
REMARK    4  A    between atoms: C5_6  and  N1_7 
REMARK    5  A    between atoms: C9_12  and  C10_13 
REMARK    6  A    between atoms: C10_13  and  C11_14 
REMARK    7  A    between atoms: C11_14  and  O2_15 
REMARK    8  A    between atoms: O2_15  and  C12_16 
REMARK    9  A    between atoms: C12_16  and  C13_17 
REMARK   10  A    between atoms: C19_26  and  N5_27 
ROOT
HETATM    1  N1  UNL     1      16.747 -14.477  20.300  1.00  0.00    -0.365 N 
HETATM    2  C6  UNL     1      16.296 -14.201  18.949  1.00  0.00     0.144 C 
HETATM    3  C7  UNL     1      14.799 -13.935  19.239  1.00  0.00     0.116 C 
HETATM    4  C8  UNL     1      14.802 -12.664  20.007  1.00  0.00     0.066 C 
HETATM    5  N2  UNL     1      14.826 -11.663  20.604  1.00  0.00    -0.197 NA
HETATM    6  C9  UNL     1      14.546 -15.119  20.099  1.00  0.00     0.025 C 
HETATM    7  C18 UNL     1      15.651 -15.028  21.108  1.00  0.00     0.130 C 
ENDROOT
BRANCH   6   8
HETATM    8  C10 UNL     1      13.194 -15.366  20.592  1.00  0.00     0.034 C 
BRANCH   8   9
HETATM    9  C11 UNL     1      12.976 -15.598  22.032  1.00  0.00     0.168 C 
BRANCH   9  10
HETATM   10  O2  UNL     1      12.356 -14.512  22.615  1.00  0.00    -0.391 OA
BRANCH  10  11
HETATM   11  C12 UNL     1      11.985 -13.501  21.778  1.00  0.00     0.173 C 
BRANCH  11  12
HETATM   12  C13 UNL     1      11.165 -12.419  22.433  1.00  0.00     0.039 C 
HETATM   13  C14 UNL     1      11.506 -12.344  23.916  1.00  0.00     0.038 C 
HETATM   14  C15 UNL     1      11.047 -10.917  24.232  1.00  0.00     0.272 C 
HETATM   15  N3  UNL     1      11.564 -10.171  23.097  1.00  0.00     0.084 N 
HETATM   16  C16 UNL     1      12.944  -9.840  23.402  1.00  0.00     0.309 C 
HETATM   17  C17 UNL     1      11.503 -11.043  21.961  1.00  0.00     0.278 C 
ENDBRANCH  11  12
ENDBRANCH  10  11
ENDBRANCH   9  10
ENDBRANCH   8   9
ENDBRANCH   6   8
BRANCH   1  18
HETATM   18  C5  UNL     1      18.059 -14.254  20.792  1.00  0.00     0.123 A 
HETATM   19  C4  UNL     1      18.486 -14.714  22.019  1.00  0.00     0.105 A 
HETATM   20  C3  UNL     1      19.764 -14.492  22.490  1.00  0.00     0.161 A 
HETATM   21  N6  UNL     1      20.602 -13.795  21.692  1.00  0.00    -0.171 N 
HETATM   22  C19 UNL     1      20.208 -13.337  20.493  1.00  0.00     0.679 A 
ATOM     23  H6  UNL     1      21.554 -13.612  22.008  1.00  0.00     0.186 HD
HETATM   24  N4  UNL     1      18.974 -13.567  20.071  1.00  0.00    -0.177 N 
ATOM     25  H4  UNL     1      18.699 -13.208  19.157  1.00  0.00     0.185 HD
BRANCH  20  26
HETATM   26  O1  UNL     1      20.171 -14.974  23.747  1.00  0.00    -0.321 OA
BRANCH  26  27
HETATM   27  C2  UNL     1      19.615 -14.518  24.942  1.00  0.00     0.233 C 
HETATM   28  C1  UNL     1      18.686 -15.536  25.574  1.00  0.00     0.049 C 
BRANCH  27  29
HETATM   29  C20 UNL     1      20.626 -14.112  25.978  1.00  0.00     0.413 C 
HETATM   30  F1  UNL     1      20.435 -14.778  27.174  1.00  0.00    -0.168 F 
HETATM   31  F2  UNL     1      21.877 -14.519  25.504  1.00  0.00    -0.168 F 
HETATM   32  F3  UNL     1      20.701 -12.753  26.149  1.00  0.00    -0.168 F 
ENDBRANCH  27  29
ENDBRANCH  26  27
ENDBRANCH  20  26
BRANCH  22  33
HETATM   33  N5  UNL     1      21.049 -12.678  19.776  1.00  0.00    -0.234 N 
ATOM     34  H52 UNL     1      22.042 -12.893  19.864  1.00  0.00     0.174 HD
ATOM     35  H51 UNL     1      20.742 -11.953  19.129  1.00  0.00     0.174 HD
ENDBRANCH  22  33
ENDBRANCH   1  18
TORSDOF 10
ENDMDL
MODEL 4
REMARK VINA RESULT: -7.738904087      4.003      8.506
REMARK  10 active torsions:
REMARK  status: ('A' for Active; 'I' for Inactive)
REMARK    1  A    between atoms: C2_2  and  O1_3 
REMARK    2  A    between atoms: C2_2  and  C20_32 
REMARK    3  A    between atoms: O1_3  and  C3_4 
REMARK    4  A    between atoms: C5_6  and  N1_7 
REMARK    5  A    between atoms: C9_12  and  C10_13 
REMARK    6  A    between atoms: C10_13  and  C11_14 
REMARK    7  A    between atoms: C11_14  and  O2_15 
REMARK    8  A    between atoms: O2_15  and  C12_16 
REMARK    9  A    between atoms: C12_16  and  C13_17 
REMARK   10  A    between atoms: C19_26  and  N5_27 
ROOT
HETATM    1  N1  UNL     1      19.679 -14.724  22.522  1.00  0.00    -0.365 N 
HETATM    2  C6  UNL     1      19.538 -15.399  21.245  1.00  0.00     0.144 C 
HETATM    3  C7  UNL     1      19.006 -14.216  20.399  1.00  0.00     0.116 C 
HETATM    4  C8  UNL     1      20.159 -13.285  20.319  1.00  0.00     0.066 C 
HETATM    5  N2  UNL     1      21.078 -12.569  20.263  1.00  0.00    -0.197 NA
HETATM    6  C9  UNL     1      17.960 -13.747  21.343  1.00  0.00     0.025 C 
HETATM    7  C18 UNL     1      18.720 -13.616  22.629  1.00  0.00     0.130 C 
ENDROOT
BRANCH   6   8
HETATM    8  C10 UNL     1      17.091 -12.641  20.952  1.00  0.00     0.034 C 
BRANCH   8   9
HETATM    9  C11 UNL     1      16.431 -12.666  19.633  1.00  0.00     0.168 C 
BRANCH   9  10
HETATM   10  O2  UNL     1      15.119 -12.251  19.733  1.00  0.00    -0.391 OA
BRANCH  10  11
HETATM   11  C12 UNL     1      14.644 -12.035  20.993  1.00  0.00     0.173 C 
BRANCH  11  12
HETATM   12  C13 UNL     1      13.146 -12.147  21.121  1.00  0.00     0.039 C 
HETATM   13  C14 UNL     1      12.795 -12.930  22.380  1.00  0.00     0.038 C 
HETATM   14  C15 UNL     1      11.359 -12.449  22.612  1.00  0.00     0.272 C 
HETATM   15  N3  UNL     1      11.473 -11.020  22.380  1.00  0.00     0.084 N 
HETATM   16  C16 UNL     1      11.918 -10.423  23.626  1.00  0.00     0.309 C 
HETATM   17  C17 UNL     1      12.466 -10.839  21.362  1.00  0.00     0.278 C 
ENDBRANCH  11  12
ENDBRANCH  10  11
ENDBRANCH   9  10
ENDBRANCH   8   9
ENDBRANCH   6   8
BRANCH   1  18
HETATM   18  C5  UNL     1      20.606 -15.069  23.538  1.00  0.00     0.123 A 
HETATM   19  C4  UNL     1      20.313 -15.963  24.545  1.00  0.00     0.105 A 
HETATM   20  C3  UNL     1      21.221 -16.294  25.531  1.00  0.00     0.161 A 
HETATM   21  N6  UNL     1      22.434 -15.700  25.475  1.00  0.00    -0.171 N 
HETATM   22  C19 UNL     1      22.742 -14.827  24.503  1.00  0.00     0.679 A 
ATOM     23  H6  UNL     1      23.130 -15.921  26.187  1.00  0.00     0.186 HD
HETATM   24  N4  UNL     1      21.846 -14.531  23.573  1.00  0.00    -0.177 N 
ATOM     25  H4  UNL     1      22.105 -13.865  22.845  1.00  0.00     0.185 HD
BRANCH  20  26
HETATM   26  O1  UNL     1      20.894 -17.209  26.546  1.00  0.00    -0.321 OA
BRANCH  26  27
HETATM   27  C2  UNL     1      19.860 -18.136  26.418  1.00  0.00     0.233 C 
HETATM   28  C1  UNL     1      20.277 -19.532  26.841  1.00  0.00     0.049 C 
BRANCH  27  29
HETATM   29  C20 UNL     1      18.611 -17.779  27.176  1.00  0.00     0.413 C 
HETATM   30  F1  UNL     1      18.539 -16.425  27.443  1.00  0.00    -0.168 F 
HETATM   31  F2  UNL     1      17.532 -18.066  26.335  1.00  0.00    -0.168 F 
HETATM   32  F3  UNL     1      18.435 -18.539  28.304  1.00  0.00    -0.168 F 
ENDBRANCH  27  29
ENDBRANCH  26  27
ENDBRANCH  20  26
BRANCH  22  33
HETATM   33  N5  UNL     1      23.912 -14.292  24.500  1.00  0.00    -0.234 N 
ATOM     34  H52 UNL     1      24.223 -13.797  23.664  1.00  0.00     0.174 HD
ATOM     35  H51 UNL     1      24.527 -14.355  25.311  1.00  0.00     0.174 HD
ENDBRANCH  22  33
ENDBRANCH   1  18
TORSDOF 10
ENDMDL
MODEL 5
REMARK VINA RESULT: -7.712134703      3.283      4.419
REMARK  10 active torsions:
REMARK  status: ('A' for Active; 'I' for Inactive)
REMARK    1  A    between atoms: C2_2  and  O1_3 
REMARK    2  A    between atoms: C2_2  and  C20_32 
REMARK    3  A    between atoms: O1_3  and  C3_4 
REMARK    4  A    between atoms: C5_6  and  N1_7 
REMARK    5  A    between atoms: C9_12  and  C10_13 
REMARK    6  A    between atoms: C10_13  and  C11_14 
REMARK    7  A    between atoms: C11_14  and  O2_15 
REMARK    8  A    between atoms: O2_15  and  C12_16 
REMARK    9  A    between atoms: C12_16  and  C13_17 
REMARK   10  A    between atoms: C19_26  and  N5_27 
ROOT
HETATM    1  N1  UNL     1      15.876 -13.527  21.097  1.00  0.00    -0.365 N 
HETATM    2  C6  UNL     1      15.982 -12.196  20.528  1.00  0.00     0.144 C 
HETATM    3  C7  UNL     1      17.155 -12.441  19.547  1.00  0.00     0.116 C 
HETATM    4  C8  UNL     1      16.583 -13.352  18.524  1.00  0.00     0.066 C 
HETATM    5  N2  UNL     1      16.113 -14.063  17.727  1.00  0.00    -0.197 NA
HETATM    6  C9  UNL     1      18.062 -13.143  20.490  1.00  0.00     0.025 C 
HETATM    7  C18 UNL     1      17.176 -14.209  21.060  1.00  0.00     0.130 C 
ENDROOT
BRANCH   6   8
HETATM    8  C10 UNL     1      19.394 -13.536  20.037  1.00  0.00     0.034 C 
BRANCH   8   9
HETATM    9  C11 UNL     1      20.417 -13.918  21.030  1.00  0.00     0.168 C 
BRANCH   9  10
HETATM   10  O2  UNL     1      20.349 -15.266  21.311  1.00  0.00    -0.391 OA
BRANCH  10  11
HETATM   11  C12 UNL     1      20.292 -15.610  22.630  1.00  0.00     0.173 C 
BRANCH  11  12
HETATM   12  C13 UNL     1      20.732 -14.522  23.576  1.00  0.00     0.039 C 
HETATM   13  C14 UNL     1      19.749 -14.422  24.735  1.00  0.00     0.038 C 
HETATM   14  C15 UNL     1      20.630 -13.735  25.784  1.00  0.00     0.272 C 
HETATM   15  N3  UNL     1      21.881 -14.462  25.657  1.00  0.00     0.084 N 
HETATM   16  C16 UNL     1      21.763 -15.654  26.476  1.00  0.00     0.309 C 
HETATM   17  C17 UNL     1      22.017 -14.821  24.276  1.00  0.00     0.278 C 
ENDBRANCH  11  12
ENDBRANCH  10  11
ENDBRANCH   9  10
ENDBRANCH   8   9
ENDBRANCH   6   8
BRANCH   1  18
HETATM   18  C5  UNL     1      14.693 -14.105  21.623  1.00  0.00     0.123 A 
HETATM   19  C4  UNL     1      14.468 -15.465  21.639  1.00  0.00     0.105 A 
HETATM   20  C3  UNL     1      13.313 -16.020  22.153  1.00  0.00     0.161 A 
HETATM   21  N6  UNL     1      12.390 -15.169  22.651  1.00  0.00    -0.171 N 
HETATM   22  C19 UNL     1      12.587 -13.840  22.647  1.00  0.00     0.679 A 
ATOM     23  H6  UNL     1      11.524 -15.544  23.039  1.00  0.00     0.186 HD
HETATM   24  N4  UNL     1      13.706 -13.341  22.145  1.00  0.00    -0.177 N 
ATOM     25  H4  UNL     1      13.832 -12.329  22.153  1.00  0.00     0.185 HD
BRANCH  20  26
HETATM   26  O1  UNL     1      13.112 -17.411  22.156  1.00  0.00    -0.321 OA
BRANCH  26  27
HETATM   27  C2  UNL     1      12.932 -18.146  20.984  1.00  0.00     0.233 C 
HETATM   28  C1  UNL     1      14.090 -19.087  20.707  1.00  0.00     0.049 C 
BRANCH  27  29
HETATM   29  C20 UNL     1      11.665 -18.954  20.949  1.00  0.00     0.413 C 
HETATM   30  F1  UNL     1      10.540 -18.150  20.943  1.00  0.00    -0.168 F 
HETATM   31  F2  UNL     1      11.656 -19.641  19.732  1.00  0.00    -0.168 F 
HETATM   32  F3  UNL     1      11.612 -19.909  21.932  1.00  0.00    -0.168 F 
ENDBRANCH  27  29
ENDBRANCH  26  27
ENDBRANCH  20  26
BRANCH  22  33
HETATM   33  N5  UNL     1      11.672 -13.078  23.134  1.00  0.00    -0.234 N 
ATOM     34  H52 UNL     1      10.960 -13.490  23.736  1.00  0.00     0.174 HD
ATOM     35  H51 UNL     1      11.648 -12.079  22.929  1.00  0.00     0.174 HD
ENDBRANCH  22  33
ENDBRANCH   1  18
TORSDOF 10
ENDMDL
