MODEL 1
REMARK VINA RESULT: -7.235413976      0.000      0.000
REMARK  9 active torsions:
REMARK  status: ('A' for Active; 'I' for Inactive)
REMARK    1  A    between atoms: O1_2  and  C2_3 
REMARK    2  A    between atoms: C2_3  and  C3_4 
REMARK    3  A    between atoms: C4_10  and  C6_12 
REMARK       I    between atoms: C6_12  and  N2_14 
REMARK    4  A    between atoms: N2_14  and  C7_16 
REMARK    5  A    between atoms: C7_16  and  C8_17 
REMARK    6  A    between atoms: C7_16  and  C12_21 
REMARK    7  A    between atoms: C8_17  and  C9_18 
REMARK       I    between atoms: C12_21  and  N3_23 
REMARK    8  A    between atoms: C13_25  and  C14_26 
REMARK    9  A    between atoms: C14_26  and  N4_27 
ROOT
HETATM    1  C6  UNL     1      15.657 -15.606  20.856  1.00  0.00     0.248 C 
HETATM    2  O2  UNL     1      15.194 -15.457  22.000  1.00  0.00    -0.271 OA
HETATM    3  N2  UNL     1      16.483 -14.611  20.301  1.00  0.00    -0.346 N 
ATOM      4  H2  UNL     1      16.861 -14.773  19.368  1.00  0.00     0.163 HD
ENDROOT
BRANCH   1   5
HETATM    5  C4  UNL     1      15.310 -16.835  20.115  1.00  0.00     0.128 C 
HETATM    6  N1  UNL     1      14.237 -17.567  20.675  1.00  0.00    -0.363 N 
HETATM    7  C2  UNL     1      13.080 -17.861  19.888  1.00  0.00     0.262 C 
ATOM      8  H1  UNL     1      14.290 -17.885  21.642  1.00  0.00     0.158 HD
HETATM    9  C18 UNL     1      13.377 -17.987  18.404  1.00  0.00     0.112 C 
HETATM   10  O4  UNL     1      14.076 -16.886  18.017  1.00  0.00    -0.373 OA
HETATM   11  C19 UNL     1      14.042 -19.315  18.143  1.00  0.00     0.051 C 
HETATM   12  C20 UNL     1      12.110 -18.008  17.578  1.00  0.00     0.051 C 
HETATM   13  C17 UNL     1      15.252 -16.619  18.630  1.00  0.00     0.209 C 
HETATM   14  C5  UNL     1      16.557 -17.730  20.323  1.00  0.00     0.051 C 
BRANCH   7  15
HETATM   15  O1  UNL     1      12.554 -19.083  20.262  1.00  0.00    -0.356 OA
HETATM   16  C1  UNL     1      12.714 -19.527  21.521  1.00  0.00     0.205 C 
ENDBRANCH   7  15
BRANCH   7  17
HETATM   17  C3  UNL     1      12.050 -16.794  20.158  1.00  0.00     0.440 C 
HETATM   18  F1  UNL     1      12.319 -15.620  19.448  1.00  0.00    -0.166 F 
HETATM   19  F2  UNL     1      10.747 -17.206  20.052  1.00  0.00    -0.166 F 
HETATM   20  F3  UNL     1      12.150 -16.349  21.497  1.00  0.00    -0.166 F 
ENDBRANCH   7  17
ENDBRANCH   1   5
BRANCH   3  21
HETATM   21  C7  UNL     1      16.829 -13.379  20.961  1.00  0.00     0.177 C 
BRANCH  21  22
HETATM   22  C8  UNL     1      18.232 -13.055  21.215  1.00  0.00     0.038 C 
BRANCH  22  23
HETATM   23  C9  UNL     1      19.296 -13.895  20.582  1.00  0.00    -0.020 C 
HETATM   24  C10 UNL     1      20.352 -13.089  19.883  1.00  0.00     0.009 C 
HETATM   25  C11 UNL     1      20.044 -14.716  21.650  1.00  0.00     0.009 C 
ENDBRANCH  22  23
ENDBRANCH  21  22
BRANCH  21  26
HETATM   26  C12 UNL     1      16.218 -12.213  20.200  1.00  0.00     0.244 C 
HETATM   27  O3  UNL     1      16.273 -12.194  18.965  1.00  0.00    -0.271 OA
HETATM   28  N3  UNL     1      15.605 -11.190  20.935  1.00  0.00    -0.337 N 
HETATM   29  C13 UNL     1      14.389 -11.322  21.325  1.00  0.00     0.094 C 
ATOM     30  H3  UNL     1      16.124 -10.341  21.160  1.00  0.00     0.167 HD
BRANCH  29  31
HETATM   31  C14 UNL     1      13.633 -12.534  21.007  1.00  0.00     0.315 C 
BRANCH  31  32
HETATM   32  N4  UNL     1      12.268 -12.501  21.483  1.00  0.00     0.084 N 
HETATM   33  C15 UNL     1      11.930 -11.113  21.729  1.00  0.00     0.309 C 
HETATM   34  C16 UNL     1      12.099 -13.252  22.696  1.00  0.00     0.309 C 
ENDBRANCH  31  32
ENDBRANCH  29  31
ENDBRANCH  21  26
ENDBRANCH   3  21
TORSDOF 9
ENDMDL
MODEL 2
REMARK VINA RESULT: -6.880840062      3.988      6.265
REMARK  9 active torsions:
REMARK  status: ('A' for Active; 'I' for Inactive)
REMARK    1  A    between atoms: O1_2  and  C2_3 
REMARK    2  A    between atoms: C2_3  and  C3_4 
REMARK    3  A    between atoms: C4_10  and  C6_12 
REMARK       I    between atoms: C6_12  and  N2_14 
REMARK    4  A    between atoms: N2_14  and  C7_16 
REMARK    5  A    between atoms: C7_16  and  C8_17 
REMARK    6  A    between atoms: C7_16  and  C12_21 
REMARK    7  A    between atoms: C8_17  and  C9_18 
REMARK       I    between atoms: C12_21  and  N3_23 
REMARK    8  A    between atoms: C13_25  and  C14_26 
REMARK    9  A    between atoms: C14_26  and  N4_27 
ROOT
HETATM    1  C6  UNL     1      16.890 -15.632  22.435  1.00  0.00     0.248 C 
HETATM    2  O2  UNL     1      17.329 -14.472  22.523  1.00  0.00    -0.271 OA
HETATM    3  N2  UNL     1      15.614 -15.856  21.883  1.00  0.00    -0.346 N 
ATOM      4  H2  UNL     1      15.292 -16.821  21.808  1.00  0.00     0.163 HD
ENDROOT
BRANCH   1   5
HETATM    5  C4  UNL     1      17.733 -16.740  22.926  1.00  0.00     0.128 C 
HETATM    6  N1  UNL     1      18.959 -16.327  23.496  1.00  0.00    -0.363 N 
HETATM    7  C2  UNL     1      19.289 -16.696  24.837  1.00  0.00     0.262 C 
ATOM      8  H1  UNL     1      19.610 -15.764  22.949  1.00  0.00     0.158 HD
HETATM    9  C18 UNL     1      18.671 -18.016  25.268  1.00  0.00     0.112 C 
HETATM   10  O4  UNL     1      17.340 -17.970  24.989  1.00  0.00    -0.373 OA
HETATM   11  C19 UNL     1      19.438 -19.150  24.637  1.00  0.00     0.051 C 
HETATM   12  C20 UNL     1      18.795 -18.233  26.759  1.00  0.00     0.051 C 
HETATM   13  C17 UNL     1      16.954 -17.757  23.710  1.00  0.00     0.209 C 
HETATM   14  C5  UNL     1      18.127 -17.481  21.623  1.00  0.00     0.051 C 
BRANCH   7  15
HETATM   15  O1  UNL     1      20.654 -16.875  24.955  1.00  0.00    -0.356 OA
HETATM   16  C1  UNL     1      21.491 -16.219  24.132  1.00  0.00     0.205 C 
ENDBRANCH   7  15
BRANCH   7  17
HETATM   17  C3  UNL     1      18.874 -15.568  25.747  1.00  0.00     0.440 C 
HETATM   18  F1  UNL     1      17.505 -15.605  26.029  1.00  0.00    -0.166 F 
HETATM   19  F2  UNL     1      19.654 -15.406  26.862  1.00  0.00    -0.166 F 
HETATM   20  F3  UNL     1      18.995 -14.330  25.072  1.00  0.00    -0.166 F 
ENDBRANCH   7  17
ENDBRANCH   1   5
BRANCH   3  21
HETATM   21  C7  UNL     1      14.734 -14.816  21.419  1.00  0.00     0.177 C 
BRANCH  21  22
HETATM   22  C8  UNL     1      14.835 -14.335  20.042  1.00  0.00     0.038 C 
BRANCH  22  23
HETATM   23  C9  UNL     1      15.443 -12.992  19.785  1.00  0.00    -0.020 C 
HETATM   24  C10 UNL     1      15.462 -12.107  20.996  1.00  0.00     0.009 C 
HETATM   25  C11 UNL     1      16.916 -13.139  19.358  1.00  0.00     0.009 C 
ENDBRANCH  22  23
ENDBRANCH  21  22
BRANCH  21  26
HETATM   26  C12 UNL     1      13.293 -15.235  21.657  1.00  0.00     0.244 C 
HETATM   27  O3  UNL     1      13.050 -16.192  22.401  1.00  0.00    -0.271 OA
HETATM   28  N3  UNL     1      12.278 -14.512  21.017  1.00  0.00    -0.337 N 
HETATM   29  C13 UNL     1      11.844 -13.422  21.537  1.00  0.00     0.094 C 
ATOM     30  H3  UNL     1      11.884 -14.852  20.139  1.00  0.00     0.167 HD
BRANCH  29  31
HETATM   31  C14 UNL     1      12.399 -12.925  22.797  1.00  0.00     0.315 C 
BRANCH  31  32
HETATM   32  N4  UNL     1      12.271 -11.493  22.956  1.00  0.00     0.084 N 
HETATM   33  C15 UNL     1      11.218 -11.260  23.926  1.00  0.00     0.309 C 
HETATM   34  C16 UNL     1      11.933 -10.839  21.724  1.00  0.00     0.309 C 
ENDBRANCH  31  32
ENDBRANCH  29  31
ENDBRANCH  21  26
ENDBRANCH   3  21
TORSDOF 9
ENDMDL
MODEL 3
REMARK VINA RESULT: -6.833314478      4.281      6.844
REMARK  9 active torsions:
REMARK  status: ('A' for Active; 'I' for Inactive)
REMARK    1  A    between atoms: O1_2  and  C2_3 
REMARK    2  A    between atoms: C2_3  and  C3_4 
REMARK    3  A    between atoms: C4_10  and  C6_12 
REMARK       I    between atoms: C6_12  and  N2_14 
REMARK    4  A    between atoms: N2_14  and  C7_16 
REMARK    5  A    between atoms: C7_16  and  C8_17 
REMARK    6  A    between atoms: C7_16  and  C12_21 
REMARK    7  A    between atoms: C8_17  and  C9_18 
REMARK       I    between atoms: C12_21  and  N3_23 
REMARK    8  A    between atoms: C13_25  and  C14_26 
REMARK    9  A    between atoms: C14_26  and  N4_27 
ROOT
HETATM    1  C6  UNL     1      17.400 -15.185  22.888  1.00  0.00     0.248 C 
HETATM    2  O2  UNL     1      17.791 -14.013  22.749  1.00  0.00    -0.271 OA
HETATM    3  N2  UNL     1      16.251 -15.625  22.204  1.00  0.00    -0.346 N 
ATOM      4  H2  UNL     1      15.969 -16.597  22.326  1.00  0.00     0.163 HD
ENDROOT
BRANCH   1   5
HETATM    5  C4  UNL     1      18.165 -16.076  23.783  1.00  0.00     0.128 C 
HETATM    6  N1  UNL     1      19.469 -16.376  23.327  1.00  0.00    -0.363 N 
HETATM    7  C2  UNL     1      20.602 -16.088  24.150  1.00  0.00     0.262 C 
ATOM      8  H1  UNL     1      19.601 -16.800  22.409  1.00  0.00     0.158 HD
HETATM    9  C18 UNL     1      20.298 -16.148  25.637  1.00  0.00     0.112 C 
HETATM   10  O4  UNL     1      19.199 -15.382  25.875  1.00  0.00    -0.373 OA
HETATM   11  C19 UNL     1      20.201 -17.591  26.065  1.00  0.00     0.051 C 
HETATM   12  C20 UNL     1      21.422 -15.563  26.463  1.00  0.00     0.051 C 
HETATM   13  C17 UNL     1      18.049 -15.683  25.228  1.00  0.00     0.209 C 
HETATM   14  C5  UNL     1      17.389 -17.414  23.688  1.00  0.00     0.051 C 
BRANCH   7  15
HETATM   15  O1  UNL     1      21.590 -17.032  23.940  1.00  0.00    -0.356 OA
HETATM   16  C1  UNL     1      21.480 -17.904  22.922  1.00  0.00     0.205 C 
ENDBRANCH   7  15
BRANCH   7  17
HETATM   17  C3  UNL     1      21.138 -14.737  23.749  1.00  0.00     0.440 C 
HETATM   18  F1  UNL     1      20.444 -13.697  24.373  1.00  0.00    -0.166 F 
HETATM   19  F2  UNL     1      22.500 -14.607  23.828  1.00  0.00    -0.166 F 
HETATM   20  F3  UNL     1      20.859 -14.490  22.383  1.00  0.00    -0.166 F 
ENDBRANCH   7  17
ENDBRANCH   1   5
BRANCH   3  21
HETATM   21  C7  UNL     1      15.448 -14.794  21.345  1.00  0.00     0.177 C 
BRANCH  21  22
HETATM   22  C8  UNL     1      15.849 -14.575  19.956  1.00  0.00     0.038 C 
BRANCH  22  23
HETATM   23  C9  UNL     1      16.313 -13.215  19.541  1.00  0.00    -0.020 C 
HETATM   24  C10 UNL     1      15.983 -12.144  20.540  1.00  0.00     0.009 C 
HETATM   25  C11 UNL     1      17.846 -13.186  19.397  1.00  0.00     0.009 C 
ENDBRANCH  22  23
ENDBRANCH  21  22
BRANCH  21  26
HETATM   26  C12 UNL     1      14.020 -15.317  21.336  1.00  0.00     0.244 C 
HETATM   27  O3  UNL     1      13.731 -16.316  22.003  1.00  0.00    -0.271 OA
HETATM   28  N3  UNL     1      13.071 -14.637  20.561  1.00  0.00    -0.337 N 
HETATM   29  C13 UNL     1      12.483 -13.599  21.036  1.00  0.00     0.094 C 
ATOM     30  H3  UNL     1      12.847 -14.967  19.622  1.00  0.00     0.167 HD
BRANCH  29  31
HETATM   31  C14 UNL     1      12.794 -13.117  22.382  1.00  0.00     0.315 C 
BRANCH  31  32
HETATM   32  N4  UNL     1      12.732 -11.678  22.506  1.00  0.00     0.084 N 
HETATM   33  C15 UNL     1      11.675 -11.371  23.450  1.00  0.00     0.309 C 
HETATM   34  C16 UNL     1      12.447 -11.038  21.252  1.00  0.00     0.309 C 
ENDBRANCH  31  32
ENDBRANCH  29  31
ENDBRANCH  21  26
ENDBRANCH   3  21
TORSDOF 9
ENDMDL
MODEL 4
REMARK VINA RESULT: -6.737980161      3.872      6.573
REMARK  9 active torsions:
REMARK  status: ('A' for Active; 'I' for Inactive)
REMARK    1  A    between atoms: O1_2  and  C2_3 
REMARK    2  A    between atoms: C2_3  and  C3_4 
REMARK    3  A    between atoms: C4_10  and  C6_12 
REMARK       I    between atoms: C6_12  and  N2_14 
REMARK    4  A    between atoms: N2_14  and  C7_16 
REMARK    5  A    between atoms: C7_16  and  C8_17 
REMARK    6  A    between atoms: C7_16  and  C12_21 
REMARK    7  A    between atoms: C8_17  and  C9_18 
REMARK       I    between atoms: C12_21  and  N3_23 
REMARK    8  A    between atoms: C13_25  and  C14_26 
REMARK    9  A    between atoms: C14_26  and  N4_27 
ROOT
HETATM    1  C6  UNL     1      16.785 -15.377  22.168  1.00  0.00     0.248 C 
HETATM    2  O2  UNL     1      17.252 -14.452  21.481  1.00  0.00    -0.271 OA
HETATM    3  N2  UNL     1      15.431 -15.735  22.030  1.00  0.00    -0.346 N 
ATOM      4  H2  UNL     1      15.085 -16.510  22.595  1.00  0.00     0.163 HD
ENDROOT
BRANCH   1   5
HETATM    5  C4  UNL     1      17.681 -16.064  23.119  1.00  0.00     0.128 C 
HETATM    6  N1  UNL     1      18.965 -16.352  22.601  1.00  0.00    -0.363 N 
HETATM    7  C2  UNL     1      20.134 -15.866  23.266  1.00  0.00     0.262 C 
ATOM      8  H1  UNL     1      19.058 -16.908  21.751  1.00  0.00     0.158 HD
HETATM    9  C18 UNL     1      19.951 -15.707  24.766  1.00  0.00     0.112 C 
HETATM   10  O4  UNL     1      18.819 -14.983  24.979  1.00  0.00    -0.373 OA
HETATM   11  C19 UNL     1      19.996 -17.066  25.418  1.00  0.00     0.051 C 
HETATM   12  C20 UNL     1      21.088 -14.929  25.390  1.00  0.00     0.051 C 
HETATM   13  C17 UNL     1      17.649 -15.453  24.490  1.00  0.00     0.209 C 
HETATM   14  C5  UNL     1      17.003 -17.446  23.299  1.00  0.00     0.051 C 
BRANCH   7  15
HETATM   15  O1  UNL     1      21.170 -16.768  23.118  1.00  0.00    -0.356 OA
HETATM   16  C1  UNL     1      21.034 -17.818  22.288  1.00  0.00     0.205 C 
ENDBRANCH   7  15
BRANCH   7  17
HETATM   17  C3  UNL     1      20.534 -14.566  22.617  1.00  0.00     0.440 C 
HETATM   18  F1  UNL     1      19.621 -13.544  22.894  1.00  0.00    -0.166 F 
HETATM   19  F2  UNL     1      21.839 -14.198  22.813  1.00  0.00    -0.166 F 
HETATM   20  F3  UNL     1      20.426 -14.673  21.210  1.00  0.00    -0.166 F 
ENDBRANCH   7  17
ENDBRANCH   1   5
BRANCH   3  21
HETATM   21  C7  UNL     1      14.502 -15.081  21.146  1.00  0.00     0.177 C 
BRANCH  21  22
HETATM   22  C8  UNL     1      14.548 -15.350  19.709  1.00  0.00     0.038 C 
BRANCH  22  23
HETATM   23  C9  UNL     1      14.613 -14.197  18.757  1.00  0.00    -0.020 C 
HETATM   24  C10 UNL     1      14.859 -12.881  19.434  1.00  0.00     0.009 C 
HETATM   25  C11 UNL     1      15.781 -14.378  17.768  1.00  0.00     0.009 C 
ENDBRANCH  22  23
ENDBRANCH  21  22
BRANCH  21  26
HETATM   26  C12 UNL     1      13.083 -15.350  21.620  1.00  0.00     0.244 C 
HETATM   27  O3  UNL     1      12.880 -16.225  22.470  1.00  0.00    -0.271 OA
HETATM   28  N3  UNL     1      12.045 -14.588  21.070  1.00  0.00    -0.337 N 
HETATM   29  C13 UNL     1      11.779 -13.428  21.551  1.00  0.00     0.094 C 
ATOM     30  H3  UNL     1      11.500 -14.954  20.289  1.00  0.00     0.167 HD
BRANCH  29  31
HETATM   31  C14 UNL     1      12.551 -12.892  22.673  1.00  0.00     0.315 C 
BRANCH  31  32
HETATM   32  N4  UNL     1      12.417 -11.461  22.831  1.00  0.00     0.084 N 
HETATM   33  C15 UNL     1      11.431 -11.232  23.869  1.00  0.00     0.309 C 
HETATM   34  C16 UNL     1      11.987 -10.820  21.620  1.00  0.00     0.309 C 
ENDBRANCH  31  32
ENDBRANCH  29  31
ENDBRANCH  21  26
ENDBRANCH   3  21
TORSDOF 9
ENDMDL
MODEL 5
REMARK VINA RESULT: -6.710041174      1.329      1.543
REMARK  9 active torsions:
REMARK  status: ('A' for Active; 'I' for Inactive)
REMARK    1  A    between atoms: O1_2  and  C2_3 
REMARK    2  A    between atoms: C2_3  and  C3_4 
REMARK    3  A    between atoms: C4_10  and  C6_12 
REMARK       I    between atoms: C6_12  and  N2_14 
REMARK    4  A    between atoms: N2_14  and  C7_16 
REMARK    5  A    between atoms: C7_16  and  C8_17 
REMARK    6  A    between atoms: C7_16  and  C12_21 
REMARK    7  A    between atoms: C8_17  and  C9_18 
REMARK       I    between atoms: C12_21  and  N3_23 
REMARK    8  A    between atoms: C13_25  and  C14_26 
REMARK    9  A    between atoms: C14_26  and  N4_27 
ROOT
HETATM    1  C6  UNL     1      14.925 -15.612  20.489  1.00  0.00     0.248 C 
HETATM    2  O2  UNL     1      14.378 -15.530  21.602  1.00  0.00    -0.271 OA
HETATM    3  N2  UNL     1      15.932 -14.694  20.136  1.00  0.00    -0.346 N 
ATOM      4  H2  UNL     1      16.374 -14.801  19.223  1.00  0.00     0.163 HD
ENDROOT
BRANCH   1   5
HETATM    5  C4  UNL     1      14.484 -16.678  19.569  1.00  0.00     0.128 C 
HETATM    6  N1  UNL     1      14.555 -17.981  20.113  1.00  0.00    -0.363 N 
HETATM    7  C2  UNL     1      13.387 -18.804  20.165  1.00  0.00     0.262 C 
ATOM      8  H1  UNL     1      15.443 -18.335  20.471  1.00  0.00     0.158 HD
HETATM    9  C18 UNL     1      12.396 -18.512  19.051  1.00  0.00     0.112 C 
HETATM   10  O4  UNL     1      12.161 -17.172  19.033  1.00  0.00    -0.373 OA
HETATM   11  C19 UNL     1      12.908 -19.108  17.764  1.00  0.00     0.051 C 
HETATM   12  C20 UNL     1      11.063 -19.183  19.296  1.00  0.00     0.051 C 
HETATM   13  C17 UNL     1      13.208 -16.335  18.854  1.00  0.00     0.209 C 
HETATM   14  C5  UNL     1      15.565 -16.649  18.459  1.00  0.00     0.051 C 
BRANCH   7  15
HETATM   15  O1  UNL     1      13.737 -20.131  20.005  1.00  0.00    -0.356 OA
HETATM   16  C1  UNL     1      14.956 -20.554  20.383  1.00  0.00     0.205 C 
ENDBRANCH   7  15
BRANCH   7  17
HETATM   17  C3  UNL     1      12.757 -18.635  21.523  1.00  0.00     0.440 C 
HETATM   18  F1  UNL     1      11.981 -17.474  21.596  1.00  0.00    -0.166 F 
HETATM   19  F2  UNL     1      12.119 -19.746  22.009  1.00  0.00    -0.166 F 
HETATM   20  F3  UNL     1      13.755 -18.374  22.493  1.00  0.00    -0.166 F 
ENDBRANCH   7  17
ENDBRANCH   1   5
BRANCH   3  21
HETATM   21  C7  UNL     1      16.381 -13.615  20.977  1.00  0.00     0.177 C 
BRANCH  21  22
HETATM   22  C8  UNL     1      17.773 -13.566  21.422  1.00  0.00     0.038 C 
BRANCH  22  23
HETATM   23  C9  UNL     1      18.825 -14.227  20.589  1.00  0.00    -0.020 C 
HETATM   24  C10 UNL     1      19.815 -13.261  20.007  1.00  0.00     0.009 C 
HETATM   25  C11 UNL     1      19.655 -15.205  21.442  1.00  0.00     0.009 C 
ENDBRANCH  22  23
ENDBRANCH  21  22
BRANCH  21  26
HETATM   26  C12 UNL     1      16.065 -12.290  20.303  1.00  0.00     0.244 C 
HETATM   27  O3  UNL     1      16.262 -12.160  19.089  1.00  0.00    -0.271 OA
HETATM   28  N3  UNL     1      15.556 -11.250  21.092  1.00  0.00    -0.337 N 
HETATM   29  C13 UNL     1      14.299 -11.198  21.348  1.00  0.00     0.094 C 
ATOM     30  H3  UNL     1      16.182 -10.534  21.461  1.00  0.00     0.167 HD
BRANCH  29  31
HETATM   31  C14 UNL     1      13.389 -12.217  20.822  1.00  0.00     0.315 C 
BRANCH  31  32
HETATM   32  N4  UNL     1      12.109 -12.246  21.494  1.00  0.00     0.084 N 
HETATM   33  C15 UNL     1      11.807 -10.889  21.905  1.00  0.00     0.309 C 
HETATM   34  C16 UNL     1      12.122 -13.099  22.648  1.00  0.00     0.309 C 
ENDBRANCH  31  32
ENDBRANCH  29  31
ENDBRANCH  21  26
ENDBRANCH   3  21
TORSDOF 9
ENDMDL
