MODEL 1
REMARK VINA RESULT: -7.581731626      0.000      0.000
REMARK  10 active torsions:
REMARK  status: ('A' for Active; 'I' for Inactive)
REMARK    1  A    between atoms: O1_2  and  C2_3 
REMARK    2  A    between atoms: C6_8  and  N1_9 
REMARK    3  A    between atoms: N1_9  and  C7_11 
REMARK    4  A    between atoms: C7_11  and  C8_12 
REMARK    5  A    between atoms: C8_12  and  C9_13 
REMARK    6  A    between atoms: C9_13  and  C10_14 
REMARK    7  A    between atoms: C10_14  and  C12_16 
REMARK    8  A    between atoms: C14_21  and  N2_22 
REMARK    9  A    between atoms: N2_22  and  S1_24 
REMARK   10  A    between atoms: S1_24  and  C15_27 
ROOT
HETATM    1  C9  UNL     1      17.602 -14.155  21.443  1.00  0.00     0.076 C 
HETATM    2  C13 UNL     1      17.613 -14.773  22.821  1.00  0.00     0.066 C 
HETATM    3  C14 UNL     1      17.346 -16.240  22.484  1.00  0.00     0.119 C 
HETATM    4  C18 UNL     1      16.452 -16.088  21.259  1.00  0.00     0.194 C 
HETATM    5  O5  UNL     1      16.702 -14.891  20.676  1.00  0.00    -0.377 OA
ENDROOT
BRANCH   1   6
HETATM    6  C8  UNL     1      17.152 -12.730  21.402  1.00  0.00     0.058 C 
BRANCH   6   7
HETATM    7  C7  UNL     1      15.864 -12.515  20.602  1.00  0.00     0.117 C 
BRANCH   7   8
HETATM    8  N1  UNL     1      15.147 -11.385  21.136  1.00  0.00    -0.414 N 
ATOM      9  H1  UNL     1      15.636 -10.547  21.452  1.00  0.00     0.153 HD
BRANCH   8  10
HETATM   10  C6  UNL     1      13.745 -11.481  21.206  1.00  0.00     0.109 C 
HETATM   11  C2  UNL     1      13.272 -12.903  21.280  1.00  0.00     0.167 C 
HETATM   12  C3  UNL     1      12.384 -13.123  22.488  1.00  0.00     0.201 C 
HETATM   13  O2  UNL     1      11.290 -12.285  22.514  1.00  0.00    -0.388 OA
HETATM   14  C4  UNL     1      11.625 -10.953  22.295  1.00  0.00     0.169 C 
HETATM   15  C5  UNL     1      13.122 -10.730  22.359  1.00  0.00     0.053 C 
BRANCH  11  16
HETATM   16  O1  UNL     1      12.635 -13.307  20.105  1.00  0.00    -0.387 OA
HETATM   17  C1  UNL     1      12.904 -14.638  19.803  1.00  0.00     0.202 C 
ENDBRANCH  11  16
ENDBRANCH   8  10
ENDBRANCH   7   8
ENDBRANCH   6   7
ENDBRANCH   1   6
BRANCH   1  18
HETATM   18  C10 UNL     1      18.994 -14.282  20.879  1.00  0.00     0.124 C 
HETATM   19  C11 UNL     1      20.009 -14.266  22.000  1.00  0.00     0.022 C 
BRANCH  18  20
HETATM   20  C12 UNL     1      19.402 -13.364  19.809  1.00  0.00     0.393 C 
HETATM   21  F1  UNL     1      18.491 -13.047  18.845  1.00  0.00    -0.171 F 
HETATM   22  F2  UNL     1      19.795 -12.150  20.412  1.00  0.00    -0.171 F 
HETATM   23  F3  UNL     1      20.548 -13.776  19.133  1.00  0.00    -0.171 F 
ENDBRANCH  18  20
ENDBRANCH   1  18
BRANCH   3  24
HETATM   24  N2  UNL     1      16.588 -16.899  23.466  1.00  0.00    -0.310 N 
ATOM     25  H2  UNL     1      15.585 -16.723  23.525  1.00  0.00     0.172 HD
BRANCH  24  26
HETATM   26  S1  UNL     1      17.297 -17.966  24.540  1.00  0.00     0.264 S 
HETATM   27  O3  UNL     1      16.287 -18.834  25.274  1.00  0.00    -0.203 OA
HETATM   28  O4  UNL     1      18.209 -18.972  23.833  1.00  0.00    -0.203 OA
BRANCH  26  29
HETATM   29  C15 UNL     1      18.334 -17.119  25.689  1.00  0.00     0.216 C 
HETATM   30  C16 UNL     1      19.718 -16.865  25.079  1.00  0.00     0.071 C 
HETATM   31  C17 UNL     1      18.548 -17.872  26.981  1.00  0.00     0.071 C 
HETATM   32  F4  UNL     1      17.789 -15.898  25.986  1.00  0.00    -0.225 F 
ENDBRANCH  26  29
ENDBRANCH  24  26
ENDBRANCH   3  24
TORSDOF 10
ENDMDL
MODEL 2
REMARK VINA RESULT: -7.523350969      2.336      3.281
REMARK  10 active torsions:
REMARK  status: ('A' for Active; 'I' for Inactive)
REMARK    1  A    between atoms: O1_2  and  C2_3 
REMARK    2  A    between atoms: C6_8  and  N1_9 
REMARK    3  A    between atoms: N1_9  and  C7_11 
REMARK    4  A    between atoms: C7_11  and  C8_12 
REMARK    5  A    between atoms: C8_12  and  C9_13 
REMARK    6  A    between atoms: C9_13  and  C10_14 
REMARK    7  A    between atoms: C10_14  and  C12_16 
REMARK    8  A    between atoms: C14_21  and  N2_22 
REMARK    9  A    between atoms: N2_22  and  S1_24 
REMARK   10  A    between atoms: S1_24  and  C15_27 
ROOT
HETATM    1  C9  UNL     1      17.344 -14.003  21.246  1.00  0.00     0.076 C 
HETATM    2  C13 UNL     1      16.449 -14.512  22.351  1.00  0.00     0.066 C 
HETATM    3  C14 UNL     1      16.190 -15.943  21.879  1.00  0.00     0.119 C 
HETATM    4  C18 UNL     1      16.216 -15.748  20.367  1.00  0.00     0.194 C 
HETATM    5  O5  UNL     1      16.952 -14.649  20.076  1.00  0.00    -0.377 OA
ENDROOT
BRANCH   1   6
HETATM    6  C8  UNL     1      17.245 -12.532  20.991  1.00  0.00     0.058 C 
BRANCH   6   7
HETATM    7  C7  UNL     1      15.943 -12.115  20.302  1.00  0.00     0.117 C 
BRANCH   7   8
HETATM    8  N1  UNL     1      15.188 -11.254  21.178  1.00  0.00    -0.414 N 
ATOM      9  H1  UNL     1      15.647 -10.547  21.752  1.00  0.00     0.153 HD
BRANCH   8  10
HETATM   10  C6  UNL     1      13.792 -11.427  21.210  1.00  0.00     0.109 C 
HETATM   11  C2  UNL     1      13.393 -12.873  21.192  1.00  0.00     0.167 C 
HETATM   12  C3  UNL     1      12.494 -13.208  22.365  1.00  0.00     0.201 C 
HETATM   13  O2  UNL     1      11.357 -12.431  22.414  1.00  0.00    -0.388 OA
HETATM   14  C4  UNL     1      11.627 -11.072  22.279  1.00  0.00     0.169 C 
HETATM   15  C5  UNL     1      13.108 -10.777  22.390  1.00  0.00     0.053 C 
BRANCH  11  16
HETATM   16  O1  UNL     1      12.802 -13.239  19.981  1.00  0.00    -0.387 OA
HETATM   17  C1  UNL     1      12.769 -14.621  19.820  1.00  0.00     0.202 C 
ENDBRANCH  11  16
ENDBRANCH   8  10
ENDBRANCH   7   8
ENDBRANCH   6   7
ENDBRANCH   1   6
BRANCH   1  18
HETATM   18  C10 UNL     1      18.759 -14.379  21.601  1.00  0.00     0.124 C 
HETATM   19  C11 UNL     1      18.981 -14.215  23.088  1.00  0.00     0.022 C 
BRANCH  18  20
HETATM   20  C12 UNL     1      19.858 -13.758  20.851  1.00  0.00     0.393 C 
HETATM   21  F1  UNL     1      19.725 -12.457  20.465  1.00  0.00    -0.171 F 
HETATM   22  F2  UNL     1      21.017 -13.826  21.653  1.00  0.00    -0.171 F 
HETATM   23  F3  UNL     1      20.215 -14.463  19.705  1.00  0.00    -0.171 F 
ENDBRANCH  18  20
ENDBRANCH   1  18
BRANCH   3  24
HETATM   24  N2  UNL     1      14.907 -16.406  22.212  1.00  0.00    -0.310 N 
ATOM     25  H2  UNL     1      14.186 -15.734  22.474  1.00  0.00     0.172 HD
BRANCH  24  26
HETATM   26  S1  UNL     1      14.538 -18.036  22.187  1.00  0.00     0.264 S 
HETATM   27  O3  UNL     1      15.664 -18.896  21.638  1.00  0.00    -0.203 OA
HETATM   28  O4  UNL     1      14.296 -18.592  23.593  1.00  0.00    -0.203 OA
BRANCH  26  29
HETATM   29  C15 UNL     1      13.042 -18.338  21.300  1.00  0.00     0.216 C 
HETATM   30  C16 UNL     1      12.434 -19.684  21.713  1.00  0.00     0.071 C 
HETATM   31  C17 UNL     1      13.222 -18.372  19.801  1.00  0.00     0.071 C 
HETATM   32  F4  UNL     1      12.125 -17.366  21.603  1.00  0.00    -0.225 F 
ENDBRANCH  26  29
ENDBRANCH  24  26
ENDBRANCH   3  24
TORSDOF 10
ENDMDL
MODEL 3
REMARK VINA RESULT: -7.444536637      2.463      3.210
REMARK  10 active torsions:
REMARK  status: ('A' for Active; 'I' for Inactive)
REMARK    1  A    between atoms: O1_2  and  C2_3 
REMARK    2  A    between atoms: C6_8  and  N1_9 
REMARK    3  A    between atoms: N1_9  and  C7_11 
REMARK    4  A    between atoms: C7_11  and  C8_12 
REMARK    5  A    between atoms: C8_12  and  C9_13 
REMARK    6  A    between atoms: C9_13  and  C10_14 
REMARK    7  A    between atoms: C10_14  and  C12_16 
REMARK    8  A    between atoms: C14_21  and  N2_22 
REMARK    9  A    between atoms: N2_22  and  S1_24 
REMARK   10  A    between atoms: S1_24  and  C15_27 
ROOT
HETATM    1  C9  UNL     1      17.553 -14.355  21.739  1.00  0.00     0.076 C 
HETATM    2  C13 UNL     1      18.520 -14.398  22.898  1.00  0.00     0.066 C 
HETATM    3  C14 UNL     1      19.416 -15.566  22.487  1.00  0.00     0.119 C 
HETATM    4  C18 UNL     1      18.412 -16.442  21.746  1.00  0.00     0.194 C 
HETATM    5  O5  UNL     1      17.401 -15.665  21.290  1.00  0.00    -0.377 OA
ENDROOT
BRANCH   1   6
HETATM    6  C8  UNL     1      16.189 -13.847  22.081  1.00  0.00     0.058 C 
BRANCH   6   7
HETATM    7  C7  UNL     1      15.060 -14.800  21.681  1.00  0.00     0.117 C 
BRANCH   7   8
HETATM    8  N1  UNL     1      13.810 -14.321  22.217  1.00  0.00    -0.414 N 
ATOM      9  H1  UNL     1      13.411 -14.718  23.068  1.00  0.00     0.153 HD
BRANCH   8  10
HETATM   10  C6  UNL     1      13.161 -13.284  21.521  1.00  0.00     0.109 C 
HETATM   11  C2  UNL     1      12.954 -12.066  22.372  1.00  0.00     0.167 C 
HETATM   12  C3  UNL     1      13.544 -10.834  21.717  1.00  0.00     0.201 C 
HETATM   13  O2  UNL     1      13.034 -10.594  20.460  1.00  0.00    -0.388 OA
HETATM   14  C4  UNL     1      13.045 -11.724  19.648  1.00  0.00     0.169 C 
HETATM   15  C5  UNL     1      13.860 -12.846  20.256  1.00  0.00     0.053 C 
BRANCH  11  16
HETATM   16  O1  UNL     1      11.609 -11.873  22.693  1.00  0.00    -0.387 OA
HETATM   17  C1  UNL     1      11.458 -11.119  23.853  1.00  0.00     0.202 C 
ENDBRANCH  11  16
ENDBRANCH   8  10
ENDBRANCH   7   8
ENDBRANCH   6   7
ENDBRANCH   1   6
BRANCH   1  18
HETATM   18  C10 UNL     1      18.174 -13.504  20.662  1.00  0.00     0.124 C 
HETATM   19  C11 UNL     1      18.549 -12.151  21.225  1.00  0.00     0.022 C 
BRANCH  18  20
HETATM   20  C12 UNL     1      17.455 -13.345  19.392  1.00  0.00     0.393 C 
HETATM   21  F1  UNL     1      16.637 -14.355  18.980  1.00  0.00    -0.171 F 
HETATM   22  F2  UNL     1      16.652 -12.189  19.495  1.00  0.00    -0.171 F 
HETATM   23  F3  UNL     1      18.291 -13.064  18.314  1.00  0.00    -0.171 F 
ENDBRANCH  18  20
ENDBRANCH   1  18
BRANCH   3  24
HETATM   24  N2  UNL     1      19.882 -16.311  23.582  1.00  0.00    -0.310 N 
ATOM     25  H2  UNL     1      19.353 -17.127  23.893  1.00  0.00     0.172 HD
BRANCH  24  26
HETATM   26  S1  UNL     1      21.284 -15.889  24.387  1.00  0.00     0.264 S 
HETATM   27  O3  UNL     1      22.250 -17.050  24.554  1.00  0.00    -0.203 OA
HETATM   28  O4  UNL     1      22.093 -14.839  23.621  1.00  0.00    -0.203 OA
BRANCH  26  29
HETATM   29  C15 UNL     1      20.925 -15.155  25.951  1.00  0.00     0.216 C 
HETATM   30  C16 UNL     1      19.609 -15.703  26.514  1.00  0.00     0.071 C 
HETATM   31  C17 UNL     1      20.796 -13.651  25.900  1.00  0.00     0.071 C 
HETATM   32  F4  UNL     1      21.914 -15.472  26.845  1.00  0.00    -0.225 F 
ENDBRANCH  26  29
ENDBRANCH  24  26
ENDBRANCH   3  24
TORSDOF 10
ENDMDL
MODEL 4
REMARK VINA RESULT: -7.434022929      2.642      3.324
REMARK  10 active torsions:
REMARK  status: ('A' for Active; 'I' for Inactive)
REMARK    1  A    between atoms: O1_2  and  C2_3 
REMARK    2  A    between atoms: C6_8  and  N1_9 
REMARK    3  A    between atoms: N1_9  and  C7_11 
REMARK    4  A    between atoms: C7_11  and  C8_12 
REMARK    5  A    between atoms: C8_12  and  C9_13 
REMARK    6  A    between atoms: C9_13  and  C10_14 
REMARK    7  A    between atoms: C10_14  and  C12_16 
REMARK    8  A    between atoms: C14_21  and  N2_22 
REMARK    9  A    between atoms: N2_22  and  S1_24 
REMARK   10  A    between atoms: S1_24  and  C15_27 
ROOT
HETATM    1  C9  UNL     1      17.157 -14.185  20.966  1.00  0.00     0.076 C 
HETATM    2  C13 UNL     1      18.661 -14.292  20.865  1.00  0.00     0.066 C 
HETATM    3  C14 UNL     1      18.984 -15.058  22.148  1.00  0.00     0.119 C 
HETATM    4  C18 UNL     1      17.890 -14.533  23.071  1.00  0.00     0.194 C 
HETATM    5  O5  UNL     1      16.846 -14.107  22.321  1.00  0.00    -0.377 OA
ENDROOT
BRANCH   1   6
HETATM    6  C8  UNL     1      16.572 -12.976  20.309  1.00  0.00     0.058 C 
BRANCH   6   7
HETATM    7  C7  UNL     1      15.570 -12.224  21.190  1.00  0.00     0.117 C 
BRANCH   7   8
HETATM    8  N1  UNL     1      14.492 -11.722  20.375  1.00  0.00    -0.414 N 
ATOM      9  H1  UNL     1      14.670 -11.298  19.464  1.00  0.00     0.153 HD
BRANCH   8  10
HETATM   10  C6  UNL     1      13.186 -11.839  20.884  1.00  0.00     0.109 C 
HETATM   11  C2  UNL     1      12.833 -13.254  21.237  1.00  0.00     0.167 C 
HETATM   12  C3  UNL     1      12.370 -13.360  22.676  1.00  0.00     0.201 C 
HETATM   13  O2  UNL     1      11.294 -12.547  22.958  1.00  0.00    -0.388 OA
HETATM   14  C4  UNL     1      11.476 -11.239  22.519  1.00  0.00     0.169 C 
HETATM   15  C5  UNL     1      12.907 -10.981  22.095  1.00  0.00     0.053 C 
BRANCH  11  16
HETATM   16  O1  UNL     1      11.890 -13.794  20.361  1.00  0.00    -0.387 OA
HETATM   17  C1  UNL     1      12.242 -15.076  19.950  1.00  0.00     0.202 C 
ENDBRANCH  11  16
ENDBRANCH   8  10
ENDBRANCH   7   8
ENDBRANCH   6   7
ENDBRANCH   1   6
BRANCH   1  18
HETATM   18  C10 UNL     1      16.574 -15.440  20.368  1.00  0.00     0.124 C 
HETATM   19  C11 UNL     1      15.917 -15.124  19.042  1.00  0.00     0.022 C 
BRANCH  18  20
HETATM   20  C12 UNL     1      15.682 -16.261  21.195  1.00  0.00     0.393 C 
HETATM   21  F1  UNL     1      14.774 -15.630  21.993  1.00  0.00    -0.171 F 
HETATM   22  F2  UNL     1      14.948 -17.102  20.331  1.00  0.00    -0.171 F 
HETATM   23  F3  UNL     1      16.360 -17.156  22.019  1.00  0.00    -0.171 F 
ENDBRANCH  18  20
ENDBRANCH   1  18
BRANCH   3  24
HETATM   24  N2  UNL     1      20.214 -14.684  22.715  1.00  0.00    -0.310 N 
ATOM     25  H2  UNL     1      20.716 -13.882  22.334  1.00  0.00     0.172 HD
BRANCH  24  26
HETATM   26  S1  UNL     1      20.871 -15.527  23.999  1.00  0.00     0.264 S 
HETATM   27  O3  UNL     1      20.352 -16.951  24.108  1.00  0.00    -0.203 OA
HETATM   28  O4  UNL     1      22.387 -15.691  23.864  1.00  0.00    -0.203 OA
BRANCH  26  29
HETATM   29  C15 UNL     1      20.628 -14.663  25.520  1.00  0.00     0.216 C 
HETATM   30  C16 UNL     1      21.958 -14.501  26.265  1.00  0.00     0.071 C 
HETATM   31  C17 UNL     1      19.670 -15.353  26.462  1.00  0.00     0.071 C 
HETATM   32  F4  UNL     1      20.150 -13.406  25.262  1.00  0.00    -0.225 F 
ENDBRANCH  26  29
ENDBRANCH  24  26
ENDBRANCH   3  24
TORSDOF 10
ENDMDL
MODEL 5
REMARK VINA RESULT: -7.401982733      2.384      3.048
REMARK  10 active torsions:
REMARK  status: ('A' for Active; 'I' for Inactive)
REMARK    1  A    between atoms: O1_2  and  C2_3 
REMARK    2  A    between atoms: C6_8  and  N1_9 
REMARK    3  A    between atoms: N1_9  and  C7_11 
REMARK    4  A    between atoms: C7_11  and  C8_12 
REMARK    5  A    between atoms: C8_12  and  C9_13 
REMARK    6  A    between atoms: C9_13  and  C10_14 
REMARK    7  A    between atoms: C10_14  and  C12_16 
REMARK    8  A    between atoms: C14_21  and  N2_22 
REMARK    9  A    between atoms: N2_22  and  S1_24 
REMARK   10  A    between atoms: S1_24  and  C15_27 
ROOT
HETATM    1  C9  UNL     1      16.790 -13.626  20.301  1.00  0.00     0.076 C 
HETATM    2  C13 UNL     1      18.049 -14.110  20.979  1.00  0.00     0.066 C 
HETATM    3  C14 UNL     1      17.642 -15.532  21.368  1.00  0.00     0.119 C 
HETATM    4  C18 UNL     1      16.153 -15.334  21.631  1.00  0.00     0.194 C 
HETATM    5  O5  UNL     1      15.721 -14.257  20.933  1.00  0.00    -0.377 OA
ENDROOT
BRANCH   1   6
HETATM    6  C8  UNL     1      16.553 -12.153  20.403  1.00  0.00     0.058 C 
BRANCH   6   7
HETATM    7  C7  UNL     1      15.326 -11.784  21.242  1.00  0.00     0.117 C 
BRANCH   7   8
HETATM    8  N1  UNL     1      14.172 -11.670  20.386  1.00  0.00    -0.414 N 
ATOM      9  H1  UNL     1      14.267 -11.441  19.396  1.00  0.00     0.153 HD
BRANCH   8  10
HETATM   10  C6  UNL     1      12.910 -11.885  20.967  1.00  0.00     0.109 C 
HETATM   11  C2  UNL     1      12.673 -13.328  21.303  1.00  0.00     0.167 C 
HETATM   12  C3  UNL     1      12.305 -13.498  22.763  1.00  0.00     0.201 C 
HETATM   13  O2  UNL     1      11.197 -12.765  23.129  1.00  0.00    -0.388 OA
HETATM   14  C4  UNL     1      11.266 -11.439  22.715  1.00  0.00     0.169 C 
HETATM   15  C5  UNL     1      12.648 -11.075  22.215  1.00  0.00     0.053 C 
BRANCH  11  16
HETATM   16  O1  UNL     1      11.716 -13.911  20.470  1.00  0.00    -0.387 OA
HETATM   17  C1  UNL     1      12.066 -15.208  20.109  1.00  0.00     0.202 C 
ENDBRANCH  11  16
ENDBRANCH   8  10
ENDBRANCH   7   8
ENDBRANCH   6   7
ENDBRANCH   1   6
BRANCH   1  18
HETATM   18  C10 UNL     1      16.864 -14.045  18.856  1.00  0.00     0.124 C 
HETATM   19  C11 UNL     1      17.471 -12.936  18.026  1.00  0.00     0.022 C 
BRANCH  18  20
HETATM   20  C12 UNL     1      15.647 -14.556  18.212  1.00  0.00     0.393 C 
HETATM   21  F1  UNL     1      14.491 -13.849  18.359  1.00  0.00    -0.171 F 
HETATM   22  F2  UNL     1      15.899 -14.640  16.825  1.00  0.00    -0.171 F 
HETATM   23  F3  UNL     1      15.343 -15.868  18.566  1.00  0.00    -0.171 F 
ENDBRANCH  18  20
ENDBRANCH   1  18
BRANCH   3  24
HETATM   24  N2  UNL     1      18.219 -15.957  22.576  1.00  0.00    -0.310 N 
ATOM     25  H2  UNL     1      17.630 -16.057  23.403  1.00  0.00     0.172 HD
BRANCH  24  26
HETATM   26  S1  UNL     1      19.851 -16.301  22.685  1.00  0.00     0.264 S 
HETATM   27  O3  UNL     1      20.136 -17.645  23.336  1.00  0.00    -0.203 OA
HETATM   28  O4  UNL     1      20.509 -16.407  21.307  1.00  0.00    -0.203 OA
BRANCH  26  29
HETATM   29  C15 UNL     1      20.720 -15.013  23.522  1.00  0.00     0.216 C 
HETATM   30  C16 UNL     1      21.909 -15.586  24.303  1.00  0.00     0.071 C 
HETATM   31  C17 UNL     1      19.868 -14.247  24.506  1.00  0.00     0.071 C 
HETATM   32  F4  UNL     1      21.223 -14.128  22.605  1.00  0.00    -0.225 F 
ENDBRANCH  26  29
ENDBRANCH  24  26
ENDBRANCH   3  24
TORSDOF 10
ENDMDL
