MODEL 1
REMARK VINA RESULT: -7.137146168      0.000      0.000
REMARK  12 active torsions:
REMARK  status: ('A' for Active; 'I' for Inactive)
REMARK    1  A    between atoms: O1_2  and  C2_3 
REMARK    2  A    between atoms: N1_7  and  S1_8 
REMARK    3  A    between atoms: S1_8  and  C5_11 
REMARK    4  A    between atoms: C5_11  and  C6_12 
REMARK    5  A    between atoms: C5_11  and  C9_15 
REMARK    6  A    between atoms: C9_15  and  C11_17 
REMARK    7  A    between atoms: C11_17  and  O4_18 
REMARK    8  A    between atoms: O4_18  and  C12_19 
REMARK    9  A    between atoms: C16_23  and  C17_24 
REMARK   10  A    between atoms: C17_24  and  O5_25 
REMARK   11  A    between atoms: C17_24  and  O6_27 
REMARK   12  A    between atoms: C17_24  and  C18_29 
ROOT
HETATM    1  C2  UNL     1      13.262 -13.336  21.017  1.00  0.00     0.185 C 
HETATM    2  C3  UNL     1      14.512 -12.430  21.241  1.00  0.00     0.219 C 
HETATM    3  F1  UNL     1      14.203 -11.267  21.841  1.00  0.00    -0.245 F 
HETATM    4  C4  UNL     1      15.256 -13.417  22.187  1.00  0.00     0.175 C 
HETATM    5  N1  UNL     1      15.219 -14.597  21.449  1.00  0.00    -0.295 N 
HETATM    6  C16 UNL     1      13.904 -14.676  20.814  1.00  0.00     0.199 C 
ENDROOT
BRANCH   5   7
HETATM    7  S1  UNL     1      16.481 -15.102  20.473  1.00  0.00     0.234 S 
HETATM    8  O2  UNL     1      16.287 -16.585  20.121  1.00  0.00    -0.205 OA
HETATM    9  O3  UNL     1      16.301 -14.415  19.125  1.00  0.00    -0.205 OA
BRANCH   7  10
HETATM   10  C5  UNL     1      18.144 -14.866  21.061  1.00  0.00     0.138 C 
BRANCH  10  11
HETATM   11  C6  UNL     1      18.658 -13.605  20.415  1.00  0.00    -0.002 C 
HETATM   12  C7  UNL     1      20.106 -13.576  20.042  1.00  0.00     0.011 C 
HETATM   13  C8  UNL     1      18.366 -12.319  21.126  1.00  0.00     0.011 C 
ENDBRANCH  10  11
BRANCH  10  14
HETATM   14  C9  UNL     1      18.316 -15.081  22.482  1.00  0.00     0.026 C 
HETATM   15  C10 UNL     1      17.647 -16.341  23.059  1.00  0.00     0.013 C 
BRANCH  14  16
HETATM   16  C11 UNL     1      19.698 -14.946  23.079  1.00  0.00     0.174 C 
BRANCH  16  17
HETATM   17  O4  UNL     1      19.514 -14.110  24.218  1.00  0.00    -0.381 OA
BRANCH  17  18
HETATM   18  C12 UNL     1      20.305 -14.562  25.271  1.00  0.00     0.050 C 
HETATM   19  C13 UNL     1      19.548 -15.502  26.190  1.00  0.00     0.045 C 
HETATM   20  C14 UNL     1      20.909 -13.461  26.081  1.00  0.00     0.045 C 
HETATM   21  C15 UNL     1      21.432 -15.364  24.657  1.00  0.00     0.045 C 
ENDBRANCH  17  18
ENDBRANCH  16  17
ENDBRANCH  14  16
ENDBRANCH  10  14
ENDBRANCH   7  10
ENDBRANCH   5   7
BRANCH   6  22
HETATM   22  C17 UNL     1      13.139 -15.785  21.498  1.00  0.00     0.285 C 
BRANCH  22  23
HETATM   23  O5  UNL     1      12.714 -15.512  22.767  1.00  0.00    -0.357 OA
ATOM     24  H5  UNL     1      12.168 -16.178  23.169  1.00  0.00     0.213 HD
ENDBRANCH  22  23
BRANCH  22  25
HETATM   25  O6  UNL     1      14.181 -16.778  21.744  1.00  0.00    -0.357 OA
ATOM     26  H6  UNL     1      14.251 -16.768  22.692  1.00  0.00     0.213 HD
ENDBRANCH  22  25
BRANCH  22  27
HETATM   27  C18 UNL     1      12.162 -16.521  20.677  1.00  0.00     0.446 C 
HETATM   28  F2  UNL     1      11.201 -17.243  21.283  1.00  0.00    -0.166 F 
HETATM   29  F3  UNL     1      11.492 -15.673  19.770  1.00  0.00    -0.166 F 
HETATM   30  F4  UNL     1      12.849 -17.409  19.826  1.00  0.00    -0.166 F 
ENDBRANCH  22  27
ENDBRANCH   6  22
BRANCH   1  31
HETATM   31  O1  UNL     1      12.532 -13.313  22.206  1.00  0.00    -0.385 OA
HETATM   32  C1  UNL     1      11.433 -12.494  22.184  1.00  0.00     0.202 C 
ENDBRANCH   1  31
TORSDOF 12
ENDMDL
MODEL 2
REMARK VINA RESULT: -6.936410790      1.907      3.372
REMARK  12 active torsions:
REMARK  status: ('A' for Active; 'I' for Inactive)
REMARK    1  A    between atoms: O1_2  and  C2_3 
REMARK    2  A    between atoms: N1_7  and  S1_8 
REMARK    3  A    between atoms: S1_8  and  C5_11 
REMARK    4  A    between atoms: C5_11  and  C6_12 
REMARK    5  A    between atoms: C5_11  and  C9_15 
REMARK    6  A    between atoms: C9_15  and  C11_17 
REMARK    7  A    between atoms: C11_17  and  O4_18 
REMARK    8  A    between atoms: O4_18  and  C12_19 
REMARK    9  A    between atoms: C16_23  and  C17_24 
REMARK   10  A    between atoms: C17_24  and  O5_25 
REMARK   11  A    between atoms: C17_24  and  O6_27 
REMARK   12  A    between atoms: C17_24  and  C18_29 
ROOT
HETATM    1  C2  UNL     1      13.291 -14.949  20.868  1.00  0.00     0.185 C 
HETATM    2  C3  UNL     1      14.472 -15.817  20.335  1.00  0.00     0.219 C 
HETATM    3  F1  UNL     1      14.053 -16.858  19.593  1.00  0.00    -0.245 F 
HETATM    4  C4  UNL     1      15.123 -14.692  19.479  1.00  0.00     0.175 C 
HETATM    5  N1  UNL     1      15.218 -13.654  20.402  1.00  0.00    -0.295 N 
HETATM    6  C16 UNL     1      13.996 -13.670  21.207  1.00  0.00     0.199 C 
ENDROOT
BRANCH   5   7
HETATM    7  S1  UNL     1      16.609 -13.336  21.277  1.00  0.00     0.234 S 
HETATM    8  O2  UNL     1      16.875 -11.822  21.273  1.00  0.00    -0.205 OA
HETATM    9  O3  UNL     1      16.284 -13.611  22.741  1.00  0.00    -0.205 OA
BRANCH   7  10
HETATM   10  C5  UNL     1      18.104 -14.181  20.814  1.00  0.00     0.138 C 
BRANCH  10  11
HETATM   11  C6  UNL     1      18.873 -13.244  19.919  1.00  0.00    -0.002 C 
HETATM   12  C7  UNL     1      18.304 -12.987  18.559  1.00  0.00     0.011 C 
HETATM   13  C8  UNL     1      20.330 -13.537  19.733  1.00  0.00     0.011 C 
ENDBRANCH  10  11
BRANCH  10  14
HETATM   14  C9  UNL     1      18.772 -14.863  21.903  1.00  0.00     0.026 C 
HETATM   15  C10 UNL     1      19.275 -16.285  21.599  1.00  0.00     0.013 C 
BRANCH  14  16
HETATM   16  C11 UNL     1      19.837 -14.127  22.683  1.00  0.00     0.174 C 
BRANCH  16  17
HETATM   17  O4  UNL     1      19.452 -14.283  24.046  1.00  0.00    -0.381 OA
BRANCH  17  18
HETATM   18  C12 UNL     1      20.567 -14.590  24.821  1.00  0.00     0.050 C 
HETATM   19  C13 UNL     1      20.767 -13.597  25.949  1.00  0.00     0.045 C 
HETATM   20  C14 UNL     1      21.831 -14.703  24.033  1.00  0.00     0.045 C 
HETATM   21  C15 UNL     1      20.295 -15.933  25.463  1.00  0.00     0.045 C 
ENDBRANCH  17  18
ENDBRANCH  16  17
ENDBRANCH  14  16
ENDBRANCH  10  14
ENDBRANCH   7  10
ENDBRANCH   5   7
BRANCH   6  22
HETATM   22  C17 UNL     1      13.188 -12.453  20.823  1.00  0.00     0.285 C 
BRANCH  22  23
HETATM   23  O5  UNL     1      12.871 -12.350  19.498  1.00  0.00    -0.357 OA
ATOM     24  H5  UNL     1      11.957 -12.173  19.307  1.00  0.00     0.213 HD
ENDBRANCH  22  23
BRANCH  22  25
HETATM   25  O6  UNL     1      14.157 -11.372  20.978  1.00  0.00    -0.357 OA
ATOM     26  H6  UNL     1      13.637 -10.691  21.389  1.00  0.00     0.213 HD
ENDBRANCH  22  25
BRANCH  22  27
HETATM   27  C18 UNL     1      12.101 -12.063  21.738  1.00  0.00     0.446 C 
HETATM   28  F2  UNL     1      11.029 -12.866  21.870  1.00  0.00    -0.166 F 
HETATM   29  F3  UNL     1      12.573 -11.833  23.048  1.00  0.00    -0.166 F 
HETATM   30  F4  UNL     1      11.607 -10.800  21.358  1.00  0.00    -0.166 F 
ENDBRANCH  22  27
ENDBRANCH   6  22
BRANCH   1  31
HETATM   31  O1  UNL     1      12.416 -14.761  19.796  1.00  0.00    -0.385 OA
HETATM   32  C1  UNL     1      11.418 -15.696  19.705  1.00  0.00     0.202 C 
ENDBRANCH   1  31
TORSDOF 12
ENDMDL
MODEL 3
REMARK VINA RESULT: -6.913587707      2.186      3.191
REMARK  12 active torsions:
REMARK  status: ('A' for Active; 'I' for Inactive)
REMARK    1  A    between atoms: O1_2  and  C2_3 
REMARK    2  A    between atoms: N1_7  and  S1_8 
REMARK    3  A    between atoms: S1_8  and  C5_11 
REMARK    4  A    between atoms: C5_11  and  C6_12 
REMARK    5  A    between atoms: C5_11  and  C9_15 
REMARK    6  A    between atoms: C9_15  and  C11_17 
REMARK    7  A    between atoms: C11_17  and  O4_18 
REMARK    8  A    between atoms: O4_18  and  C12_19 
REMARK    9  A    between atoms: C16_23  and  C17_24 
REMARK   10  A    between atoms: C17_24  and  O5_25 
REMARK   11  A    between atoms: C17_24  and  O6_27 
REMARK   12  A    between atoms: C17_24  and  C18_29 
ROOT
HETATM    1  C2  UNL     1      12.404 -11.491  21.773  1.00  0.00     0.185 C 
HETATM    2  C3  UNL     1      13.628 -10.534  21.640  1.00  0.00     0.219 C 
HETATM    3  F1  UNL     1      13.636  -9.574  22.582  1.00  0.00    -0.245 F 
HETATM    4  C4  UNL     1      14.711 -11.625  21.884  1.00  0.00     0.175 C 
HETATM    5  N1  UNL     1      14.333 -12.606  20.972  1.00  0.00    -0.295 N 
HETATM    6  C16 UNL     1      12.871 -12.677  20.984  1.00  0.00     0.199 C 
ENDROOT
BRANCH   5   7
HETATM    7  S1  UNL     1      15.011 -12.745  19.448  1.00  0.00     0.234 S 
HETATM    8  O2  UNL     1      13.960 -12.375  18.390  1.00  0.00    -0.205 OA
HETATM    9  O3  UNL     1      16.029 -11.618  19.312  1.00  0.00    -0.205 OA
BRANCH   7  10
HETATM   10  C5  UNL     1      15.755 -14.297  18.998  1.00  0.00     0.138 C 
BRANCH  10  11
HETATM   11  C6  UNL     1      15.566 -14.453  17.510  1.00  0.00    -0.002 C 
HETATM   12  C7  UNL     1      15.510 -15.850  16.977  1.00  0.00     0.011 C 
HETATM   13  C8  UNL     1      16.506 -13.688  16.630  1.00  0.00     0.011 C 
ENDBRANCH  10  11
BRANCH  10  14
HETATM   14  C9  UNL     1      17.048 -14.542  19.599  1.00  0.00     0.026 C 
HETATM   15  C10 UNL     1      18.018 -13.347  19.620  1.00  0.00     0.013 C 
BRANCH  14  16
HETATM   16  C11 UNL     1      17.113 -15.245  20.935  1.00  0.00     0.174 C 
BRANCH  16  17
HETATM   17  O4  UNL     1      17.833 -14.348  21.775  1.00  0.00    -0.381 OA
BRANCH  17  18
HETATM   18  C12 UNL     1      18.689 -15.063  22.609  1.00  0.00     0.050 C 
HETATM   19  C13 UNL     1      18.270 -14.977  24.063  1.00  0.00     0.045 C 
HETATM   20  C14 UNL     1      20.122 -14.660  22.483  1.00  0.00     0.045 C 
HETATM   21  C15 UNL     1      18.576 -16.518  22.205  1.00  0.00     0.045 C 
ENDBRANCH  17  18
ENDBRANCH  16  17
ENDBRANCH  14  16
ENDBRANCH  10  14
ENDBRANCH   7  10
ENDBRANCH   5   7
BRANCH   6  22
HETATM   22  C17 UNL     1      12.489 -13.985  21.636  1.00  0.00     0.285 C 
BRANCH  22  23
HETATM   23  O5  UNL     1      11.371 -13.946  22.421  1.00  0.00    -0.357 OA
ATOM     24  H5  UNL     1      10.685 -14.560  22.188  1.00  0.00     0.213 HD
ENDBRANCH  22  23
BRANCH  22  25
HETATM   25  O6  UNL     1      13.542 -14.157  22.633  1.00  0.00    -0.357 OA
ATOM     26  H6  UNL     1      13.050 -14.406  23.407  1.00  0.00     0.213 HD
ENDBRANCH  22  25
BRANCH  22  27
HETATM   27  C18 UNL     1      12.608 -15.198  20.809  1.00  0.00     0.446 C 
HETATM   28  F2  UNL     1      12.468 -15.102  19.473  1.00  0.00    -0.166 F 
HETATM   29  F3  UNL     1      13.834 -15.862  21.022  1.00  0.00    -0.166 F 
HETATM   30  F4  UNL     1      11.660 -16.146  21.241  1.00  0.00    -0.166 F 
ENDBRANCH  22  27
ENDBRANCH   6  22
BRANCH   1  31
HETATM   31  O1  UNL     1      12.291 -11.812  23.127  1.00  0.00    -0.385 OA
HETATM   32  C1  UNL     1      11.364 -11.072  23.813  1.00  0.00     0.202 C 
ENDBRANCH   1  31
TORSDOF 12
ENDMDL
MODEL 4
REMARK VINA RESULT: -6.878062528      2.082      3.643
REMARK  12 active torsions:
REMARK  status: ('A' for Active; 'I' for Inactive)
REMARK    1  A    between atoms: O1_2  and  C2_3 
REMARK    2  A    between atoms: N1_7  and  S1_8 
REMARK    3  A    between atoms: S1_8  and  C5_11 
REMARK    4  A    between atoms: C5_11  and  C6_12 
REMARK    5  A    between atoms: C5_11  and  C9_15 
REMARK    6  A    between atoms: C9_15  and  C11_17 
REMARK    7  A    between atoms: C11_17  and  O4_18 
REMARK    8  A    between atoms: O4_18  and  C12_19 
REMARK    9  A    between atoms: C16_23  and  C17_24 
REMARK   10  A    between atoms: C17_24  and  O5_25 
REMARK   11  A    between atoms: C17_24  and  O6_27 
REMARK   12  A    between atoms: C17_24  and  C18_29 
ROOT
HETATM    1  C2  UNL     1      14.061 -14.537  21.004  1.00  0.00     0.185 C 
HETATM    2  C3  UNL     1      14.863 -15.770  20.482  1.00  0.00     0.219 C 
HETATM    3  F1  UNL     1      14.064 -16.725  19.972  1.00  0.00    -0.245 F 
HETATM    4  C4  UNL     1      15.651 -14.995  19.386  1.00  0.00     0.175 C 
HETATM    5  N1  UNL     1      16.169 -13.927  20.113  1.00  0.00    -0.295 N 
HETATM    6  C16 UNL     1      15.132 -13.488  21.047  1.00  0.00     0.199 C 
ENDROOT
BRANCH   5   7
HETATM    7  S1  UNL     1      17.714 -13.925  20.755  1.00  0.00     0.234 S 
HETATM    8  O2  UNL     1      18.720 -13.550  19.655  1.00  0.00    -0.205 OA
HETATM    9  O3  UNL     1      17.799 -12.733  21.702  1.00  0.00    -0.205 OA
BRANCH   7  10
HETATM   10  C5  UNL     1      18.285 -15.397  21.575  1.00  0.00     0.138 C 
BRANCH  10  11
HETATM   11  C6  UNL     1      19.788 -15.404  21.458  1.00  0.00    -0.002 C 
HETATM   12  C7  UNL     1      20.477 -16.717  21.655  1.00  0.00     0.011 C 
HETATM   13  C8  UNL     1      20.529 -14.395  22.282  1.00  0.00     0.011 C 
ENDBRANCH  10  11
BRANCH  10  14
HETATM   14  C9  UNL     1      17.650 -15.662  22.849  1.00  0.00     0.026 C 
HETATM   15  C10 UNL     1      17.107 -17.088  23.047  1.00  0.00     0.013 C 
BRANCH  14  16
HETATM   16  C11 UNL     1      18.346 -15.225  24.117  1.00  0.00     0.174 C 
BRANCH  16  17
HETATM   17  O4  UNL     1      18.827 -16.436  24.694  1.00  0.00    -0.381 OA
BRANCH  17  18
HETATM   18  C12 UNL     1      19.574 -16.154  25.835  1.00  0.00     0.050 C 
HETATM   19  C13 UNL     1      19.956 -14.689  25.918  1.00  0.00     0.045 C 
HETATM   20  C14 UNL     1      20.803 -16.993  25.968  1.00  0.00     0.045 C 
HETATM   21  C15 UNL     1      18.681 -16.442  27.022  1.00  0.00     0.045 C 
ENDBRANCH  17  18
ENDBRANCH  16  17
ENDBRANCH  14  16
ENDBRANCH  10  14
ENDBRANCH   7  10
ENDBRANCH   5   7
BRANCH   6  22
HETATM   22  C17 UNL     1      14.635 -12.144  20.571  1.00  0.00     0.285 C 
BRANCH  22  23
HETATM   23  O5  UNL     1      14.364 -12.056  19.234  1.00  0.00    -0.357 OA
ATOM     24  H5  UNL     1      13.631 -12.578  18.929  1.00  0.00     0.213 HD
ENDBRANCH  22  23
BRANCH  22  25
HETATM   25  O6  UNL     1      15.828 -11.310  20.685  1.00  0.00    -0.357 OA
ATOM     26  H6  UNL     1      16.186 -11.347  19.805  1.00  0.00     0.213 HD
ENDBRANCH  22  25
BRANCH  22  27
HETATM   27  C18 UNL     1      13.660 -11.453  21.433  1.00  0.00     0.446 C 
HETATM   28  F2  UNL     1      13.258 -12.041  22.577  1.00  0.00    -0.166 F 
HETATM   29  F3  UNL     1      14.100 -10.163  21.797  1.00  0.00    -0.166 F 
HETATM   30  F4  UNL     1      12.493 -11.188  20.692  1.00  0.00    -0.166 F 
ENDBRANCH  22  27
ENDBRANCH   6  22
BRANCH   1  31
HETATM   31  O1  UNL     1      13.113 -14.233  20.026  1.00  0.00    -0.385 OA
HETATM   32  C1  UNL     1      11.824 -14.557  20.363  1.00  0.00     0.202 C 
ENDBRANCH   1  31
TORSDOF 12
ENDMDL
MODEL 5
REMARK VINA RESULT: -6.855832050      2.054      3.773
REMARK  12 active torsions:
REMARK  status: ('A' for Active; 'I' for Inactive)
REMARK    1  A    between atoms: O1_2  and  C2_3 
REMARK    2  A    between atoms: N1_7  and  S1_8 
REMARK    3  A    between atoms: S1_8  and  C5_11 
REMARK    4  A    between atoms: C5_11  and  C6_12 
REMARK    5  A    between atoms: C5_11  and  C9_15 
REMARK    6  A    between atoms: C9_15  and  C11_17 
REMARK    7  A    between atoms: C11_17  and  O4_18 
REMARK    8  A    between atoms: O4_18  and  C12_19 
REMARK    9  A    between atoms: C16_23  and  C17_24 
REMARK   10  A    between atoms: C17_24  and  O5_25 
REMARK   11  A    between atoms: C17_24  and  O6_27 
REMARK   12  A    between atoms: C17_24  and  C18_29 
ROOT
HETATM    1  C2  UNL     1      14.015 -14.306  21.528  1.00  0.00     0.185 C 
HETATM    2  C3  UNL     1      14.745 -15.646  21.200  1.00  0.00     0.219 C 
HETATM    3  F1  UNL     1      13.893 -16.618  20.826  1.00  0.00    -0.245 F 
HETATM    4  C4  UNL     1      15.579 -15.085  20.011  1.00  0.00     0.175 C 
HETATM    5  N1  UNL     1      16.156 -13.954  20.580  1.00  0.00    -0.295 N 
HETATM    6  C16 UNL     1      15.145 -13.326  21.430  1.00  0.00     0.199 C 
ENDROOT
BRANCH   5   7
HETATM    7  S1  UNL     1      17.698 -13.947  21.231  1.00  0.00     0.234 S 
HETATM    8  O2  UNL     1      18.729 -13.975  20.092  1.00  0.00    -0.205 OA
HETATM    9  O3  UNL     1      17.915 -12.567  21.840  1.00  0.00    -0.205 OA
BRANCH   7  10
HETATM   10  C5  UNL     1      18.116 -15.209  22.413  1.00  0.00     0.138 C 
BRANCH  10  11
HETATM   11  C6  UNL     1      18.646 -16.381  21.627  1.00  0.00    -0.002 C 
HETATM   12  C7  UNL     1      17.814 -17.624  21.620  1.00  0.00     0.011 C 
HETATM   13  C8  UNL     1      20.055 -16.801  21.916  1.00  0.00     0.011 C 
ENDBRANCH  10  11
BRANCH  10  14
HETATM   14  C9  UNL     1      18.828 -14.730  23.579  1.00  0.00     0.026 C 
HETATM   15  C10 UNL     1      18.327 -15.254  24.936  1.00  0.00     0.013 C 
BRANCH  14  16
HETATM   16  C11 UNL     1      20.339 -14.756  23.575  1.00  0.00     0.174 C 
BRANCH  16  17
HETATM   17  O4  UNL     1      20.710 -14.046  24.753  1.00  0.00    -0.381 OA
BRANCH  17  18
HETATM   18  C12 UNL     1      21.779 -14.686  25.375  1.00  0.00     0.050 C 
HETATM   19  C13 UNL     1      23.115 -14.123  24.934  1.00  0.00     0.045 C 
HETATM   20  C14 UNL     1      21.781 -16.168  25.186  1.00  0.00     0.045 C 
HETATM   21  C15 UNL     1      21.652 -14.405  26.857  1.00  0.00     0.045 C 
ENDBRANCH  17  18
ENDBRANCH  16  17
ENDBRANCH  14  16
ENDBRANCH  10  14
ENDBRANCH   7  10
ENDBRANCH   5   7
BRANCH   6  22
HETATM   22  C17 UNL     1      14.727 -12.039  20.758  1.00  0.00     0.285 C 
BRANCH  22  23
HETATM   23  O5  UNL     1      14.545 -12.113  19.406  1.00  0.00    -0.357 OA
ATOM     24  H5  UNL     1      14.052 -12.865  19.099  1.00  0.00     0.213 HD
ENDBRANCH  22  23
BRANCH  22  25
HETATM   25  O6  UNL     1      15.940 -11.231  20.847  1.00  0.00    -0.357 OA
ATOM     26  H6  UNL     1      15.600 -10.382  21.104  1.00  0.00     0.213 HD
ENDBRANCH  22  25
BRANCH  22  27
HETATM   27  C18 UNL     1      13.726 -11.218  21.461  1.00  0.00     0.446 C 
HETATM   28  F2  UNL     1      13.255 -11.630  22.653  1.00  0.00    -0.166 F 
HETATM   29  F3  UNL     1      14.175  -9.896  21.660  1.00  0.00    -0.166 F 
HETATM   30  F4  UNL     1      12.603 -11.045  20.629  1.00  0.00    -0.166 F 
ENDBRANCH  22  27
ENDBRANCH   6  22
BRANCH   1  31
HETATM   31  O1  UNL     1      13.087 -14.095  20.507  1.00  0.00    -0.385 OA
HETATM   32  C1  UNL     1      11.782 -14.293  20.875  1.00  0.00     0.202 C 
ENDBRANCH   1  31
TORSDOF 12
ENDMDL
