MODEL 1
REMARK VINA RESULT: -6.906883523      0.000      0.000
REMARK  11 active torsions:
REMARK  status: ('A' for Active; 'I' for Inactive)
REMARK    1  A    between atoms: C2_2  and  N1_3 
REMARK       I    between atoms: N1_3  and  C3_5 
REMARK    2  A    between atoms: C3_5  and  C4_7 
REMARK    3  A    between atoms: C4_7  and  C5_8 
REMARK    4  A    between atoms: C4_7  and  N3_22 
REMARK    5  A    between atoms: C5_8  and  O2_9 
REMARK    6  A    between atoms: O2_9  and  C6_10 
REMARK    7  A    between atoms: C6_10  and  C7_11 
REMARK    8  A    between atoms: C6_10  and  C12_18 
REMARK    9  A    between atoms: C7_11  and  N2_12 
REMARK       I    between atoms: N3_22  and  C13_24 
REMARK   10  A    between atoms: C13_24  and  O5_26 
REMARK   11  A    between atoms: O5_26  and  C14_27 
ROOT
HETATM    1  C4  UNL     1      17.995 -14.894  22.200  1.00  0.00     0.202 C 
ENDROOT
BRANCH   1   2
HETATM    2  C3  UNL     1      18.851 -15.258  23.351  1.00  0.00     0.243 C 
HETATM    3  N1  UNL     1      19.768 -14.326  23.859  1.00  0.00    -0.350 N 
ATOM      4  H1  UNL     1      19.825 -13.407  23.419  1.00  0.00     0.163 HD
HETATM    5  O1  UNL     1      18.787 -16.389  23.903  1.00  0.00    -0.271 OA
BRANCH   3   6
HETATM    6  C2  UNL     1      20.634 -14.612  24.978  1.00  0.00     0.029 A 
HETATM    7  C1  UNL     1      21.872 -15.425  24.642  1.00  0.00     0.038 C 
HETATM    8  C18 UNL     1      19.954 -14.792  26.295  1.00  0.00     0.033 A 
HETATM    9  C19 UNL     1      20.830 -13.593  26.044  1.00  0.00     0.033 A 
ENDBRANCH   3   6
ENDBRANCH   1   2
BRANCH   1  10
HETATM   10  C5  UNL     1      18.125 -13.455  21.798  1.00  0.00     0.203 C 
BRANCH  10  11
HETATM   11  O2  UNL     1      17.055 -12.773  21.523  1.00  0.00    -0.373 OA
BRANCH  11  12
HETATM   12  C6  UNL     1      16.552 -12.337  20.385  1.00  0.00     0.257 C 
BRANCH  12  13
HETATM   13  C7  UNL     1      15.006 -12.447  20.354  1.00  0.00     0.313 C 
BRANCH  13  14
HETATM   14  N2  UNL     1      14.392 -12.073  21.566  1.00  0.00     0.095 N 
HETATM   15  C8  UNL     1      13.677 -10.842  21.566  1.00  0.00     0.298 C 
HETATM   16  C9  UNL     1      12.662 -10.838  22.718  1.00  0.00     0.198 C 
HETATM   17  O3  UNL     1      11.607 -11.644  22.367  1.00  0.00    -0.388 OA
HETATM   18  C10 UNL     1      12.038 -12.748  21.670  1.00  0.00     0.198 C 
HETATM   19  C11 UNL     1      13.477 -13.126  21.964  1.00  0.00     0.298 C 
ENDBRANCH  13  14
ENDBRANCH  12  13
BRANCH  12  20
HETATM   20  C12 UNL     1      16.976 -13.047  19.117  1.00  0.00     0.414 C 
HETATM   21  F1  UNL     1      16.569 -14.368  19.110  1.00  0.00    -0.168 F 
HETATM   22  F2  UNL     1      16.284 -12.436  18.063  1.00  0.00    -0.168 F 
HETATM   23  F3  UNL     1      18.299 -12.912  18.810  1.00  0.00    -0.168 F 
ENDBRANCH  12  20
ENDBRANCH  11  12
ENDBRANCH  10  11
ENDBRANCH   1  10
BRANCH   1  24
HETATM   24  N3  UNL     1      16.666 -15.369  22.401  1.00  0.00    -0.322 N 
HETATM   25  C13 UNL     1      16.098 -16.456  21.682  1.00  0.00     0.362 C 
HETATM   26  O4  UNL     1      16.802 -17.029  20.825  1.00  0.00    -0.238 OA
ATOM     27  H3  UNL     1      16.089 -14.901  23.099  1.00  0.00     0.165 HD
BRANCH  25  28
HETATM   28  O5  UNL     1      14.813 -16.887  21.900  1.00  0.00    -0.294 OA
BRANCH  28  29
HETATM   29  C14 UNL     1      13.827 -17.009  20.913  1.00  0.00     0.061 C 
HETATM   30  C15 UNL     1      12.490 -16.682  21.584  1.00  0.00     0.046 C 
HETATM   31  C16 UNL     1      13.712 -18.416  20.377  1.00  0.00     0.046 C 
HETATM   32  C17 UNL     1      13.991 -16.069  19.763  1.00  0.00     0.046 C 
ENDBRANCH  28  29
ENDBRANCH  25  28
ENDBRANCH   1  24
TORSDOF 11
ENDMDL
MODEL 2
REMARK VINA RESULT: -6.894068701      3.324      6.614
REMARK  11 active torsions:
REMARK  status: ('A' for Active; 'I' for Inactive)
REMARK    1  A    between atoms: C2_2  and  N1_3 
REMARK       I    between atoms: N1_3  and  C3_5 
REMARK    2  A    between atoms: C3_5  and  C4_7 
REMARK    3  A    between atoms: C4_7  and  C5_8 
REMARK    4  A    between atoms: C4_7  and  N3_22 
REMARK    5  A    between atoms: C5_8  and  O2_9 
REMARK    6  A    between atoms: O2_9  and  C6_10 
REMARK    7  A    between atoms: C6_10  and  C7_11 
REMARK    8  A    between atoms: C6_10  and  C12_18 
REMARK    9  A    between atoms: C7_11  and  N2_12 
REMARK       I    between atoms: N3_22  and  C13_24 
REMARK   10  A    between atoms: C13_24  and  O5_26 
REMARK   11  A    between atoms: O5_26  and  C14_27 
ROOT
HETATM    1  C4  UNL     1      12.795 -15.582  21.969  1.00  0.00     0.202 C 
ENDROOT
BRANCH   1   2
HETATM    2  C3  UNL     1      12.315 -15.907  20.607  1.00  0.00     0.243 C 
HETATM    3  N1  UNL     1      12.127 -17.247  20.236  1.00  0.00    -0.350 N 
ATOM      4  H1  UNL     1      12.328 -17.976  20.921  1.00  0.00     0.163 HD
HETATM    5  O1  UNL     1      12.064 -15.014  19.754  1.00  0.00    -0.271 OA
BRANCH   3   6
HETATM    6  C2  UNL     1      11.663 -17.637  18.927  1.00  0.00     0.029 A 
HETATM    7  C1  UNL     1      12.732 -17.671  17.849  1.00  0.00     0.038 C 
HETATM    8  C18 UNL     1      10.267 -17.230  18.585  1.00  0.00     0.033 A 
HETATM    9  C19 UNL     1      10.612 -18.681  18.793  1.00  0.00     0.033 A 
ENDBRANCH   3   6
ENDBRANCH   1   2
BRANCH   1  10
HETATM   10  C5  UNL     1      12.375 -14.219  22.434  1.00  0.00     0.203 C 
BRANCH  10  11
HETATM   11  O2  UNL     1      13.235 -13.246  22.406  1.00  0.00    -0.373 OA
BRANCH  11  12
HETATM   12  C6  UNL     1      13.275 -12.120  21.721  1.00  0.00     0.257 C 
BRANCH  12  13
HETATM   13  C7  UNL     1      14.723 -11.736  21.321  1.00  0.00     0.313 C 
BRANCH  13  14
HETATM   14  N2  UNL     1      15.449 -12.801  20.750  1.00  0.00     0.095 N 
HETATM   15  C8  UNL     1      15.923 -12.611  19.422  1.00  0.00     0.298 C 
HETATM   16  C9  UNL     1      17.095 -13.567  19.153  1.00  0.00     0.198 C 
HETATM   17  O3  UNL     1      18.205 -13.081  19.798  1.00  0.00    -0.388 OA
HETATM   18  C10 UNL     1      17.871 -12.529  21.012  1.00  0.00     0.198 C 
HETATM   19  C11 UNL     1      16.589 -13.089  21.599  1.00  0.00     0.298 C 
ENDBRANCH  13  14
ENDBRANCH  12  13
BRANCH  12  20
HETATM   20  C12 UNL     1      12.761 -10.870  22.402  1.00  0.00     0.414 C 
HETATM   21  F1  UNL     1      13.694  -9.851  22.372  1.00  0.00    -0.168 F 
HETATM   22  F2  UNL     1      11.680 -10.411  21.638  1.00  0.00    -0.168 F 
HETATM   23  F3  UNL     1      12.260 -11.076  23.655  1.00  0.00    -0.168 F 
ENDBRANCH  12  20
ENDBRANCH  11  12
ENDBRANCH  10  11
ENDBRANCH   1  10
BRANCH   1  24
HETATM   24  N3  UNL     1      14.182 -15.884  22.092  1.00  0.00    -0.322 N 
HETATM   25  C13 UNL     1      14.683 -17.154  22.489  1.00  0.00     0.362 C 
HETATM   26  O4  UNL     1      13.861 -18.059  22.745  1.00  0.00    -0.238 OA
ATOM     27  H3  UNL     1      14.855 -15.147  21.884  1.00  0.00     0.165 HD
BRANCH  25  28
HETATM   28  O5  UNL     1      16.027 -17.411  22.597  1.00  0.00    -0.294 OA
BRANCH  28  29
HETATM   29  C14 UNL     1      16.902 -17.581  21.517  1.00  0.00     0.061 C 
HETATM   30  C15 UNL     1      17.650 -18.896  21.759  1.00  0.00     0.046 C 
HETATM   31  C16 UNL     1      17.948 -16.495  21.441  1.00  0.00     0.046 C 
HETATM   32  C17 UNL     1      16.226 -17.691  20.190  1.00  0.00     0.046 C 
ENDBRANCH  28  29
ENDBRANCH  25  28
ENDBRANCH   1  24
TORSDOF 11
ENDMDL
MODEL 3
REMARK VINA RESULT: -6.846907564      1.882      6.822
REMARK  11 active torsions:
REMARK  status: ('A' for Active; 'I' for Inactive)
REMARK    1  A    between atoms: C2_2  and  N1_3 
REMARK       I    between atoms: N1_3  and  C3_5 
REMARK    2  A    between atoms: C3_5  and  C4_7 
REMARK    3  A    between atoms: C4_7  and  C5_8 
REMARK    4  A    between atoms: C4_7  and  N3_22 
REMARK    5  A    between atoms: C5_8  and  O2_9 
REMARK    6  A    between atoms: O2_9  and  C6_10 
REMARK    7  A    between atoms: C6_10  and  C7_11 
REMARK    8  A    between atoms: C6_10  and  C12_18 
REMARK    9  A    between atoms: C7_11  and  N2_12 
REMARK       I    between atoms: N3_22  and  C13_24 
REMARK   10  A    between atoms: C13_24  and  O5_26 
REMARK   11  A    between atoms: O5_26  and  C14_27 
ROOT
HETATM    1  C4  UNL     1      15.666 -14.849  21.208  1.00  0.00     0.202 C 
ENDROOT
BRANCH   1   2
HETATM    2  C3  UNL     1      14.834 -15.944  20.663  1.00  0.00     0.243 C 
HETATM    3  N1  UNL     1      13.707 -15.642  19.885  1.00  0.00    -0.350 N 
ATOM      4  H1  UNL     1      13.483 -14.662  19.710  1.00  0.00     0.163 HD
HETATM    5  O1  UNL     1      15.102 -17.157  20.873  1.00  0.00    -0.271 OA
BRANCH   3   6
HETATM    6  C2  UNL     1      12.850 -16.657  19.322  1.00  0.00     0.029 A 
HETATM    7  C1  UNL     1      13.465 -17.463  18.191  1.00  0.00     0.038 C 
HETATM    8  C18 UNL     1      11.391 -16.342  19.310  1.00  0.00     0.033 A 
HETATM    9  C19 UNL     1      11.932 -17.426  20.205  1.00  0.00     0.033 A 
ENDBRANCH   3   6
ENDBRANCH   1   2
BRANCH   1  10
HETATM   10  C5  UNL     1      16.927 -15.332  21.862  1.00  0.00     0.203 C 
BRANCH  10  11
HETATM   11  O2  UNL     1      18.052 -15.237  21.220  1.00  0.00    -0.373 OA
BRANCH  11  12
HETATM   12  C6  UNL     1      19.096 -14.447  21.377  1.00  0.00     0.257 C 
BRANCH  12  13
HETATM   13  C7  UNL     1      19.231 -13.948  22.839  1.00  0.00     0.313 C 
BRANCH  13  14
HETATM   14  N2  UNL     1      20.065 -14.759  23.634  1.00  0.00     0.095 N 
HETATM   15  C8  UNL     1      21.467 -14.557  23.500  1.00  0.00     0.298 C 
HETATM   16  C9  UNL     1      22.184 -15.085  24.751  1.00  0.00     0.198 C 
HETATM   17  O3  UNL     1      21.983 -14.190  25.774  1.00  0.00    -0.388 OA
HETATM   18  C10 UNL     1      20.715 -13.663  25.728  1.00  0.00     0.198 C 
HETATM   19  C11 UNL     1      19.711 -14.558  25.027  1.00  0.00     0.298 C 
ENDBRANCH  13  14
ENDBRANCH  12  13
BRANCH  12  20
HETATM   20  C12 UNL     1      19.131 -13.168  20.570  1.00  0.00     0.414 C 
HETATM   21  F1  UNL     1      20.420 -12.827  20.206  1.00  0.00    -0.168 F 
HETATM   22  F2  UNL     1      18.459 -13.431  19.368  1.00  0.00    -0.168 F 
HETATM   23  F3  UNL     1      18.461 -12.123  21.139  1.00  0.00    -0.168 F 
ENDBRANCH  12  20
ENDBRANCH  11  12
ENDBRANCH  10  11
ENDBRANCH   1  10
BRANCH   1  24
HETATM   24  N3  UNL     1      14.868 -13.954  21.978  1.00  0.00    -0.322 N 
HETATM   25  C13 UNL     1      14.585 -12.615  21.593  1.00  0.00     0.362 C 
HETATM   26  O4  UNL     1      15.064 -12.196  20.519  1.00  0.00    -0.238 OA
ATOM     27  H3  UNL     1      14.476 -14.294  22.856  1.00  0.00     0.165 HD
BRANCH  25  28
HETATM   28  O5  UNL     1      13.810 -11.780  22.360  1.00  0.00    -0.294 OA
BRANCH  28  29
HETATM   29  C14 UNL     1      12.417 -11.676  22.279  1.00  0.00     0.061 C 
HETATM   30  C15 UNL     1      12.115 -10.541  21.296  1.00  0.00     0.046 C 
HETATM   31  C16 UNL     1      11.785 -11.291  23.595  1.00  0.00     0.046 C 
HETATM   32  C17 UNL     1      11.739 -12.904  21.763  1.00  0.00     0.046 C 
ENDBRANCH  28  29
ENDBRANCH  25  28
ENDBRANCH   1  24
TORSDOF 11
ENDMDL
MODEL 4
REMARK VINA RESULT: -6.832854539      1.039      5.155
REMARK  11 active torsions:
REMARK  status: ('A' for Active; 'I' for Inactive)
REMARK    1  A    between atoms: C2_2  and  N1_3 
REMARK       I    between atoms: N1_3  and  C3_5 
REMARK    2  A    between atoms: C3_5  and  C4_7 
REMARK    3  A    between atoms: C4_7  and  C5_8 
REMARK    4  A    between atoms: C4_7  and  N3_22 
REMARK    5  A    between atoms: C5_8  and  O2_9 
REMARK    6  A    between atoms: O2_9  and  C6_10 
REMARK    7  A    between atoms: C6_10  and  C7_11 
REMARK    8  A    between atoms: C6_10  and  C12_18 
REMARK    9  A    between atoms: C7_11  and  N2_12 
REMARK       I    between atoms: N3_22  and  C13_24 
REMARK   10  A    between atoms: C13_24  and  O5_26 
REMARK   11  A    between atoms: O5_26  and  C14_27 
ROOT
HETATM    1  C4  UNL     1      17.718 -14.470  22.524  1.00  0.00     0.202 C 
ENDROOT
BRANCH   1   2
HETATM    2  C3  UNL     1      16.928 -15.617  22.023  1.00  0.00     0.243 C 
HETATM    3  N1  UNL     1      15.526 -15.569  22.066  1.00  0.00    -0.350 N 
ATOM      4  H1  UNL     1      15.078 -14.735  22.446  1.00  0.00     0.163 HD
HETATM    5  O1  UNL     1      17.472 -16.651  21.551  1.00  0.00    -0.271 OA
BRANCH   3   6
HETATM    6  C2  UNL     1      14.693 -16.650  21.596  1.00  0.00     0.029 A 
HETATM    7  C1  UNL     1      14.506 -17.792  22.579  1.00  0.00     0.038 C 
HETATM    8  C18 UNL     1      14.754 -16.925  20.130  1.00  0.00     0.033 A 
HETATM    9  C19 UNL     1      13.505 -16.357  20.751  1.00  0.00     0.033 A 
ENDBRANCH   3   6
ENDBRANCH   1   2
BRANCH   1  10
HETATM   10  C5  UNL     1      17.814 -13.344  21.538  1.00  0.00     0.203 C 
BRANCH  10  11
HETATM   11  O2  UNL     1      16.788 -12.569  21.357  1.00  0.00    -0.373 OA
BRANCH  11  12
HETATM   12  C6  UNL     1      16.124 -12.219  20.273  1.00  0.00     0.257 C 
BRANCH  12  13
HETATM   13  C7  UNL     1      14.595 -12.414  20.442  1.00  0.00     0.313 C 
BRANCH  13  14
HETATM   14  N2  UNL     1      14.104 -11.954  21.681  1.00  0.00     0.095 N 
HETATM   15  C8  UNL     1      13.522 -10.655  21.693  1.00  0.00     0.298 C 
HETATM   16  C9  UNL     1      12.591 -10.521  22.906  1.00  0.00     0.198 C 
HETATM   17  O3  UNL     1      11.437 -11.218  22.643  1.00  0.00    -0.388 OA
HETATM   18  C10 UNL     1      11.704 -12.375  21.950  1.00  0.00     0.198 C 
HETATM   19  C11 UNL     1      13.112 -12.896  22.162  1.00  0.00     0.298 C 
ENDBRANCH  13  14
ENDBRANCH  12  13
BRANCH  12  20
HETATM   20  C12 UNL     1      16.430 -12.970  18.994  1.00  0.00     0.414 C 
HETATM   21  F1  UNL     1      16.046 -14.295  19.076  1.00  0.00    -0.168 F 
HETATM   22  F2  UNL     1      15.625 -12.407  17.995  1.00  0.00    -0.168 F 
HETATM   23  F3  UNL     1      17.713 -12.828  18.551  1.00  0.00    -0.168 F 
ENDBRANCH  12  20
ENDBRANCH  11  12
ENDBRANCH  10  11
ENDBRANCH   1  10
BRANCH   1  24
HETATM   24  N3  UNL     1      18.950 -14.921  23.079  1.00  0.00    -0.322 N 
HETATM   25  C13 UNL     1      19.109 -15.318  24.435  1.00  0.00     0.362 C 
HETATM   26  O4  UNL     1      18.111 -15.268  25.185  1.00  0.00    -0.238 OA
ATOM     27  H3  UNL     1      19.766 -14.962  22.469  1.00  0.00     0.165 HD
BRANCH  25  28
HETATM   28  O5  UNL     1      20.312 -15.748  24.938  1.00  0.00    -0.294 OA
BRANCH  28  29
HETATM   29  C14 UNL     1      21.358 -14.911  25.345  1.00  0.00     0.061 C 
HETATM   30  C15 UNL     1      22.123 -15.662  26.439  1.00  0.00     0.046 C 
HETATM   31  C16 UNL     1      20.865 -13.625  25.964  1.00  0.00     0.046 C 
HETATM   32  C17 UNL     1      22.336 -14.580  24.265  1.00  0.00     0.046 C 
ENDBRANCH  28  29
ENDBRANCH  25  28
ENDBRANCH   1  24
TORSDOF 11
ENDMDL
MODEL 5
REMARK VINA RESULT: -6.822956517      3.475      7.009
REMARK  11 active torsions:
REMARK  status: ('A' for Active; 'I' for Inactive)
REMARK    1  A    between atoms: C2_2  and  N1_3 
REMARK       I    between atoms: N1_3  and  C3_5 
REMARK    2  A    between atoms: C3_5  and  C4_7 
REMARK    3  A    between atoms: C4_7  and  C5_8 
REMARK    4  A    between atoms: C4_7  and  N3_22 
REMARK    5  A    between atoms: C5_8  and  O2_9 
REMARK    6  A    between atoms: O2_9  and  C6_10 
REMARK    7  A    between atoms: C6_10  and  C7_11 
REMARK    8  A    between atoms: C6_10  and  C12_18 
REMARK    9  A    between atoms: C7_11  and  N2_12 
REMARK       I    between atoms: N3_22  and  C13_24 
REMARK   10  A    between atoms: C13_24  and  O5_26 
REMARK   11  A    between atoms: O5_26  and  C14_27 
ROOT
HETATM    1  C4  UNL     1      14.468 -13.686  19.558  1.00  0.00     0.202 C 
ENDROOT
BRANCH   1   2
HETATM    2  C3  UNL     1      13.991 -13.037  20.800  1.00  0.00     0.243 C 
HETATM    3  N1  UNL     1      12.784 -12.322  20.792  1.00  0.00    -0.350 N 
ATOM      4  H1  UNL     1      12.257 -12.264  19.921  1.00  0.00     0.163 HD
HETATM    5  O1  UNL     1      14.634 -13.104  21.881  1.00  0.00    -0.271 OA
BRANCH   3   6
HETATM    6  C2  UNL     1      12.259 -11.664  21.964  1.00  0.00     0.029 A 
HETATM    7  C1  UNL     1      11.583 -12.582  22.967  1.00  0.00     0.038 C 
HETATM    8  C18 UNL     1      11.748 -10.276  21.755  1.00  0.00     0.033 A 
HETATM    9  C19 UNL     1      12.994 -10.520  22.565  1.00  0.00     0.033 A 
ENDBRANCH   3   6
ENDBRANCH   1   2
BRANCH   1  10
HETATM   10  C5  UNL     1      13.618 -14.846  19.132  1.00  0.00     0.203 C 
BRANCH  10  11
HETATM   11  O2  UNL     1      12.676 -15.267  19.921  1.00  0.00    -0.373 OA
BRANCH  11  12
HETATM   12  C6  UNL     1      12.553 -16.360  20.648  1.00  0.00     0.257 C 
BRANCH  12  13
HETATM   13  C7  UNL     1      13.884 -17.152  20.734  1.00  0.00     0.313 C 
BRANCH  13  14
HETATM   14  N2  UNL     1      14.431 -17.190  22.032  1.00  0.00     0.095 N 
HETATM   15  C8  UNL     1      14.433 -18.455  22.686  1.00  0.00     0.298 C 
HETATM   16  C9  UNL     1      15.494 -18.457  23.795  1.00  0.00     0.198 C 
HETATM   17  O3  UNL     1      16.731 -18.570  23.209  1.00  0.00    -0.388 OA
HETATM   18  C10 UNL     1      16.789 -17.860  22.034  1.00  0.00     0.198 C 
HETATM   19  C11 UNL     1      15.799 -16.713  21.970  1.00  0.00     0.298 C 
ENDBRANCH  13  14
ENDBRANCH  12  13
BRANCH  12  20
HETATM   20  C12 UNL     1      11.560 -17.401  20.179  1.00  0.00     0.414 C 
HETATM   21  F1  UNL     1      10.641 -16.870  19.294  1.00  0.00    -0.168 F 
HETATM   22  F2  UNL     1      12.286 -18.347  19.443  1.00  0.00    -0.168 F 
HETATM   23  F3  UNL     1      10.963 -18.103  21.186  1.00  0.00    -0.168 F 
ENDBRANCH  12  20
ENDBRANCH  11  12
ENDBRANCH  10  11
ENDBRANCH   1  10
BRANCH   1  24
HETATM   24  N3  UNL     1      15.870 -13.934  19.635  1.00  0.00    -0.322 N 
HETATM   25  C13 UNL     1      16.857 -13.068  19.092  1.00  0.00     0.362 C 
HETATM   26  O4  UNL     1      16.477 -12.029  18.512  1.00  0.00    -0.238 OA
ATOM     27  H3  UNL     1      16.182 -14.783  20.107  1.00  0.00     0.165 HD
BRANCH  25  28
HETATM   28  O5  UNL     1      18.201 -13.338  19.184  1.00  0.00    -0.294 OA
BRANCH  28  29
HETATM   29  C14 UNL     1      18.943 -13.325  20.370  1.00  0.00     0.061 C 
HETATM   30  C15 UNL     1      20.388 -12.999  19.982  1.00  0.00     0.046 C 
HETATM   31  C16 UNL     1      18.970 -14.672  21.054  1.00  0.00     0.046 C 
HETATM   32  C17 UNL     1      18.504 -12.295  21.359  1.00  0.00     0.046 C 
ENDBRANCH  28  29
ENDBRANCH  25  28
ENDBRANCH   1  24
TORSDOF 11
ENDMDL
