MODEL 1
REMARK VINA RESULT: -7.183413282      0.000      0.000
REMARK  11 active torsions:
REMARK  status: ('A' for Active; 'I' for Inactive)
REMARK    1  A    between atoms: O1_2  and  C2_3 
REMARK    2  A    between atoms: C3_4  and  O2_5 
REMARK    3  A    between atoms: O2_5  and  C4_6 
REMARK    4  A    between atoms: C4_6  and  C5_7 
REMARK    5  A    between atoms: C5_7  and  O3_8 
REMARK    6  A    between atoms: C6_10  and  C7_11 
REMARK    7  A    between atoms: C10_16  and  O6_17 
REMARK    8  A    between atoms: C12_22  and  C13_23 
REMARK    9  A    between atoms: C14_25  and  O7_26 
REMARK   10  A    between atoms: O7_26  and  C15_27 
REMARK   11  A    between atoms: C15_27  and  C16_29 
ROOT
HETATM    1  C2  UNL     1      15.561 -13.735  20.018  1.00  0.00     0.191 C 
HETATM    2  C3  UNL     1      15.075 -15.086  20.626  1.00  0.00     0.168 C 
HETATM    3  C6  UNL     1      16.278 -15.937  20.904  1.00  0.00     0.129 C 
HETATM    4  C8  UNL     1      17.061 -15.393  22.080  1.00  0.00     0.064 C 
HETATM    5  C9  UNL     1      16.564 -13.960  22.328  1.00  0.00     0.059 C 
HETATM    6  C10 UNL     1      16.553 -13.206  21.042  1.00  0.00     0.157 C 
HETATM    7  C11 UNL     1      17.948 -13.158  20.503  1.00  0.00     0.305 C 
HETATM    8  F1  UNL     1      17.989 -13.302  19.114  1.00  0.00    -0.197 F 
HETATM    9  F2  UNL     1      18.444 -11.897  20.784  1.00  0.00    -0.197 F 
HETATM   10  C12 UNL     1      18.868 -14.185  21.065  1.00  0.00     0.052 C 
HETATM   11  C14 UNL     1      18.508 -15.224  21.791  1.00  0.00     0.072 C 
ENDROOT
BRANCH  11  12
HETATM   12  O7  UNL     1      19.481 -16.095  22.243  1.00  0.00    -0.282 OA
BRANCH  12  13
HETATM   13  C15 UNL     1      19.826 -16.329  23.547  1.00  0.00     0.273 C 
HETATM   14  O8  UNL     1      20.364 -17.409  23.814  1.00  0.00    -0.264 OA
BRANCH  13  15
HETATM   15  C16 UNL     1      19.599 -15.373  24.661  1.00  0.00     0.063 A 
HETATM   16  C17 UNL     1      18.333 -15.610  25.461  1.00  0.00     0.027 C 
HETATM   17  C18 UNL     1      20.044 -13.949  24.500  1.00  0.00     0.042 A 
HETATM   18  C19 UNL     1      20.756 -14.859  25.457  1.00  0.00     0.101 A 
HETATM   19 CL1  UNL     1      20.513 -14.441  27.176  1.00  0.00    -0.124 Cl
ENDBRANCH  13  15
ENDBRANCH  12  13
ENDBRANCH  11  12
BRANCH  10  20
HETATM   20  C13 UNL     1      20.343 -13.995  20.782  1.00  0.00     0.265 C 
HETATM   21  F3  UNL     1      20.518 -13.582  19.472  1.00  0.00    -0.251 F 
ENDBRANCH  10  20
BRANCH   3  22
HETATM   22  C7  UNL     1      15.858 -17.337  21.073  1.00  0.00     0.180 C 
HETATM   23  O4  UNL     1      15.334 -17.676  22.184  1.00  0.00    -0.648 OA
HETATM   24  O5  UNL     1      15.987 -18.315  20.124  1.00  0.00    -0.648 OA
ENDBRANCH   3  22
BRANCH   2  25
HETATM   25  O2  UNL     1      14.148 -15.646  19.808  1.00  0.00    -0.380 OA
BRANCH  25  26
HETATM   26  C4  UNL     1      12.921 -15.899  20.380  1.00  0.00     0.194 C 
BRANCH  26  27
HETATM   27  C5  UNL     1      12.668 -15.206  21.689  1.00  0.00     0.190 C 
BRANCH  27  28
HETATM   28  O3  UNL     1      12.833 -16.154  22.726  1.00  0.00    -0.399 OA
ATOM     29  H3  UNL     1      13.758 -16.197  22.940  1.00  0.00     0.209 HD
ENDBRANCH  27  28
ENDBRANCH  26  27
ENDBRANCH  25  26
ENDBRANCH   2  25
BRANCH   6  30
HETATM   30  O6  UNL     1      16.078 -11.907  21.356  1.00  0.00    -0.380 OA
ATOM     31  H6  UNL     1      16.731 -11.321  20.991  1.00  0.00     0.211 HD
ENDBRANCH   6  30
BRANCH   1  32
HETATM   32  O1  UNL     1      14.441 -12.953  19.877  1.00  0.00    -0.385 OA
HETATM   33  C1  UNL     1      14.182 -12.606  18.552  1.00  0.00     0.202 C 
ENDBRANCH   1  32
TORSDOF 11
ENDMDL
MODEL 2
REMARK VINA RESULT: -7.068444986      1.380      1.584
REMARK  11 active torsions:
REMARK  status: ('A' for Active; 'I' for Inactive)
REMARK    1  A    between atoms: O1_2  and  C2_3 
REMARK    2  A    between atoms: C3_4  and  O2_5 
REMARK    3  A    between atoms: O2_5  and  C4_6 
REMARK    4  A    between atoms: C4_6  and  C5_7 
REMARK    5  A    between atoms: C5_7  and  O3_8 
REMARK    6  A    between atoms: C6_10  and  C7_11 
REMARK    7  A    between atoms: C10_16  and  O6_17 
REMARK    8  A    between atoms: C12_22  and  C13_23 
REMARK    9  A    between atoms: C14_25  and  O7_26 
REMARK   10  A    between atoms: O7_26  and  C15_27 
REMARK   11  A    between atoms: C15_27  and  C16_29 
ROOT
HETATM    1  C2  UNL     1      15.739 -14.456  20.615  1.00  0.00     0.191 C 
HETATM    2  C3  UNL     1      15.782 -15.783  21.434  1.00  0.00     0.168 C 
HETATM    3  C6  UNL     1      17.213 -16.207  21.567  1.00  0.00     0.129 C 
HETATM    4  C8  UNL     1      17.958 -15.293  22.519  1.00  0.00     0.064 C 
HETATM    5  C9  UNL     1      17.090 -14.040  22.711  1.00  0.00     0.059 C 
HETATM    6  C10 UNL     1      16.662 -13.521  21.380  1.00  0.00     0.157 C 
HETATM    7  C11 UNL     1      17.881 -13.162  20.591  1.00  0.00     0.305 C 
HETATM    8  F1  UNL     1      17.760 -13.494  19.240  1.00  0.00    -0.197 F 
HETATM    9  F2  UNL     1      18.006 -11.784  20.649  1.00  0.00    -0.197 F 
HETATM   10  C12 UNL     1      19.142 -13.790  21.073  1.00  0.00     0.052 C 
HETATM   11  C14 UNL     1      19.226 -14.767  21.953  1.00  0.00     0.072 C 
ENDROOT
BRANCH  11  12
HETATM   12  O7  UNL     1      20.473 -15.250  22.302  1.00  0.00    -0.282 OA
BRANCH  12  13
HETATM   13  C15 UNL     1      21.190 -14.927  23.422  1.00  0.00     0.273 C 
HETATM   14  O8  UNL     1      22.284 -14.373  23.265  1.00  0.00    -0.264 OA
BRANCH  13  15
HETATM   15  C16 UNL     1      20.743 -15.197  24.813  1.00  0.00     0.063 A 
HETATM   16  C17 UNL     1      20.371 -13.968  25.617  1.00  0.00     0.027 C 
HETATM   17  C18 UNL     1      21.358 -16.341  25.565  1.00  0.00     0.042 A 
HETATM   18  C19 UNL     1      19.928 -16.415  25.116  1.00  0.00     0.101 A 
HETATM   19 CL1  UNL     1      18.744 -16.358  26.451  1.00  0.00    -0.124 Cl
ENDBRANCH  13  15
ENDBRANCH  12  13
ENDBRANCH  11  12
BRANCH  10  20
HETATM   20  C13 UNL     1      20.431 -13.235  20.505  1.00  0.00     0.265 C 
HETATM   21  F3  UNL     1      20.518 -13.541  19.157  1.00  0.00    -0.251 F 
ENDBRANCH  10  20
BRANCH   3  22
HETATM   22  C7  UNL     1      17.269 -17.627  21.950  1.00  0.00     0.180 C 
HETATM   23  O4  UNL     1      17.085 -17.926  23.175  1.00  0.00    -0.648 OA
HETATM   24  O5  UNL     1      17.505 -18.663  21.087  1.00  0.00    -0.648 OA
ENDBRANCH   3  22
BRANCH   2  25
HETATM   25  O2  UNL     1      14.959 -16.697  20.861  1.00  0.00    -0.380 OA
BRANCH  25  26
HETATM   26  C4  UNL     1      13.989 -17.226  21.682  1.00  0.00     0.194 C 
BRANCH  26  27
HETATM   27  C5  UNL     1      12.675 -16.498  21.674  1.00  0.00     0.190 C 
BRANCH  27  28
HETATM   28  O3  UNL     1      12.685 -15.562  22.733  1.00  0.00    -0.399 OA
ATOM     29  H3  UNL     1      13.180 -15.936  23.453  1.00  0.00     0.209 HD
ENDBRANCH  27  28
ENDBRANCH  26  27
ENDBRANCH  25  26
ENDBRANCH   2  25
BRANCH   6  30
HETATM   30  O6  UNL     1      15.866 -12.378  21.647  1.00  0.00    -0.380 OA
ATOM     31  H6  UNL     1      15.437 -12.189  20.820  1.00  0.00     0.211 HD
ENDBRANCH   6  30
BRANCH   1  32
HETATM   32  O1  UNL     1      14.426 -14.053  20.606  1.00  0.00    -0.385 OA
HETATM   33  C1  UNL     1      13.936 -13.820  19.322  1.00  0.00     0.202 C 
ENDBRANCH   1  32
TORSDOF 11
ENDMDL
MODEL 3
REMARK VINA RESULT: -7.041082571      1.229      1.531
REMARK  11 active torsions:
REMARK  status: ('A' for Active; 'I' for Inactive)
REMARK    1  A    between atoms: O1_2  and  C2_3 
REMARK    2  A    between atoms: C3_4  and  O2_5 
REMARK    3  A    between atoms: O2_5  and  C4_6 
REMARK    4  A    between atoms: C4_6  and  C5_7 
REMARK    5  A    between atoms: C5_7  and  O3_8 
REMARK    6  A    between atoms: C6_10  and  C7_11 
REMARK    7  A    between atoms: C10_16  and  O6_17 
REMARK    8  A    between atoms: C12_22  and  C13_23 
REMARK    9  A    between atoms: C14_25  and  O7_26 
REMARK   10  A    between atoms: O7_26  and  C15_27 
REMARK   11  A    between atoms: C15_27  and  C16_29 
ROOT
HETATM    1  C2  UNL     1      15.664 -14.754  20.545  1.00  0.00     0.191 C 
HETATM    2  C3  UNL     1      15.830 -16.093  21.326  1.00  0.00     0.168 C 
HETATM    3  C6  UNL     1      17.293 -16.406  21.418  1.00  0.00     0.129 C 
HETATM    4  C8  UNL     1      17.985 -15.461  22.379  1.00  0.00     0.064 C 
HETATM    5  C9  UNL     1      17.026 -14.285  22.622  1.00  0.00     0.059 C 
HETATM    6  C10 UNL     1      16.528 -13.768  21.316  1.00  0.00     0.157 C 
HETATM    7  C11 UNL     1      17.697 -13.294  20.512  1.00  0.00     0.305 C 
HETATM    8  F1  UNL     1      17.571 -13.600  19.155  1.00  0.00    -0.197 F 
HETATM    9  F2  UNL     1      17.715 -11.913  20.604  1.00  0.00    -0.197 F 
HETATM   10  C12 UNL     1      19.014 -13.832  20.950  1.00  0.00     0.052 C 
HETATM   11  C14 UNL     1      19.195 -14.822  21.801  1.00  0.00     0.072 C 
ENDROOT
BRANCH  11  12
HETATM   12  O7  UNL     1      20.484 -15.213  22.110  1.00  0.00    -0.282 OA
BRANCH  12  13
HETATM   13  C15 UNL     1      20.867 -16.005  23.158  1.00  0.00     0.273 C 
HETATM   14  O8  UNL     1      21.137 -17.188  22.917  1.00  0.00    -0.264 OA
BRANCH  13  15
HETATM   15  C16 UNL     1      20.981 -15.542  24.565  1.00  0.00     0.063 A 
HETATM   16  C17 UNL     1      22.342 -15.746  25.199  1.00  0.00     0.027 C 
HETATM   17  C18 UNL     1      19.786 -15.657  25.467  1.00  0.00     0.042 A 
HETATM   18  C19 UNL     1      20.261 -14.308  25.010  1.00  0.00     0.101 A 
HETATM   19 CL1  UNL     1      20.969 -13.308  26.308  1.00  0.00    -0.124 Cl
ENDBRANCH  13  15
ENDBRANCH  12  13
ENDBRANCH  11  12
BRANCH  10  20
HETATM   20  C13 UNL     1      20.243 -13.163  20.371  1.00  0.00     0.265 C 
HETATM   21  F3  UNL     1      20.409 -13.553  19.052  1.00  0.00    -0.251 F 
ENDBRANCH  10  20
BRANCH   3  22
HETATM   22  C7  UNL     1      17.469 -17.826  21.761  1.00  0.00     0.180 C 
HETATM   23  O4  UNL     1      17.405 -18.160  22.989  1.00  0.00    -0.648 OA
HETATM   24  O5  UNL     1      17.698 -18.829  20.857  1.00  0.00    -0.648 OA
ENDBRANCH   3  22
BRANCH   2  25
HETATM   25  O2  UNL     1      15.069 -17.055  20.746  1.00  0.00    -0.380 OA
BRANCH  25  26
HETATM   26  C4  UNL     1      14.149 -17.666  21.568  1.00  0.00     0.194 C 
BRANCH  26  27
HETATM   27  C5  UNL     1      12.724 -17.235  21.369  1.00  0.00     0.190 C 
BRANCH  27  28
HETATM   28  O3  UNL     1      12.470 -16.146  22.233  1.00  0.00    -0.399 OA
ATOM     29  H3  UNL     1      12.480 -15.349  21.715  1.00  0.00     0.209 HD
ENDBRANCH  27  28
ENDBRANCH  26  27
ENDBRANCH  25  26
ENDBRANCH   2  25
BRANCH   6  30
HETATM   30  O6  UNL     1      15.652 -12.699  21.630  1.00  0.00    -0.380 OA
ATOM     31  H6  UNL     1      16.223 -11.947  21.733  1.00  0.00     0.211 HD
ENDBRANCH   6  30
BRANCH   1  32
HETATM   32  O1  UNL     1      14.324 -14.455  20.574  1.00  0.00    -0.385 OA
HETATM   33  C1  UNL     1      13.785 -14.242  19.307  1.00  0.00     0.202 C 
ENDBRANCH   1  32
TORSDOF 11
ENDMDL
MODEL 4
REMARK VINA RESULT: -6.698151849      1.183      1.436
REMARK  11 active torsions:
REMARK  status: ('A' for Active; 'I' for Inactive)
REMARK    1  A    between atoms: O1_2  and  C2_3 
REMARK    2  A    between atoms: C3_4  and  O2_5 
REMARK    3  A    between atoms: O2_5  and  C4_6 
REMARK    4  A    between atoms: C4_6  and  C5_7 
REMARK    5  A    between atoms: C5_7  and  O3_8 
REMARK    6  A    between atoms: C6_10  and  C7_11 
REMARK    7  A    between atoms: C10_16  and  O6_17 
REMARK    8  A    between atoms: C12_22  and  C13_23 
REMARK    9  A    between atoms: C14_25  and  O7_26 
REMARK   10  A    between atoms: O7_26  and  C15_27 
REMARK   11  A    between atoms: C15_27  and  C16_29 
ROOT
HETATM    1  C2  UNL     1      15.556 -13.797  20.101  1.00  0.00     0.191 C 
HETATM    2  C3  UNL     1      15.244 -15.226  20.643  1.00  0.00     0.168 C 
HETATM    3  C6  UNL     1      16.541 -15.952  20.830  1.00  0.00     0.129 C 
HETATM    4  C8  UNL     1      17.305 -15.392  22.012  1.00  0.00     0.064 C 
HETATM    5  C9  UNL     1      16.665 -14.039  22.361  1.00  0.00     0.059 C 
HETATM    6  C10 UNL     1      16.523 -13.220  21.123  1.00  0.00     0.157 C 
HETATM    7  C11 UNL     1      17.884 -12.988  20.545  1.00  0.00     0.305 C 
HETATM    8  F1  UNL     1      17.887 -13.048  19.149  1.00  0.00    -0.197 F 
HETATM    9  F2  UNL     1      18.250 -11.697  20.885  1.00  0.00    -0.197 F 
HETATM   10  C12 UNL     1      18.930 -13.936  21.014  1.00  0.00     0.052 C 
HETATM   11  C14 UNL     1      18.713 -15.048  21.688  1.00  0.00     0.072 C 
ENDROOT
BRANCH  11  12
HETATM   12  O7  UNL     1      19.792 -15.830  22.056  1.00  0.00    -0.282 OA
BRANCH  12  13
HETATM   13  C15 UNL     1      20.327 -15.945  23.310  1.00  0.00     0.273 C 
HETATM   14  O8  UNL     1      21.493 -15.569  23.475  1.00  0.00    -0.264 OA
BRANCH  13  15
HETATM   15  C16 UNL     1      19.602 -16.493  24.486  1.00  0.00     0.063 A 
HETATM   16  C17 UNL     1      19.054 -15.453  25.443  1.00  0.00     0.027 C 
HETATM   17  C18 UNL     1      20.062 -17.791  25.084  1.00  0.00     0.042 A 
HETATM   18  C19 UNL     1      18.759 -17.720  24.344  1.00  0.00     0.101 A 
HETATM   19 CL1  UNL     1      17.321 -17.913  25.385  1.00  0.00    -0.124 Cl
ENDBRANCH  13  15
ENDBRANCH  12  13
ENDBRANCH  11  12
BRANCH  10  20
HETATM   20  C13 UNL     1      20.364 -13.569  20.697  1.00  0.00     0.265 C 
HETATM   21  F3  UNL     1      20.537 -13.504  19.324  1.00  0.00    -0.251 F 
ENDBRANCH  10  20
BRANCH   3  22
HETATM   22  C7  UNL     1      16.283 -17.398  20.929  1.00  0.00     0.180 C 
HETATM   23  O4  UNL     1      15.841 -17.854  22.034  1.00  0.00    -0.648 OA
HETATM   24  O5  UNL     1      16.481 -18.300  19.919  1.00  0.00    -0.648 OA
ENDBRANCH   3  22
BRANCH   2  25
HETATM   25  O2  UNL     1      14.353 -15.838  19.823  1.00  0.00    -0.380 OA
BRANCH  25  26
HETATM   26  C4  UNL     1      13.192 -16.274  20.421  1.00  0.00     0.194 C 
BRANCH  26  27
HETATM   27  C5  UNL     1      12.884 -15.654  21.754  1.00  0.00     0.190 C 
BRANCH  27  28
HETATM   28  O3  UNL     1      13.246 -16.579  22.761  1.00  0.00    -0.399 OA
ATOM     29  H3  UNL     1      13.010 -16.206  23.603  1.00  0.00     0.209 HD
ENDBRANCH  27  28
ENDBRANCH  26  27
ENDBRANCH  25  26
ENDBRANCH   2  25
BRANCH   6  30
HETATM   30  O6  UNL     1      15.923 -12.001  21.530  1.00  0.00    -0.380 OA
ATOM     31  H6  UNL     1      16.607 -11.549  22.012  1.00  0.00     0.211 HD
ENDBRANCH   6  30
BRANCH   1  32
HETATM   32  O1  UNL     1      14.354 -13.137  20.043  1.00  0.00    -0.385 OA
HETATM   33  C1  UNL     1      14.040 -12.689  18.761  1.00  0.00     0.202 C 
ENDBRANCH   1  32
TORSDOF 11
ENDMDL
MODEL 5
REMARK VINA RESULT: -6.614058106      1.530      1.970
REMARK  11 active torsions:
REMARK  status: ('A' for Active; 'I' for Inactive)
REMARK    1  A    between atoms: O1_2  and  C2_3 
REMARK    2  A    between atoms: C3_4  and  O2_5 
REMARK    3  A    between atoms: O2_5  and  C4_6 
REMARK    4  A    between atoms: C4_6  and  C5_7 
REMARK    5  A    between atoms: C5_7  and  O3_8 
REMARK    6  A    between atoms: C6_10  and  C7_11 
REMARK    7  A    between atoms: C10_16  and  O6_17 
REMARK    8  A    between atoms: C12_22  and  C13_23 
REMARK    9  A    between atoms: C14_25  and  O7_26 
REMARK   10  A    between atoms: O7_26  and  C15_27 
REMARK   11  A    between atoms: C15_27  and  C16_29 
ROOT
HETATM    1  C2  UNL     1      15.701 -14.791  20.664  1.00  0.00     0.191 C 
HETATM    2  C3  UNL     1      15.825 -16.102  21.499  1.00  0.00     0.168 C 
HETATM    3  C6  UNL     1      17.279 -16.442  21.628  1.00  0.00     0.129 C 
HETATM    4  C8  UNL     1      17.977 -15.476  22.562  1.00  0.00     0.064 C 
HETATM    5  C9  UNL     1      17.041 -14.271  22.744  1.00  0.00     0.059 C 
HETATM    6  C10 UNL     1      16.574 -13.795  21.411  1.00  0.00     0.157 C 
HETATM    7  C11 UNL     1      17.766 -13.377  20.608  1.00  0.00     0.305 C 
HETATM    8  F1  UNL     1      17.654 -13.733  19.263  1.00  0.00    -0.197 F 
HETATM    9  F2  UNL     1      17.812 -11.994  20.648  1.00  0.00    -0.197 F 
HETATM   10  C12 UNL     1      19.064 -13.926  21.088  1.00  0.00     0.052 C 
HETATM   11  C14 UNL     1      19.209 -14.885  21.980  1.00  0.00     0.072 C 
ENDROOT
BRANCH  11  12
HETATM   12  O7  UNL     1      20.484 -15.292  22.326  1.00  0.00    -0.282 OA
BRANCH  12  13
HETATM   13  C15 UNL     1      21.191 -14.908  23.432  1.00  0.00     0.273 C 
HETATM   14  O8  UNL     1      22.263 -14.317  23.254  1.00  0.00    -0.264 OA
BRANCH  13  15
HETATM   15  C16 UNL     1      20.760 -15.153  24.833  1.00  0.00     0.063 A 
HETATM   16  C17 UNL     1      20.339 -13.916  25.600  1.00  0.00     0.027 C 
HETATM   17  C18 UNL     1      21.425 -16.247  25.618  1.00  0.00     0.042 A 
HETATM   18  C19 UNL     1      19.998 -16.393  25.177  1.00  0.00     0.101 A 
HETATM   19 CL1  UNL     1      18.816 -16.345  26.515  1.00  0.00    -0.124 Cl
ENDBRANCH  13  15
ENDBRANCH  12  13
ENDBRANCH  11  12
BRANCH  10  20
HETATM   20  C13 UNL     1      20.315 -13.306  20.505  1.00  0.00     0.265 C 
HETATM   21  F3  UNL     1      20.435 -13.662  19.171  1.00  0.00    -0.251 F 
ENDBRANCH  10  20
BRANCH   3  22
HETATM   22  C7  UNL     1      17.419 -17.852  22.027  1.00  0.00     0.180 C 
HETATM   23  O4  UNL     1      17.318 -18.137  23.265  1.00  0.00    -0.648 OA
HETATM   24  O5  UNL     1      17.650 -18.892  21.168  1.00  0.00    -0.648 OA
ENDBRANCH   3  22
BRANCH   2  25
HETATM   25  O2  UNL     1      15.053 -17.070  20.944  1.00  0.00    -0.380 OA
BRANCH  25  26
HETATM   26  C4  UNL     1      13.997 -17.506  21.712  1.00  0.00     0.194 C 
BRANCH  26  27
HETATM   27  C5  UNL     1      13.866 -18.997  21.837  1.00  0.00     0.190 C 
BRANCH  27  28
HETATM   28  O3  UNL     1      14.696 -19.594  20.860  1.00  0.00    -0.399 OA
ATOM     29  H3  UNL     1      14.204 -20.289  20.440  1.00  0.00     0.209 HD
ENDBRANCH  27  28
ENDBRANCH  26  27
ENDBRANCH  25  26
ENDBRANCH   2  25
BRANCH   6  30
HETATM   30  O6  UNL     1      15.717 -12.695  21.669  1.00  0.00    -0.380 OA
ATOM     31  H6  UNL     1      16.232 -12.117  22.220  1.00  0.00     0.211 HD
ENDBRANCH   6  30
BRANCH   1  32
HETATM   32  O1  UNL     1      14.368 -14.463  20.660  1.00  0.00    -0.385 OA
HETATM   33  C1  UNL     1      13.863 -14.249  19.378  1.00  0.00     0.202 C 
ENDBRANCH   1  32
TORSDOF 11
ENDMDL
