MODEL 1
REMARK VINA RESULT: -2.910115155      0.000      0.000
REMARK  4 active torsions:
REMARK  status: ('A' for Active; 'I' for Inactive)
REMARK    1  A    between atoms: C1_2  and  C2_4 
REMARK    2  A    between atoms: C4_6  and  C5_7 
REMARK       I    between atoms: N2_10  and  C6_11 
REMARK       I    between atoms: C6_11  and  N3_13 
REMARK    3  A    between atoms: N3_13  and  C7_15 
REMARK    4  A    between atoms: C11_20  and  C12_21 
ROOT
HETATM    1  C2  UNL     1      78.505  24.567  41.270  1.00  0.00     0.109 C 
HETATM    2  C3  UNL     1      77.370  24.840  42.195  1.00  0.00     0.052 C 
HETATM    3  C4  UNL     1      77.171  26.312  42.193  1.00  0.00     0.191 C 
HETATM    4  N2  UNL     1      78.019  26.872  41.167  1.00  0.00    -0.305 N 
HETATM    5  C6  UNL     1      77.964  28.253  40.817  1.00  0.00     0.320 C 
HETATM    6  O4  UNL     1      78.763  28.674  39.953  1.00  0.00    -0.247 OA
HETATM    7  N3  UNL     1      77.053  29.166  41.397  1.00  0.00    -0.338 N 
ATOM      8  H3  UNL     1      76.392  28.839  42.101  1.00  0.00     0.164 HD
HETATM    9  C11 UNL     1      78.858  25.849  40.594  1.00  0.00     0.192 C 
ENDROOT
BRANCH   3  10
HETATM   10  C5  UNL     1      77.449  26.931  43.516  1.00  0.00     0.197 C 
HETATM   11  O2  UNL     1      78.473  26.630  44.158  1.00  0.00    -0.646 OA
HETATM   12  O3  UNL     1      76.563  27.845  44.039  1.00  0.00    -0.646 OA
ENDBRANCH   3  10
BRANCH   9  13
HETATM   13  C12 UNL     1      78.670  25.734  39.125  1.00  0.00     0.255 C 
HETATM   14  N4  UNL     1      79.778  25.798  38.248  1.00  0.00    -0.060 NA
HETATM   15  O5  UNL     1      77.524  25.578  38.665  1.00  0.00    -0.275 OA
ENDBRANCH   9  13
BRANCH   7  16
HETATM   16  C7  UNL     1      77.047  30.573  40.999  1.00  0.00     0.089 C 
HETATM   17  C8  UNL     1      75.657  31.149  41.147  1.00  0.00     0.045 C 
HETATM   18  C9  UNL     1      75.394  30.629  39.750  1.00  0.00     0.086 C 
HETATM   19 CL1  UNL     1      74.348  31.651  38.764  1.00  0.00    -0.125 Cl
HETATM   20  C10 UNL     1      76.879  30.801  39.513  1.00  0.00     0.045 C 
ENDBRANCH   7  16
BRANCH   1  21
HETATM   21  C1  UNL     1      79.620  23.964  42.037  1.00  0.00     0.237 C 
HETATM   22  N1  UNL     1      80.091  22.662  41.763  1.00  0.00    -0.062 NA
HETATM   23  O1  UNL     1      80.162  24.623  42.952  1.00  0.00    -0.276 OA
ENDBRANCH   1  21
TORSDOF 4
ENDMDL
MODEL 2
REMARK VINA RESULT: -1.180967943      3.026      5.070
REMARK  4 active torsions:
REMARK  status: ('A' for Active; 'I' for Inactive)
REMARK    1  A    between atoms: C1_2  and  C2_4 
REMARK    2  A    between atoms: C4_6  and  C5_7 
REMARK       I    between atoms: N2_10  and  C6_11 
REMARK       I    between atoms: C6_11  and  N3_13 
REMARK    3  A    between atoms: N3_13  and  C7_15 
REMARK    4  A    between atoms: C11_20  and  C12_21 
ROOT
HETATM    1  C2  UNL     1      78.962  27.887  38.704  1.00  0.00     0.109 C 
HETATM    2  C3  UNL     1      79.193  28.901  39.770  1.00  0.00     0.052 C 
HETATM    3  C4  UNL     1      78.498  28.400  40.984  1.00  0.00     0.191 C 
HETATM    4  N2  UNL     1      78.039  27.059  40.710  1.00  0.00    -0.305 N 
HETATM    5  C6  UNL     1      77.448  26.245  41.720  1.00  0.00     0.320 C 
HETATM    6  O4  UNL     1      77.032  25.112  41.395  1.00  0.00    -0.247 OA
HETATM    7  N3  UNL     1      77.312  26.655  43.066  1.00  0.00    -0.338 N 
ATOM      8  H3  UNL     1      77.649  27.575  43.350  1.00  0.00     0.164 HD
HETATM    9  C11 UNL     1      78.285  26.715  39.331  1.00  0.00     0.192 C 
ENDROOT
BRANCH   3  10
HETATM   10  C5  UNL     1      77.373  29.277  41.403  1.00  0.00     0.197 C 
HETATM   11  O2  UNL     1      76.933  29.237  42.567  1.00  0.00    -0.646 OA
HETATM   12  O3  UNL     1      76.809  30.142  40.493  1.00  0.00    -0.646 OA
ENDBRANCH   3  10
BRANCH   9  13
HETATM   13  C12 UNL     1      79.126  25.497  39.204  1.00  0.00     0.255 C 
HETATM   14  N4  UNL     1      79.772  25.190  37.983  1.00  0.00    -0.060 NA
HETATM   15  O5  UNL     1      79.263  24.742  40.183  1.00  0.00    -0.275 OA
ENDBRANCH   9  13
BRANCH   7  16
HETATM   16  C7  UNL     1      76.693  25.776  44.057  1.00  0.00     0.089 C 
HETATM   17  C8  UNL     1      75.458  26.431  44.634  1.00  0.00     0.045 C 
HETATM   18  C9  UNL     1      76.388  27.095  45.627  1.00  0.00     0.086 C 
HETATM   19 CL1  UNL     1      75.717  27.303  47.246  1.00  0.00    -0.125 Cl
HETATM   20  C10 UNL     1      77.283  25.889  45.446  1.00  0.00     0.045 C 
ENDBRANCH   7  16
BRANCH   1  21
HETATM   21  C1  UNL     1      78.190  28.509  37.603  1.00  0.00     0.237 C 
HETATM   22  N1  UNL     1      76.779  28.507  37.591  1.00  0.00    -0.062 NA
HETATM   23  O1  UNL     1      78.801  29.052  36.655  1.00  0.00    -0.276 OA
ENDBRANCH   1  21
TORSDOF 4
ENDMDL
MODEL 3
REMARK VINA RESULT: -0.502100887      3.102      4.897
REMARK  4 active torsions:
REMARK  status: ('A' for Active; 'I' for Inactive)
REMARK    1  A    between atoms: C1_2  and  C2_4 
REMARK    2  A    between atoms: C4_6  and  C5_7 
REMARK       I    between atoms: N2_10  and  C6_11 
REMARK       I    between atoms: C6_11  and  N3_13 
REMARK    3  A    between atoms: N3_13  and  C7_15 
REMARK    4  A    between atoms: C11_20  and  C12_21 
ROOT
HETATM    1  C2  UNL     1      78.288  27.130  38.535  1.00  0.00     0.109 C 
HETATM    2  C3  UNL     1      77.743  25.808  38.948  1.00  0.00     0.052 C 
HETATM    3  C4  UNL     1      77.568  25.867  40.422  1.00  0.00     0.191 C 
HETATM    4  N2  UNL     1      77.814  27.226  40.843  1.00  0.00    -0.305 N 
HETATM    5  C6  UNL     1      77.597  27.648  42.187  1.00  0.00     0.320 C 
HETATM    6  O4  UNL     1      77.877  28.829  42.486  1.00  0.00    -0.247 OA
HETATM    7  N3  UNL     1      77.080  26.800  43.194  1.00  0.00    -0.338 N 
ATOM      8  H3  UNL     1      76.843  25.835  42.967  1.00  0.00     0.164 HD
HETATM    9  C11 UNL     1      78.270  28.022  39.731  1.00  0.00     0.192 C 
ENDROOT
BRANCH   3  10
HETATM   10  C5  UNL     1      78.452  24.914  41.144  1.00  0.00     0.197 C 
HETATM   11  O2  UNL     1      79.520  24.525  40.636  1.00  0.00    -0.646 OA
HETATM   12  O3  UNL     1      78.084  24.453  42.388  1.00  0.00    -0.646 OA
ENDBRANCH   3  10
BRANCH   9  13
HETATM   13  C12 UNL     1      77.395  29.198  39.492  1.00  0.00     0.255 C 
HETATM   14  N4  UNL     1      77.928  30.508  39.494  1.00  0.00    -0.060 NA
HETATM   15  O5  UNL     1      76.180  29.025  39.286  1.00  0.00    -0.275 OA
ENDBRANCH   9  13
BRANCH   7  16
HETATM   16  C7  UNL     1      76.883  27.290  44.557  1.00  0.00     0.089 C 
HETATM   17  C8  UNL     1      77.288  26.229  45.555  1.00  0.00     0.045 C 
HETATM   18  C9  UNL     1      75.879  25.693  45.416  1.00  0.00     0.086 C 
HETATM   19 CL1  UNL     1      75.187  25.035  46.899  1.00  0.00    -0.125 Cl
HETATM   20  C10 UNL     1      75.477  27.114  45.086  1.00  0.00     0.045 C 
ENDBRANCH   7  16
BRANCH   1  21
HETATM   21  C1  UNL     1      79.635  26.937  37.948  1.00  0.00     0.237 C 
HETATM   22  N1  UNL     1      80.119  25.658  37.602  1.00  0.00    -0.062 NA
HETATM   23  O1  UNL     1      80.367  27.933  37.753  1.00  0.00    -0.276 OA
ENDBRANCH   1  21
TORSDOF 4
ENDMDL
MODEL 4
REMARK VINA RESULT: -0.239329650      3.034      5.297
REMARK  4 active torsions:
REMARK  status: ('A' for Active; 'I' for Inactive)
REMARK    1  A    between atoms: C1_2  and  C2_4 
REMARK    2  A    between atoms: C4_6  and  C5_7 
REMARK       I    between atoms: N2_10  and  C6_11 
REMARK       I    between atoms: C6_11  and  N3_13 
REMARK    3  A    between atoms: N3_13  and  C7_15 
REMARK    4  A    between atoms: C11_20  and  C12_21 
ROOT
HETATM    1  C2  UNL     1      77.865  28.600  38.586  1.00  0.00     0.109 C 
HETATM    2  C3  UNL     1      78.158  29.598  39.651  1.00  0.00     0.052 C 
HETATM    3  C4  UNL     1      77.984  28.893  40.948  1.00  0.00     0.191 C 
HETATM    4  N2  UNL     1      77.787  27.491  40.666  1.00  0.00    -0.305 N 
HETATM    5  C6  UNL     1      77.721  26.517  41.705  1.00  0.00     0.320 C 
HETATM    6  O4  UNL     1      77.500  25.329  41.385  1.00  0.00    -0.247 OA
HETATM    7  N3  UNL     1      77.895  26.828  43.073  1.00  0.00    -0.338 N 
ATOM      8  H3  UNL     1      78.079  27.792  43.351  1.00  0.00     0.164 HD
HETATM    9  C11 UNL     1      77.690  27.272  39.244  1.00  0.00     0.192 C 
ENDROOT
BRANCH   3  10
HETATM   10  C5  UNL     1      76.862  29.442  41.753  1.00  0.00     0.197 C 
HETATM   11  O2  UNL     1      76.622  29.006  42.894  1.00  0.00    -0.646 OA
HETATM   12  O3  UNL     1      76.077  30.445  41.230  1.00  0.00    -0.646 OA
ENDBRANCH   3  10
BRANCH   9  13
HETATM   13  C12 UNL     1      78.713  26.311  38.759  1.00  0.00     0.255 C 
HETATM   14  N4  UNL     1      79.993  26.759  38.360  1.00  0.00    -0.060 NA
HETATM   15  O5  UNL     1      78.437  25.098  38.704  1.00  0.00    -0.275 OA
ENDBRANCH   9  13
BRANCH   7  16
HETATM   16  C7  UNL     1      77.813  25.785  44.095  1.00  0.00     0.089 C 
HETATM   17  C8  UNL     1      76.367  25.499  44.431  1.00  0.00     0.045 C 
HETATM   18  C9  UNL     1      76.471  26.633  45.427  1.00  0.00     0.086 C 
HETATM   19 CL1  UNL     1      75.551  26.400  46.914  1.00  0.00    -0.125 Cl
HETATM   20  C10 UNL     1      77.942  26.290  45.515  1.00  0.00     0.045 C 
ENDBRANCH   7  16
BRANCH   1  21
HETATM   21  C1  UNL     1      76.682  29.049  37.814  1.00  0.00     0.237 C 
HETATM   22  N1  UNL     1      75.690  29.873  38.386  1.00  0.00    -0.062 NA
HETATM   23  O1  UNL     1      76.556  28.690  36.622  1.00  0.00    -0.276 OA
ENDBRANCH   1  21
TORSDOF 4
ENDMDL
MODEL 5
REMARK VINA RESULT: 0.257992515      2.523      4.725
REMARK  4 active torsions:
REMARK  status: ('A' for Active; 'I' for Inactive)
REMARK    1  A    between atoms: C1_2  and  C2_4 
REMARK    2  A    between atoms: C4_6  and  C5_7 
REMARK       I    between atoms: N2_10  and  C6_11 
REMARK       I    between atoms: C6_11  and  N3_13 
REMARK    3  A    between atoms: N3_13  and  C7_15 
REMARK    4  A    between atoms: C11_20  and  C12_21 
ROOT
HETATM    1  C2  UNL     1      77.176  27.459  44.065  1.00  0.00     0.109 C 
HETATM    2  C3  UNL     1      78.292  26.476  44.133  1.00  0.00     0.052 C 
HETATM    3  C4  UNL     1      78.507  25.988  42.746  1.00  0.00     0.191 C 
HETATM    4  N2  UNL     1      77.689  26.786  41.864  1.00  0.00    -0.305 N 
HETATM    5  C6  UNL     1      77.766  26.659  40.447  1.00  0.00     0.320 C 
HETATM    6  O4  UNL     1      76.991  27.350  39.750  1.00  0.00    -0.247 OA
HETATM    7  N3  UNL     1      78.673  25.794  39.792  1.00  0.00    -0.338 N 
ATOM      8  H3  UNL     1      79.315  25.225  40.345  1.00  0.00     0.164 HD
HETATM    9  C11 UNL     1      76.852  27.680  42.625  1.00  0.00     0.192 C 
ENDROOT
BRANCH   3  10
HETATM   10  C5  UNL     1      78.206  24.540  42.595  1.00  0.00     0.197 C 
HETATM   11  O2  UNL     1      77.046  24.111  42.739  1.00  0.00    -0.646 OA
HETATM   12  O3  UNL     1      79.223  23.662  42.293  1.00  0.00    -0.646 OA
ENDBRANCH   3  10
BRANCH   9  13
HETATM   13  C12 UNL     1      77.072  29.101  42.253  1.00  0.00     0.255 C 
HETATM   14  N4  UNL     1      78.243  29.494  41.565  1.00  0.00    -0.060 NA
HETATM   15  O5  UNL     1      76.213  29.952  42.549  1.00  0.00    -0.275 OA
ENDBRANCH   9  13
BRANCH   7  16
HETATM   16  C7  UNL     1      78.703  25.704  38.333  1.00  0.00     0.089 C 
HETATM   17  C8  UNL     1      80.049  26.158  37.812  1.00  0.00     0.045 C 
HETATM   18  C9  UNL     1      79.480  27.560  37.834  1.00  0.00     0.086 C 
HETATM   19 CL1  UNL     1      80.030  28.604  36.522  1.00  0.00    -0.125 Cl
HETATM   20  C10 UNL     1      78.130  26.910  37.622  1.00  0.00     0.045 C 
ENDBRANCH   7  16
BRANCH   1  21
HETATM   21  C1  UNL     1      76.037  26.955  44.868  1.00  0.00     0.237 C 
HETATM   22  N1  UNL     1      76.159  25.825  45.703  1.00  0.00    -0.062 NA
HETATM   23  O1  UNL     1      74.935  27.546  44.807  1.00  0.00    -0.276 OA
ENDBRANCH   1  21
TORSDOF 4
ENDMDL
