MODEL 1
REMARK VINA RESULT: -4.079346938      0.000      0.000
REMARK  7 active torsions:
REMARK  status: ('A' for Active; 'I' for Inactive)
REMARK    1  A    between atoms: C2_2  and  N1_3 
REMARK    2  A    between atoms: C2_2  and  C10_21 
REMARK    3  A    between atoms: N1_3  and  C3_5 
REMARK    4  A    between atoms: C3_5  and  N2_7 
REMARK    5  A    between atoms: N2_7  and  N3_9 
REMARK    6  A    between atoms: N3_9  and  N4_10 
REMARK    7  A    between atoms: N3_9  and  C4_13 
REMARK       I    between atoms: C10_21  and  N6_23 
ROOT
HETATM    1  N2  UNL     1      78.236  27.448  38.836  1.00  0.00    -0.276 N 
ATOM      2  H2  UNL     1      79.059  28.014  38.633  1.00  0.00     0.185 HD
ENDROOT
BRANCH   1   3
HETATM    3  C3  UNL     1      78.364  26.098  39.249  1.00  0.00     0.184 C 
HETATM    4  S1  UNL     1      79.258  25.040  38.378  1.00  0.00    -0.040 SA
BRANCH   3   5
HETATM    5  N1  UNL     1      77.721  25.619  40.438  1.00  0.00    -0.353 N 
ATOM      6  H1  UNL     1      76.750  25.310  40.389  1.00  0.00     0.162 HD
BRANCH   5   7
HETATM    7  C2  UNL     1      78.418  25.565  41.699  1.00  0.00     0.172 C 
HETATM    8  C1  UNL     1      79.323  24.352  41.771  1.00  0.00     0.042 C 
BRANCH   7   9
HETATM    9  C10 UNL     1      77.434  25.617  42.795  1.00  0.00     0.241 C 
HETATM   10  O1  UNL     1      76.924  24.524  43.184  1.00  0.00    -0.271 OA
HETATM   11  N6  UNL     1      77.024  26.794  43.435  1.00  0.00    -0.359 N 
HETATM   12  C11 UNL     1      76.058  26.748  44.509  1.00  0.00     0.152 C 
HETATM   13  C12 UNL     1      77.548  28.065  43.032  1.00  0.00     0.152 C 
ENDBRANCH   7   9
ENDBRANCH   5   7
ENDBRANCH   3   5
ENDBRANCH   1   3
BRANCH   1  14
HETATM   14  N3  UNL     1      76.951  27.981  38.715  1.00  0.00    -0.112 NA
BRANCH  14  15
HETATM   15  N4  UNL     1      76.738  28.559  37.486  1.00  0.00    -0.344 NA
ATOM     16  H42 UNL     1      76.923  27.887  36.741  1.00  0.00     0.172 HD
ATOM     17  H41 UNL     1      75.785  28.906  37.381  1.00  0.00     0.172 HD
ENDBRANCH  14  15
BRANCH  14  18
HETATM   18  C4  UNL     1      76.756  28.945  39.761  1.00  0.00     0.307 C 
HETATM   19  C5  UNL     1      75.567  29.859  39.470  1.00  0.00     0.091 C 
HETATM   20  C6  UNL     1      75.797  30.925  40.549  1.00  0.00     0.199 C 
HETATM   21  F1  UNL     1      75.508  30.311  41.759  1.00  0.00    -0.248 F 
HETATM   22  C7  UNL     1      77.286  31.100  40.468  1.00  0.00     0.275 C 
HETATM   23  N5  UNL     1      77.829  29.906  39.857  1.00  0.00    -0.052 N 
HETATM   24  C8  UNL     1      78.410  30.259  38.599  1.00  0.00     0.274 C 
HETATM   25  C9  UNL     1      78.902  29.424  40.735  1.00  0.00     0.274 C 
ENDBRANCH  14  18
ENDBRANCH   1  14
TORSDOF 7
ENDMDL
MODEL 2
REMARK VINA RESULT: -3.928526781      1.008      1.249
REMARK  7 active torsions:
REMARK  status: ('A' for Active; 'I' for Inactive)
REMARK    1  A    between atoms: C2_2  and  N1_3 
REMARK    2  A    between atoms: C2_2  and  C10_21 
REMARK    3  A    between atoms: N1_3  and  C3_5 
REMARK    4  A    between atoms: C3_5  and  N2_7 
REMARK    5  A    between atoms: N2_7  and  N3_9 
REMARK    6  A    between atoms: N3_9  and  N4_10 
REMARK    7  A    between atoms: N3_9  and  C4_13 
REMARK       I    between atoms: C10_21  and  N6_23 
ROOT
HETATM    1  N2  UNL     1      78.246  27.576  39.676  1.00  0.00    -0.276 N 
ATOM      2  H2  UNL     1      78.856  28.201  40.201  1.00  0.00     0.185 HD
ENDROOT
BRANCH   1   3
HETATM    3  C3  UNL     1      78.552  26.198  39.547  1.00  0.00     0.184 C 
HETATM    4  S1  UNL     1      79.448  25.655  38.291  1.00  0.00    -0.040 SA
BRANCH   3   5
HETATM    5  N1  UNL     1      78.089  25.241  40.510  1.00  0.00    -0.353 N 
ATOM      6  H1  UNL     1      77.301  24.638  40.275  1.00  0.00     0.162 HD
BRANCH   5   7
HETATM    7  C2  UNL     1      78.716  25.113  41.803  1.00  0.00     0.172 C 
HETATM    8  C1  UNL     1      79.552  23.851  41.881  1.00  0.00     0.042 C 
BRANCH   7   9
HETATM    9  C10 UNL     1      77.680  25.186  42.849  1.00  0.00     0.241 C 
HETATM   10  O1  UNL     1      76.576  24.603  42.629  1.00  0.00    -0.271 OA
HETATM   11  N6  UNL     1      77.834  25.858  44.068  1.00  0.00    -0.359 N 
HETATM   12  C11 UNL     1      76.764  25.869  45.041  1.00  0.00     0.152 C 
HETATM   13  C12 UNL     1      79.049  26.552  44.372  1.00  0.00     0.152 C 
ENDBRANCH   7   9
ENDBRANCH   5   7
ENDBRANCH   3   5
ENDBRANCH   1   3
BRANCH   1  14
HETATM   14  N3  UNL     1      77.086  28.054  39.063  1.00  0.00    -0.112 NA
BRANCH  14  15
HETATM   15  N4  UNL     1      77.319  28.509  37.787  1.00  0.00    -0.344 NA
ATOM     16  H42 UNL     1      77.383  27.726  37.136  1.00  0.00     0.172 HD
ATOM     17  H41 UNL     1      76.588  29.142  37.462  1.00  0.00     0.172 HD
ENDBRANCH  14  15
BRANCH  14  18
HETATM   18  C4  UNL     1      76.539  29.104  39.876  1.00  0.00     0.307 C 
HETATM   19  C5  UNL     1      76.547  30.445  39.144  1.00  0.00     0.091 C 
HETATM   20  C6  UNL     1      76.218  31.376  40.318  1.00  0.00     0.199 C 
HETATM   21  F1  UNL     1      74.890  31.133  40.637  1.00  0.00    -0.248 F 
HETATM   22  C7  UNL     1      77.067  30.780  41.403  1.00  0.00     0.275 C 
HETATM   23  N5  UNL     1      77.351  29.412  41.030  1.00  0.00    -0.052 N 
HETATM   24  C8  UNL     1      78.757  29.281  40.805  1.00  0.00     0.274 C 
HETATM   25  C9  UNL     1      76.992  28.570  42.176  1.00  0.00     0.274 C 
ENDBRANCH  14  18
ENDBRANCH   1  14
TORSDOF 7
ENDMDL
MODEL 3
REMARK VINA RESULT: -3.251582032      1.357      1.917
REMARK  7 active torsions:
REMARK  status: ('A' for Active; 'I' for Inactive)
REMARK    1  A    between atoms: C2_2  and  N1_3 
REMARK    2  A    between atoms: C2_2  and  C10_21 
REMARK    3  A    between atoms: N1_3  and  C3_5 
REMARK    4  A    between atoms: C3_5  and  N2_7 
REMARK    5  A    between atoms: N2_7  and  N3_9 
REMARK    6  A    between atoms: N3_9  and  N4_10 
REMARK    7  A    between atoms: N3_9  and  C4_13 
REMARK       I    between atoms: C10_21  and  N6_23 
ROOT
HETATM    1  N2  UNL     1      78.189  27.628  40.600  1.00  0.00    -0.276 N 
ATOM      2  H2  UNL     1      77.425  27.591  41.275  1.00  0.00     0.185 HD
ENDROOT
BRANCH   1   3
HETATM    3  C3  UNL     1      78.611  26.463  39.914  1.00  0.00     0.184 C 
HETATM    4  S1  UNL     1      79.249  26.564  38.410  1.00  0.00    -0.040 SA
BRANCH   3   5
HETATM    5  N1  UNL     1      78.496  25.164  40.512  1.00  0.00    -0.353 N 
ATOM      6  H1  UNL     1      78.117  24.394  39.962  1.00  0.00     0.162 HD
BRANCH   5   7
HETATM    7  C2  UNL     1      78.905  24.926  41.874  1.00  0.00     0.172 C 
HETATM    8  C1  UNL     1      79.565  23.569  42.016  1.00  0.00     0.042 C 
BRANCH   7   9
HETATM    9  C10 UNL     1      77.742  25.098  42.763  1.00  0.00     0.241 C 
HETATM   10  O1  UNL     1      76.682  24.464  42.478  1.00  0.00    -0.271 OA
HETATM   11  N6  UNL     1      77.729  25.916  43.900  1.00  0.00    -0.359 N 
HETATM   12  C11 UNL     1      76.543  26.017  44.719  1.00  0.00     0.152 C 
HETATM   13  C12 UNL     1      78.888  26.674  44.267  1.00  0.00     0.152 C 
ENDBRANCH   7   9
ENDBRANCH   5   7
ENDBRANCH   3   5
ENDBRANCH   1   3
BRANCH   1  14
HETATM   14  N3  UNL     1      78.846  28.830  40.327  1.00  0.00    -0.112 NA
BRANCH  14  15
HETATM   15  N4  UNL     1      79.929  29.032  41.149  1.00  0.00    -0.344 NA
ATOM     16  H42 UNL     1      80.787  29.087  40.599  1.00  0.00     0.172 HD
ATOM     17  H41 UNL     1      79.842  29.884  41.702  1.00  0.00     0.172 HD
ENDBRANCH  14  15
BRANCH  14  18
HETATM   18  C4  UNL     1      77.906  29.907  40.465  1.00  0.00     0.307 C 
HETATM   19  C5  UNL     1      76.813  29.573  41.479  1.00  0.00     0.091 C 
HETATM   20  C6  UNL     1      75.838  30.721  41.186  1.00  0.00     0.199 C 
HETATM   21  F1  UNL     1      76.449  31.871  41.662  1.00  0.00    -0.248 F 
HETATM   22  C7  UNL     1      75.885  30.762  39.686  1.00  0.00     0.275 C 
HETATM   23  N5  UNL     1      77.122  30.134  39.274  1.00  0.00    -0.052 N 
HETATM   24  C8  UNL     1      76.810  28.943  38.546  1.00  0.00     0.274 C 
HETATM   25  C9  UNL     1      77.794  31.064  38.361  1.00  0.00     0.274 C 
ENDBRANCH  14  18
ENDBRANCH   1  14
TORSDOF 7
ENDMDL
MODEL 4
REMARK VINA RESULT: -2.510853492      2.870      4.147
REMARK  7 active torsions:
REMARK  status: ('A' for Active; 'I' for Inactive)
REMARK    1  A    between atoms: C2_2  and  N1_3 
REMARK    2  A    between atoms: C2_2  and  C10_21 
REMARK    3  A    between atoms: N1_3  and  C3_5 
REMARK    4  A    between atoms: C3_5  and  N2_7 
REMARK    5  A    between atoms: N2_7  and  N3_9 
REMARK    6  A    between atoms: N3_9  and  N4_10 
REMARK    7  A    between atoms: N3_9  and  C4_13 
REMARK       I    between atoms: C10_21  and  N6_23 
ROOT
HETATM    1  N2  UNL     1      77.281  27.469  41.226  1.00  0.00    -0.276 N 
ATOM      2  H2  UNL     1      77.336  26.457  41.333  1.00  0.00     0.185 HD
ENDROOT
BRANCH   1   3
HETATM    3  C3  UNL     1      76.922  28.298  42.318  1.00  0.00     0.184 C 
HETATM    4  S1  UNL     1      76.474  29.853  42.073  1.00  0.00    -0.040 SA
BRANCH   3   5
HETATM    5  N1  UNL     1      76.938  27.804  43.664  1.00  0.00    -0.353 N 
ATOM      6  H1  UNL     1      77.304  28.398  44.409  1.00  0.00     0.162 HD
BRANCH   5   7
HETATM    7  C2  UNL     1      76.448  26.487  43.986  1.00  0.00     0.172 C 
HETATM    8  C1  UNL     1      76.471  26.247  45.483  1.00  0.00     0.042 C 
BRANCH   7   9
HETATM    9  C10 UNL     1      77.221  25.487  43.228  1.00  0.00     0.241 C 
HETATM   10  O1  UNL     1      76.578  24.665  42.509  1.00  0.00    -0.271 OA
HETATM   11  N6  UNL     1      78.618  25.384  43.250  1.00  0.00    -0.359 N 
HETATM   12  C11 UNL     1      79.293  24.376  42.465  1.00  0.00     0.152 C 
HETATM   13  C12 UNL     1      79.403  26.271  44.056  1.00  0.00     0.152 C 
ENDBRANCH   7   9
ENDBRANCH   5   7
ENDBRANCH   3   5
ENDBRANCH   1   3
BRANCH   1  14
HETATM   14  N3  UNL     1      77.558  28.077  39.999  1.00  0.00    -0.112 NA
BRANCH  14  15
HETATM   15  N4  UNL     1      76.470  28.742  39.488  1.00  0.00    -0.344 NA
ATOM     16  H42 UNL     1      76.288  29.590  40.025  1.00  0.00     0.172 HD
ATOM     17  H41 UNL     1      76.597  28.999  38.510  1.00  0.00     0.172 HD
ENDBRANCH  14  15
BRANCH  14  18
HETATM   18  C4  UNL     1      78.004  27.067  39.080  1.00  0.00     0.307 C 
HETATM   19  C5  UNL     1      78.429  25.793  39.806  1.00  0.00     0.091 C 
HETATM   20  C6  UNL     1      79.117  25.059  38.648  1.00  0.00     0.199 C 
HETATM   21  F1  UNL     1      78.103  24.675  37.783  1.00  0.00    -0.248 F 
HETATM   22  C7  UNL     1      79.870  26.186  38.000  1.00  0.00     0.275 C 
HETATM   23  N5  UNL     1      79.226  27.420  38.396  1.00  0.00    -0.052 N 
HETATM   24  C8  UNL     1      80.141  28.179  39.192  1.00  0.00     0.274 C 
HETATM   25  C9  UNL     1      78.953  28.176  37.169  1.00  0.00     0.274 C 
ENDBRANCH  14  18
ENDBRANCH   1  14
TORSDOF 7
ENDMDL
MODEL 5
REMARK VINA RESULT: -2.502366053      2.228      3.473
REMARK  7 active torsions:
REMARK  status: ('A' for Active; 'I' for Inactive)
REMARK    1  A    between atoms: C2_2  and  N1_3 
REMARK    2  A    between atoms: C2_2  and  C10_21 
REMARK    3  A    between atoms: N1_3  and  C3_5 
REMARK    4  A    between atoms: C3_5  and  N2_7 
REMARK    5  A    between atoms: N2_7  and  N3_9 
REMARK    6  A    between atoms: N3_9  and  N4_10 
REMARK    7  A    between atoms: N3_9  and  C4_13 
REMARK       I    between atoms: C10_21  and  N6_23 
ROOT
HETATM    1  N2  UNL     1      77.042  28.611  42.704  1.00  0.00    -0.276 N 
ATOM      2  H2  UNL     1      76.628  29.359  43.258  1.00  0.00     0.185 HD
ENDROOT
BRANCH   1   3
HETATM    3  C3  UNL     1      76.895  27.254  43.086  1.00  0.00     0.184 C 
HETATM    4  S1  UNL     1      76.298  26.861  44.559  1.00  0.00    -0.040 SA
BRANCH   3   5
HETATM    5  N1  UNL     1      77.260  26.188  42.200  1.00  0.00    -0.353 N 
ATOM      6  H1  UNL     1      76.801  26.114  41.292  1.00  0.00     0.162 HD
BRANCH   5   7
HETATM    7  C2  UNL     1      78.262  25.217  42.565  1.00  0.00     0.172 C 
HETATM    8  C1  UNL     1      79.299  25.824  43.489  1.00  0.00     0.042 C 
BRANCH   7   9
HETATM    9  C10 UNL     1      78.845  24.642  41.340  1.00  0.00     0.241 C 
HETATM   10  O1  UNL     1      79.497  23.561  41.446  1.00  0.00    -0.271 OA
HETATM   11  N6  UNL     1      78.727  25.212  40.065  1.00  0.00    -0.359 N 
HETATM   12  C11 UNL     1      79.325  24.572  38.916  1.00  0.00     0.152 C 
HETATM   13  C12 UNL     1      78.018  26.443  39.878  1.00  0.00     0.152 C 
ENDBRANCH   7   9
ENDBRANCH   5   7
ENDBRANCH   3   5
ENDBRANCH   1   3
BRANCH   1  14
HETATM   14  N3  UNL     1      77.772  28.895  41.547  1.00  0.00    -0.112 NA
BRANCH  14  15
HETATM   15  N4  UNL     1      79.120  28.996  41.791  1.00  0.00    -0.344 NA
ATOM     16  H42 UNL     1      79.427  28.243  42.408  1.00  0.00     0.172 HD
ATOM     17  H41 UNL     1      79.673  28.959  40.935  1.00  0.00     0.172 HD
ENDBRANCH  14  15
BRANCH  14  18
HETATM   18  C4  UNL     1      77.273  30.117  40.982  1.00  0.00     0.307 C 
HETATM   19  C5  UNL     1      75.912  30.493  41.564  1.00  0.00     0.091 C 
HETATM   20  C6  UNL     1      75.518  31.608  40.587  1.00  0.00     0.199 C 
HETATM   21  F1  UNL     1      76.354  32.677  40.871  1.00  0.00    -0.248 F 
HETATM   22  C7  UNL     1      75.960  31.014  39.281  1.00  0.00     0.275 C 
HETATM   23  N5  UNL     1      76.955  30.006  39.578  1.00  0.00    -0.052 N 
HETATM   24  C8  UNL     1      76.438  28.728  39.196  1.00  0.00     0.274 C 
HETATM   25  C9  UNL     1      78.123  30.295  38.739  1.00  0.00     0.274 C 
ENDBRANCH  14  18
ENDBRANCH   1  14
TORSDOF 7
ENDMDL
