MODEL 1
REMARK VINA RESULT: -2.719034985      0.000      0.000
REMARK  6 active torsions:
REMARK  status: ('A' for Active; 'I' for Inactive)
REMARK    1  A    between atoms: C2_2  and  C3_3 
REMARK    2  A    between atoms: C3_3  and  N1_5 
REMARK    3  A    between atoms: N1_5  and  C4_6 
REMARK    4  A    between atoms: C8_12  and  N4_13 
REMARK    5  A    between atoms: C12_17  and  O1_18 
REMARK    6  A    between atoms: C13_20  and  O2_21 
ROOT
HETATM    1  N1  UNL     1      77.571  28.517  40.622  1.00  0.00     0.002 N 
HETATM    2  C11 UNL     1      78.410  29.723  40.659  1.00  0.00     0.281 C 
HETATM    3  C12 UNL     1      77.728  30.752  39.771  1.00  0.00     0.175 C 
HETATM    4  C13 UNL     1      76.332  30.281  39.586  1.00  0.00     0.179 C 
HETATM    5  C14 UNL     1      76.262  29.145  40.586  1.00  0.00     0.226 C 
HETATM    6  C15 UNL     1      75.795  29.739  41.870  1.00  0.00     0.044 C 
ENDROOT
BRANCH   1   7
HETATM    7  C3  UNL     1      77.783  27.898  39.385  1.00  0.00     0.264 C 
HETATM    8  F1  UNL     1      76.865  28.123  38.383  1.00  0.00    -0.183 F 
BRANCH   7   9
HETATM    9  C2  UNL     1      79.135  27.771  38.803  1.00  0.00     0.093 C 
HETATM   10  C1  UNL     1      79.135  28.010  37.286  1.00  0.00     0.014 C 
ENDBRANCH   7   9
ENDBRANCH   1   7
BRANCH   1  11
HETATM   11  C4  UNL     1      77.753  27.842  41.826  1.00  0.00     0.262 C 
HETATM   12  C5  UNL     1      76.894  28.253  42.992  1.00  0.00     0.146 C 
HETATM   13  N2  UNL     1      77.395  27.338  44.028  1.00  0.00    -0.244 NA
HETATM   14  C6  UNL     1      76.361  26.504  44.637  1.00  0.00     0.124 A 
HETATM   15  N3  UNL     1      77.864  26.216  43.407  1.00  0.00    -0.214 NA
HETATM   16  C7  UNL     1      76.951  25.270  44.018  1.00  0.00     0.126 A 
HETATM   17  C8  UNL     1      77.689  26.376  41.951  1.00  0.00     0.344 C 
BRANCH  17  18
HETATM   18  N4  UNL     1      78.617  25.582  41.246  1.00  0.00     0.101 N 
HETATM   19  C9  UNL     1      78.161  25.108  39.939  1.00  0.00     0.311 C 
HETATM   20  C10 UNL     1      79.193  24.463  41.920  1.00  0.00     0.311 C 
ENDBRANCH  17  18
ENDBRANCH   1  11
BRANCH   3  21
HETATM   21  O1  UNL     1      78.427  31.030  38.611  1.00  0.00    -0.391 OA
ATOM     22  H1  UNL     1      78.391  31.944  38.356  1.00  0.00     0.210 HD
ENDBRANCH   3  21
BRANCH   4  23
HETATM   23  O2  UNL     1      75.384  31.265  39.931  1.00  0.00    -0.391 OA
ATOM     24  H2  UNL     1      74.669  31.314  39.307  1.00  0.00     0.210 HD
ENDBRANCH   4  23
TORSDOF 6
ENDMDL
MODEL 2
REMARK VINA RESULT: -2.238467354      1.546      2.928
REMARK  6 active torsions:
REMARK  status: ('A' for Active; 'I' for Inactive)
REMARK    1  A    between atoms: C2_2  and  C3_3 
REMARK    2  A    between atoms: C3_3  and  N1_5 
REMARK    3  A    between atoms: N1_5  and  C4_6 
REMARK    4  A    between atoms: C8_12  and  N4_13 
REMARK    5  A    between atoms: C12_17  and  O1_18 
REMARK    6  A    between atoms: C13_20  and  O2_21 
ROOT
HETATM    1  N1  UNL     1      77.809  28.650  40.033  1.00  0.00     0.002 N 
HETATM    2  C11 UNL     1      76.996  27.795  39.158  1.00  0.00     0.281 C 
HETATM    3  C12 UNL     1      77.403  28.125  37.730  1.00  0.00     0.175 C 
HETATM    4  C13 UNL     1      78.705  28.835  37.823  1.00  0.00     0.179 C 
HETATM    5  C14 UNL     1      79.054  28.634  39.283  1.00  0.00     0.226 C 
HETATM    6  C15 UNL     1      79.840  27.372  39.362  1.00  0.00     0.044 C 
ENDROOT
BRANCH   1   7
HETATM    7  C3  UNL     1      77.282  29.944  39.960  1.00  0.00     0.264 C 
HETATM    8  F1  UNL     1      77.973  30.885  39.229  1.00  0.00    -0.183 F 
BRANCH   7   9
HETATM    9  C2  UNL     1      75.829  30.183  39.834  1.00  0.00     0.093 C 
HETATM   10  C1  UNL     1      75.399  31.494  40.509  1.00  0.00     0.014 C 
ENDBRANCH   7   9
ENDBRANCH   1   7
BRANCH   1  11
HETATM   11  C4  UNL     1      77.965  27.983  41.245  1.00  0.00     0.262 C 
HETATM   12  C5  UNL     1      77.212  28.514  42.436  1.00  0.00     0.146 C 
HETATM   13  N2  UNL     1      77.649  27.566  43.472  1.00  0.00    -0.244 NA
HETATM   14  C6  UNL     1      76.554  26.871  44.144  1.00  0.00     0.124 A 
HETATM   15  N3  UNL     1      77.956  26.384  42.858  1.00  0.00    -0.214 NA
HETATM   16  C7  UNL     1      76.968  25.565  43.531  1.00  0.00     0.126 A 
HETATM   17  C8  UNL     1      77.737  26.537  41.407  1.00  0.00     0.344 C 
BRANCH  17  18
HETATM   18  N4  UNL     1      78.533  25.626  40.684  1.00  0.00     0.101 N 
HETATM   19  C9  UNL     1      77.920  25.098  39.465  1.00  0.00     0.311 C 
HETATM   20  C10 UNL     1      79.092  24.515  41.386  1.00  0.00     0.311 C 
ENDBRANCH  17  18
ENDBRANCH   1  11
BRANCH   3  21
HETATM   21  O1  UNL     1      76.416  28.772  37.011  1.00  0.00    -0.391 OA
ATOM     22  H1  UNL     1      76.428  28.570  36.083  1.00  0.00     0.210 HD
ENDBRANCH   3  21
BRANCH   4  23
HETATM   23  O2  UNL     1      79.699  28.239  37.021  1.00  0.00    -0.391 OA
ATOM     24  H2  UNL     1      80.556  28.261  37.430  1.00  0.00     0.210 HD
ENDBRANCH   4  23
TORSDOF 6
ENDMDL
MODEL 3
REMARK VINA RESULT: -1.565078175      1.544      3.703
REMARK  6 active torsions:
REMARK  status: ('A' for Active; 'I' for Inactive)
REMARK    1  A    between atoms: C2_2  and  C3_3 
REMARK    2  A    between atoms: C3_3  and  N1_5 
REMARK    3  A    between atoms: N1_5  and  C4_6 
REMARK    4  A    between atoms: C8_12  and  N4_13 
REMARK    5  A    between atoms: C12_17  and  O1_18 
REMARK    6  A    between atoms: C13_20  and  O2_21 
ROOT
HETATM    1  N1  UNL     1      77.947  27.685  40.340  1.00  0.00     0.002 N 
HETATM    2  C11 UNL     1      76.720  27.788  39.538  1.00  0.00     0.281 C 
HETATM    3  C12 UNL     1      76.966  28.879  38.508  1.00  0.00     0.175 C 
HETATM    4  C13 UNL     1      78.436  29.083  38.461  1.00  0.00     0.179 C 
HETATM    5  C14 UNL     1      78.929  27.917  39.294  1.00  0.00     0.226 C 
HETATM    6  C15 UNL     1      79.148  26.785  38.351  1.00  0.00     0.044 C 
ENDROOT
BRANCH   1   7
HETATM    7  C3  UNL     1      77.974  28.785  41.204  1.00  0.00     0.264 C 
HETATM    8  F1  UNL     1      78.886  29.787  40.949  1.00  0.00    -0.183 F 
BRANCH   7   9
HETATM    9  C2  UNL     1      76.735  29.369  41.756  1.00  0.00     0.093 C 
HETATM   10  C1  UNL     1      76.641  30.879  41.496  1.00  0.00     0.014 C 
ENDBRANCH   7   9
ENDBRANCH   1   7
BRANCH   1  11
HETATM   11  C4  UNL     1      78.036  26.377  40.806  1.00  0.00     0.262 C 
HETATM   12  C5  UNL     1      78.706  25.363  39.918  1.00  0.00     0.146 C 
HETATM   13  N2  UNL     1      78.580  24.156  40.748  1.00  0.00    -0.244 NA
HETATM   14  C6  UNL     1      79.853  23.500  41.043  1.00  0.00     0.124 A 
HETATM   15  N3  UNL     1      78.537  24.548  42.056  1.00  0.00    -0.214 NA
HETATM   16  C7  UNL     1      79.735  23.862  42.495  1.00  0.00     0.126 A 
HETATM   17  C8  UNL     1      78.622  26.020  42.109  1.00  0.00     0.344 C 
BRANCH  17  18
HETATM   18  N4  UNL     1      78.031  26.511  43.291  1.00  0.00     0.101 N 
HETATM   19  C9  UNL     1      78.769  26.221  44.521  1.00  0.00     0.311 C 
HETATM   20  C10 UNL     1      76.661  26.197  43.540  1.00  0.00     0.311 C 
ENDBRANCH  17  18
ENDBRANCH   1  11
BRANCH   3  21
HETATM   21  O1  UNL     1      76.208  30.016  38.717  1.00  0.00    -0.391 OA
ATOM     22  H1  UNL     1      75.818  30.363  37.923  1.00  0.00     0.210 HD
ENDBRANCH   3  21
BRANCH   4  23
HETATM   23  O2  UNL     1      78.952  28.973  37.155  1.00  0.00    -0.391 OA
ATOM     24  H2  UNL     1      78.274  29.029  36.492  1.00  0.00     0.210 HD
ENDBRANCH   4  23
TORSDOF 6
ENDMDL
MODEL 4
REMARK VINA RESULT: -1.501138305      1.415      2.051
REMARK  6 active torsions:
REMARK  status: ('A' for Active; 'I' for Inactive)
REMARK    1  A    between atoms: C2_2  and  C3_3 
REMARK    2  A    between atoms: C3_3  and  N1_5 
REMARK    3  A    between atoms: N1_5  and  C4_6 
REMARK    4  A    between atoms: C8_12  and  N4_13 
REMARK    5  A    between atoms: C12_17  and  O1_18 
REMARK    6  A    between atoms: C13_20  and  O2_21 
ROOT
HETATM    1  N1  UNL     1      77.927  27.708  40.598  1.00  0.00     0.002 N 
HETATM    2  C11 UNL     1      79.345  28.044  40.406  1.00  0.00     0.281 C 
HETATM    3  C12 UNL     1      79.453  28.699  39.038  1.00  0.00     0.175 C 
HETATM    4  C13 UNL     1      78.074  29.102  38.660  1.00  0.00     0.179 C 
HETATM    5  C14 UNL     1      77.325  28.864  39.954  1.00  0.00     0.226 C 
HETATM    6  C15 UNL     1      77.389  30.138  40.723  1.00  0.00     0.044 C 
ENDROOT
BRANCH   1   7
HETATM    7  C3  UNL     1      77.653  26.587  39.809  1.00  0.00     0.264 C 
HETATM    8  F1  UNL     1      77.087  26.790  38.569  1.00  0.00    -0.183 F 
BRANCH   7   9
HETATM    9  C2  UNL     1      78.575  25.434  39.752  1.00  0.00     0.093 C 
HETATM   10  C1  UNL     1      78.934  25.052  38.309  1.00  0.00     0.014 C 
ENDBRANCH   7   9
ENDBRANCH   1   7
BRANCH   1  11
HETATM   11  C4  UNL     1      77.673  27.729  41.967  1.00  0.00     0.262 C 
HETATM   12  C5  UNL     1      76.378  28.345  42.427  1.00  0.00     0.146 C 
HETATM   13  N2  UNL     1      76.507  28.180  43.883  1.00  0.00    -0.244 NA
HETATM   14  C6  UNL     1      75.405  27.444  44.499  1.00  0.00     0.124 A 
HETATM   15  N3  UNL     1      77.298  27.091  44.114  1.00  0.00    -0.214 NA
HETATM   16  C7  UNL     1      76.317  26.298  44.826  1.00  0.00     0.126 A 
HETATM   17  C8  UNL     1      77.713  26.526  42.816  1.00  0.00     0.344 C 
BRANCH  17  18
HETATM   18  N4  UNL     1      78.921  25.812  42.945  1.00  0.00     0.101 N 
HETATM   19  C9  UNL     1      78.867  24.416  42.509  1.00  0.00     0.311 C 
HETATM   20  C10 UNL     1      79.581  25.829  44.211  1.00  0.00     0.311 C 
ENDBRANCH  17  18
ENDBRANCH   1  11
BRANCH   3  21
HETATM   21  O1  UNL     1      80.130  27.929  38.110  1.00  0.00    -0.391 OA
ATOM     22  H1  UNL     1      79.599  27.240  37.730  1.00  0.00     0.210 HD
ENDBRANCH   3  21
BRANCH   4  23
HETATM   23  O2  UNL     1      77.989  30.466  38.317  1.00  0.00    -0.391 OA
ATOM     24  H2  UNL     1      77.522  30.607  37.502  1.00  0.00     0.210 HD
ENDBRANCH   4  23
TORSDOF 6
ENDMDL
MODEL 5
REMARK VINA RESULT: -1.416995292      2.928      5.369
REMARK  6 active torsions:
REMARK  status: ('A' for Active; 'I' for Inactive)
REMARK    1  A    between atoms: C2_2  and  C3_3 
REMARK    2  A    between atoms: C3_3  and  N1_5 
REMARK    3  A    between atoms: N1_5  and  C4_6 
REMARK    4  A    between atoms: C8_12  and  N4_13 
REMARK    5  A    between atoms: C12_17  and  O1_18 
REMARK    6  A    between atoms: C13_20  and  O2_21 
ROOT
HETATM    1  N1  UNL     1      77.382  27.322  42.440  1.00  0.00     0.002 N 
HETATM    2  C11 UNL     1      78.839  27.459  42.576  1.00  0.00     0.281 C 
HETATM    3  C12 UNL     1      79.358  26.113  43.058  1.00  0.00     0.175 C 
HETATM    4  C13 UNL     1      78.277  25.130  42.788  1.00  0.00     0.179 C 
HETATM    5  C14 UNL     1      77.322  25.955  41.949  1.00  0.00     0.226 C 
HETATM    6  C15 UNL     1      77.728  25.760  40.529  1.00  0.00     0.044 C 
ENDROOT
BRANCH   1   7
HETATM    7  C3  UNL     1      76.839  27.338  43.729  1.00  0.00     0.264 C 
HETATM    8  F1  UNL     1      76.063  28.418  44.091  1.00  0.00    -0.183 F 
BRANCH   7   9
HETATM    9  C2  UNL     1      76.316  26.112  44.366  1.00  0.00     0.093 C 
HETATM   10  C1  UNL     1      76.222  26.250  45.893  1.00  0.00     0.014 C 
ENDBRANCH   7   9
ENDBRANCH   1   7
BRANCH   1  11
HETATM   11  C4  UNL     1      76.968  28.210  41.452  1.00  0.00     0.262 C 
HETATM   12  C5  UNL     1      76.226  29.445  41.891  1.00  0.00     0.146 C 
HETATM   13  N2  UNL     1      75.970  30.079  40.588  1.00  0.00    -0.244 NA
HETATM   14  C6  UNL     1      76.483  31.443  40.479  1.00  0.00     0.124 A 
HETATM   15  N3  UNL     1      76.960  29.691  39.730  1.00  0.00    -0.214 NA
HETATM   16  C7  UNL     1      77.501  31.009  39.466  1.00  0.00     0.126 A 
HETATM   17  C8  UNL     1      77.878  28.788  40.449  1.00  0.00     0.344 C 
BRANCH  17  18
HETATM   18  N4  UNL     1      78.544  27.933  39.547  1.00  0.00     0.101 N 
HETATM   19  C9  UNL     1      79.958  28.240  39.330  1.00  0.00     0.311 C 
HETATM   20  C10 UNL     1      77.959  27.723  38.261  1.00  0.00     0.311 C 
ENDBRANCH  17  18
ENDBRANCH   1  11
BRANCH   3  21
HETATM   21  O1  UNL     1      79.838  26.138  44.354  1.00  0.00    -0.391 OA
ATOM     22  H1  UNL     1      79.750  25.308  44.807  1.00  0.00     0.210 HD
ENDBRANCH   3  21
BRANCH   4  23
HETATM   23  O2  UNL     1      78.728  24.030  42.033  1.00  0.00    -0.391 OA
ATOM     24  H2  UNL     1      78.013  23.543  41.640  1.00  0.00     0.210 HD
ENDBRANCH   4  23
TORSDOF 6
ENDMDL
