MODEL 1
REMARK VINA RESULT: -3.076152423      0.000      0.000
REMARK  4 active torsions:
REMARK  status: ('A' for Active; 'I' for Inactive)
REMARK       I    between atoms: C1_2  and  N2_4 
REMARK    1  A    between atoms: C5_10  and  C6_11 
REMARK       I    between atoms: C6_11  and  N3_13 
REMARK    2  A    between atoms: C9_16  and  N4_17 
REMARK    3  A    between atoms: N4_17  and  S1_19 
REMARK    4  A    between atoms: S1_19  and  N5_20 
ROOT
HETATM    1  C6  UNL     1      76.559  28.458  42.698  1.00  0.00     0.248 C 
HETATM    2  O2  UNL     1      75.313  28.647  42.681  1.00  0.00    -0.271 OA
HETATM    3  N3  UNL     1      77.277  29.267  41.772  1.00  0.00    -0.348 N 
HETATM    4  C7  UNL     1      76.638  30.251  40.889  1.00  0.00     0.128 C 
HETATM    5  C8  UNL     1      77.572  30.510  39.763  1.00  0.00     0.047 C 
HETATM    6  C9  UNL     1      78.633  29.471  39.915  1.00  0.00     0.114 C 
HETATM    7  C10 UNL     1      78.685  29.336  41.450  1.00  0.00     0.151 C 
ENDROOT
BRANCH   1   8
HETATM    8  C5  UNL     1      77.289  27.538  43.527  1.00  0.00     0.253 C 
HETATM    9  N2  UNL     1      77.912  26.380  42.994  1.00  0.00    -0.317 N 
HETATM   10  C1  UNL     1      77.950  25.663  41.801  1.00  0.00     0.331 C 
HETATM   11  C2  UNL     1      78.698  25.947  44.160  1.00  0.00     0.134 C 
HETATM   12  N1  UNL     1      78.750  24.465  41.629  1.00  0.00    -0.040 NA
HETATM   13  O1  UNL     1      77.337  25.908  40.726  1.00  0.00    -0.251 OA
HETATM   14  C3  UNL     1      77.571  25.930  45.191  1.00  0.00     0.101 C 
HETATM   15  C4  UNL     1      76.474  26.841  44.602  1.00  0.00     0.274 C 
HETATM   16  F1  UNL     1      75.528  26.030  44.033  1.00  0.00    -0.203 F 
HETATM   17  F2  UNL     1      76.040  27.606  45.616  1.00  0.00    -0.203 F 
ENDBRANCH   1   8
BRANCH   6  18
HETATM   18  N4  UNL     1      78.156  28.221  39.413  1.00  0.00    -0.297 N 
ATOM     19  H4  UNL     1      77.234  27.849  39.640  1.00  0.00     0.174 HD
BRANCH  18  20
HETATM   20  S1  UNL     1      79.265  27.407  38.400  1.00  0.00     0.313 S 
HETATM   21  O3  UNL     1      80.685  27.759  38.687  1.00  0.00    -0.183 OA
HETATM   22  O4  UNL     1      78.986  27.852  36.972  1.00  0.00    -0.183 OA
BRANCH  20  23
HETATM   23  N5  UNL     1      79.096  25.705  38.436  1.00  0.00    -0.312 N 
ATOM     24  H52 UNL     1      79.894  25.079  38.551  1.00  0.00     0.170 HD
ATOM     25  H51 UNL     1      78.132  25.390  38.331  1.00  0.00     0.170 HD
ENDBRANCH  20  23
ENDBRANCH  18  20
ENDBRANCH   6  18
TORSDOF 4
ENDMDL
MODEL 2
REMARK VINA RESULT: -1.074657143      2.013      3.684
REMARK  4 active torsions:
REMARK  status: ('A' for Active; 'I' for Inactive)
REMARK       I    between atoms: C1_2  and  N2_4 
REMARK    1  A    between atoms: C5_10  and  C6_11 
REMARK       I    between atoms: C6_11  and  N3_13 
REMARK    2  A    between atoms: C9_16  and  N4_17 
REMARK    3  A    between atoms: N4_17  and  S1_19 
REMARK    4  A    between atoms: S1_19  and  N5_20 
ROOT
HETATM    1  C6  UNL     1      78.341  25.546  42.342  1.00  0.00     0.248 C 
HETATM    2  O2  UNL     1      79.432  25.154  42.836  1.00  0.00    -0.271 OA
HETATM    3  N3  UNL     1      78.236  25.336  40.938  1.00  0.00    -0.348 N 
HETATM    4  C7  UNL     1      79.286  24.702  40.132  1.00  0.00     0.128 C 
HETATM    5  C8  UNL     1      79.065  25.104  38.719  1.00  0.00     0.047 C 
HETATM    6  C9  UNL     1      78.018  26.166  38.795  1.00  0.00     0.114 C 
HETATM    7  C10 UNL     1      77.189  25.666  39.995  1.00  0.00     0.151 C 
ENDROOT
BRANCH   1   8
HETATM    8  C5  UNL     1      77.243  26.163  43.036  1.00  0.00     0.253 C 
HETATM    9  N2  UNL     1      76.908  27.527  42.846  1.00  0.00    -0.317 N 
HETATM   10  C1  UNL     1      77.433  28.663  42.235  1.00  0.00     0.331 C 
HETATM   11  C2  UNL     1      75.620  27.581  43.557  1.00  0.00     0.134 C 
HETATM   12  N1  UNL     1      76.761  29.948  42.255  1.00  0.00    -0.040 NA
HETATM   13  O1  UNL     1      78.515  28.772  41.597  1.00  0.00    -0.251 OA
HETATM   14  C3  UNL     1      76.075  26.974  44.883  1.00  0.00     0.101 C 
HETATM   15  C4  UNL     1      77.369  26.203  44.549  1.00  0.00     0.274 C 
HETATM   16  F1  UNL     1      78.425  26.992  44.920  1.00  0.00    -0.203 F 
HETATM   17  F2  UNL     1      77.277  25.027  45.190  1.00  0.00    -0.203 F 
ENDBRANCH   1   8
BRANCH   6  18
HETATM   18  N4  UNL     1      78.615  27.399  39.199  1.00  0.00    -0.297 N 
ATOM     19  H4  UNL     1      79.314  27.461  39.939  1.00  0.00     0.174 HD
BRANCH  18  20
HETATM   20  S1  UNL     1      78.055  28.762  38.332  1.00  0.00     0.313 S 
HETATM   21  O3  UNL     1      76.656  28.605  37.838  1.00  0.00    -0.183 OA
HETATM   22  O4  UNL     1      78.937  28.911  37.101  1.00  0.00    -0.183 OA
BRANCH  20  23
HETATM   23  N5  UNL     1      78.172  30.223  39.212  1.00  0.00    -0.312 N 
ATOM     24  H52 UNL     1      78.046  30.265  40.224  1.00  0.00     0.170 HD
ATOM     25  H51 UNL     1      78.377  31.034  38.628  1.00  0.00     0.170 HD
ENDBRANCH  20  23
ENDBRANCH  18  20
ENDBRANCH   6  18
TORSDOF 4
ENDMDL
MODEL 3
REMARK VINA RESULT: -0.885524321      3.180      5.064
REMARK  4 active torsions:
REMARK  status: ('A' for Active; 'I' for Inactive)
REMARK       I    between atoms: C1_2  and  N2_4 
REMARK    1  A    between atoms: C5_10  and  C6_11 
REMARK       I    between atoms: C6_11  and  N3_13 
REMARK    2  A    between atoms: C9_16  and  N4_17 
REMARK    3  A    between atoms: N4_17  and  S1_19 
REMARK    4  A    between atoms: S1_19  and  N5_20 
ROOT
HETATM    1  C6  UNL     1      77.867  26.009  40.893  1.00  0.00     0.248 C 
HETATM    2  O2  UNL     1      77.102  25.027  41.085  1.00  0.00    -0.271 OA
HETATM    3  N3  UNL     1      77.742  27.036  41.871  1.00  0.00    -0.348 N 
HETATM    4  C7  UNL     1      76.826  26.959  43.016  1.00  0.00     0.128 C 
HETATM    5  C8  UNL     1      76.599  28.346  43.496  1.00  0.00     0.047 C 
HETATM    6  C9  UNL     1      77.215  29.209  42.445  1.00  0.00     0.114 C 
HETATM    7  C10 UNL     1      78.394  28.321  42.001  1.00  0.00     0.151 C 
ENDROOT
BRANCH   1   8
HETATM    8  C5  UNL     1      78.810  26.182  39.821  1.00  0.00     0.253 C 
HETATM    9  N2  UNL     1      78.622  27.156  38.808  1.00  0.00    -0.317 N 
HETATM   10  C1  UNL     1      77.635  28.031  38.362  1.00  0.00     0.331 C 
HETATM   11  C2  UNL     1      79.933  27.093  38.140  1.00  0.00     0.134 C 
HETATM   12  N1  UNL     1      77.826  28.921  37.232  1.00  0.00    -0.040 NA
HETATM   13  O1  UNL     1      76.474  28.196  38.826  1.00  0.00    -0.251 OA
HETATM   14  C3  UNL     1      79.983  25.585  37.898  1.00  0.00     0.101 C 
HETATM   15  C4  UNL     1      78.984  24.982  38.907  1.00  0.00     0.274 C 
HETATM   16  F1  UNL     1      77.822  24.724  38.230  1.00  0.00    -0.203 F 
HETATM   17  F2  UNL     1      79.591  23.908  39.435  1.00  0.00    -0.203 F 
ENDBRANCH   1   8
BRANCH   6  18
HETATM   18  N4  UNL     1      76.333  29.304  41.325  1.00  0.00    -0.297 N 
ATOM     19  H4  UNL     1      75.699  28.552  41.053  1.00  0.00     0.174 HD
BRANCH  18  20
HETATM   20  S1  UNL     1      76.434  30.786  40.481  1.00  0.00     0.313 S 
HETATM   21  O3  UNL     1      76.466  31.972  41.386  1.00  0.00    -0.183 OA
HETATM   22  O4  UNL     1      75.173  30.916  39.639  1.00  0.00    -0.183 OA
BRANCH  20  23
HETATM   23  N5  UNL     1      77.763  30.870  39.408  1.00  0.00    -0.312 N 
ATOM     24  H52 UNL     1      78.686  30.510  39.652  1.00  0.00     0.170 HD
ATOM     25  H51 UNL     1      77.537  31.310  38.516  1.00  0.00     0.170 HD
ENDBRANCH  20  23
ENDBRANCH  18  20
ENDBRANCH   6  18
TORSDOF 4
ENDMDL
MODEL 4
REMARK VINA RESULT: -0.652254176      2.458      4.641
REMARK  4 active torsions:
REMARK  status: ('A' for Active; 'I' for Inactive)
REMARK       I    between atoms: C1_2  and  N2_4 
REMARK    1  A    between atoms: C5_10  and  C6_11 
REMARK       I    between atoms: C6_11  and  N3_13 
REMARK    2  A    between atoms: C9_16  and  N4_17 
REMARK    3  A    between atoms: N4_17  and  S1_19 
REMARK    4  A    between atoms: S1_19  and  N5_20 
ROOT
HETATM    1  C6  UNL     1      77.721  28.361  41.793  1.00  0.00     0.248 C 
HETATM    2  O2  UNL     1      78.445  29.046  42.564  1.00  0.00    -0.271 OA
HETATM    3  N3  UNL     1      77.779  26.960  42.042  1.00  0.00    -0.348 N 
HETATM    4  C7  UNL     1      78.588  26.359  43.110  1.00  0.00     0.128 C 
HETATM    5  C8  UNL     1      78.801  24.932  42.756  1.00  0.00     0.047 C 
HETATM    6  C9  UNL     1      78.299  24.819  41.354  1.00  0.00     0.114 C 
HETATM    7  C10 UNL     1      77.146  25.841  41.379  1.00  0.00     0.151 C 
ENDROOT
BRANCH   1   8
HETATM    8  C5  UNL     1      76.881  28.842  40.731  1.00  0.00     0.253 C 
HETATM    9  N2  UNL     1      77.307  28.838  39.378  1.00  0.00    -0.317 N 
HETATM   10  C1  UNL     1      78.470  28.622  38.644  1.00  0.00     0.331 C 
HETATM   11  C2  UNL     1      76.042  29.175  38.705  1.00  0.00     0.134 C 
HETATM   12  N1  UNL     1      78.515  28.711  37.197  1.00  0.00    -0.040 NA
HETATM   13  O1  UNL     1      79.619  28.330  39.075  1.00  0.00    -0.251 OA
HETATM   14  C3  UNL     1      75.696  30.431  39.504  1.00  0.00     0.101 C 
HETATM   15  C4  UNL     1      76.506  30.312  40.811  1.00  0.00     0.274 C 
HETATM   16  F1  UNL     1      77.620  31.097  40.678  1.00  0.00    -0.203 F 
HETATM   17  F2  UNL     1      75.670  30.664  41.800  1.00  0.00    -0.203 F 
ENDBRANCH   1   8
BRANCH   6  18
HETATM   18  N4  UNL     1      79.279  25.334  40.451  1.00  0.00    -0.297 N 
ATOM     19  H4  UNL     1      80.080  25.886  40.757  1.00  0.00     0.174 HD
BRANCH  18  20
HETATM   20  S1  UNL     1      78.991  24.944  38.812  1.00  0.00     0.313 S 
HETATM   21  O3  UNL     1      77.549  25.015  38.440  1.00  0.00    -0.183 OA
HETATM   22  O4  UNL     1      79.422  23.499  38.608  1.00  0.00    -0.183 OA
BRANCH  20  23
HETATM   23  N5  UNL     1      79.896  25.895  37.717  1.00  0.00    -0.312 N 
ATOM     24  H52 UNL     1      80.528  25.486  37.029  1.00  0.00     0.170 HD
ATOM     25  H51 UNL     1      79.738  26.898  37.823  1.00  0.00     0.170 HD
ENDBRANCH  20  23
ENDBRANCH  18  20
ENDBRANCH   6  18
TORSDOF 4
ENDMDL
MODEL 5
REMARK VINA RESULT: -0.233849191      3.454      5.816
REMARK  4 active torsions:
REMARK  status: ('A' for Active; 'I' for Inactive)
REMARK       I    between atoms: C1_2  and  N2_4 
REMARK    1  A    between atoms: C5_10  and  C6_11 
REMARK       I    between atoms: C6_11  and  N3_13 
REMARK    2  A    between atoms: C9_16  and  N4_17 
REMARK    3  A    between atoms: N4_17  and  S1_19 
REMARK    4  A    between atoms: S1_19  and  N5_20 
ROOT
HETATM    1  C6  UNL     1      77.017  28.163  39.569  1.00  0.00     0.248 C 
HETATM    2  O2  UNL     1      76.491  27.775  38.492  1.00  0.00    -0.271 OA
HETATM    3  N3  UNL     1      77.935  27.230  40.130  1.00  0.00    -0.348 N 
HETATM    4  C7  UNL     1      78.263  25.941  39.509  1.00  0.00     0.128 C 
HETATM    5  C8  UNL     1      78.817  25.063  40.572  1.00  0.00     0.047 C 
HETATM    6  C9  UNL     1      78.563  25.811  41.839  1.00  0.00     0.114 C 
HETATM    7  C10 UNL     1      78.713  27.265  41.349  1.00  0.00     0.151 C 
ENDROOT
BRANCH   1   8
HETATM    8  C5  UNL     1      76.784  29.404  40.255  1.00  0.00     0.253 C 
HETATM    9  N2  UNL     1      75.714  30.266  39.901  1.00  0.00    -0.317 N 
HETATM   10  C1  UNL     1      74.766  30.403  38.891  1.00  0.00     0.331 C 
HETATM   11  C2  UNL     1      75.767  31.220  41.021  1.00  0.00     0.134 C 
HETATM   12  N1  UNL     1      73.784  31.471  38.873  1.00  0.00    -0.040 NA
HETATM   13  O1  UNL     1      74.600  29.673  37.876  1.00  0.00    -0.251 OA
HETATM   14  C3  UNL     1      77.246  31.587  40.928  1.00  0.00     0.101 C 
HETATM   15  C4  UNL     1      77.901  30.428  40.149  1.00  0.00     0.274 C 
HETATM   16  F1  UNL     1      78.051  30.838  38.851  1.00  0.00    -0.203 F 
HETATM   17  F2  UNL     1      79.040  30.140  40.797  1.00  0.00    -0.203 F 
ENDBRANCH   1   8
BRANCH   6  18
HETATM   18  N4  UNL     1      77.196  25.651  42.224  1.00  0.00    -0.297 N 
ATOM     19  H4  UNL     1      76.507  25.176  41.640  1.00  0.00     0.174 HD
BRANCH  18  20
HETATM   20  S1  UNL     1      76.817  26.325  43.748  1.00  0.00     0.313 S 
HETATM   21  O3  UNL     1      77.964  26.295  44.701  1.00  0.00    -0.183 OA
HETATM   22  O4  UNL     1      75.719  25.469  44.362  1.00  0.00    -0.183 OA
BRANCH  20  23
HETATM   23  N5  UNL     1      76.214  27.922  43.655  1.00  0.00    -0.312 N 
ATOM     24  H52 UNL     1      76.209  28.455  42.785  1.00  0.00     0.170 HD
ATOM     25  H51 UNL     1      75.866  28.277  44.545  1.00  0.00     0.170 HD
ENDBRANCH  20  23
ENDBRANCH  18  20
ENDBRANCH   6  18
TORSDOF 4
ENDMDL
