MODEL 1
REMARK VINA RESULT: -2.849701116      0.000      0.000
REMARK  8 active torsions:
REMARK  status: ('A' for Active; 'I' for Inactive)
REMARK    1  A    between atoms: O1_2  and  C2_3 
REMARK       I    between atoms: C2_3  and  N1_5 
REMARK    2  A    between atoms: N2_8  and  C5_9 
REMARK    3  A    between atoms: C5_9  and  O3_10 
REMARK    4  A    between atoms: C5_9  and  C6_12 
REMARK    5  A    between atoms: C6_12  and  N3_13 
REMARK    6  A    between atoms: C6_12  and  N4_16 
REMARK    7  A    between atoms: N4_16  and  C7_18 
REMARK    8  A    between atoms: C7_18  and  C8_19 
ROOT
HETATM    1  C6  UNL     1      78.768  25.346  39.875  1.00  0.00     0.146 C 
ENDROOT
BRANCH   1   2
HETATM    2  C5  UNL     1      77.851  26.374  39.528  1.00  0.00     0.184 C 
BRANCH   2   3
HETATM    3  N2  UNL     1      78.080  27.754  39.539  1.00  0.00    -0.336 N 
HETATM    4  C4  UNL     1      78.256  28.583  38.313  1.00  0.00     0.147 C 
HETATM    5  C3  UNL     1      77.798  29.939  38.698  1.00  0.00     0.150 C 
HETATM    6  N1  UNL     1      77.307  29.780  40.036  1.00  0.00    -0.305 N 
HETATM    7  C2  UNL     1      76.297  30.413  40.773  1.00  0.00     0.364 C 
HETATM    8  C13 UNL     1      78.154  28.691  40.596  1.00  0.00     0.189 C 
HETATM    9  O2  UNL     1      76.079  30.055  41.957  1.00  0.00    -0.238 OA
HETATM   10  C14 UNL     1      79.523  29.335  40.757  1.00  0.00     0.056 C 
BRANCH   7  11
HETATM   11  O1  UNL     1      75.547  31.414  40.220  1.00  0.00    -0.309 OA
HETATM   12  C1  UNL     1      74.583  31.219  39.203  1.00  0.00     0.215 C 
ENDBRANCH   7  11
ENDBRANCH   2   3
BRANCH   2  13
HETATM   13  O3  UNL     1      76.661  25.957  39.163  1.00  0.00    -0.343 OA
ATOM     14  H3  UNL     1      76.542  25.023  39.033  1.00  0.00     0.219 HD
ENDBRANCH   2  13
ENDBRANCH   1   2
BRANCH   1  15
HETATM   15  N3  UNL     1      79.571  24.946  38.911  1.00  0.00    -0.382 N 
ATOM     16  H32 UNL     1      79.213  24.448  38.096  1.00  0.00     0.157 HD
ATOM     17  H31 UNL     1      80.560  25.158  39.041  1.00  0.00     0.157 HD
ENDBRANCH   1  15
BRANCH   1  18
HETATM   18  N4  UNL     1      78.838  24.790  41.161  1.00  0.00    -0.370 N 
ATOM     19  H4  UNL     1      78.730  23.780  41.255  1.00  0.00     0.161 HD
BRANCH  18  20
HETATM   20  C7  UNL     1      79.051  25.552  42.338  1.00  0.00     0.166 C 
BRANCH  20  21
HETATM   21  C8  UNL     1      77.893  25.716  43.245  1.00  0.00     0.147 C 
HETATM   22  F1  UNL     1      76.868  24.796  42.958  1.00  0.00    -0.239 F 
HETATM   23  C9  UNL     1      77.225  27.074  42.870  1.00  0.00     0.077 C 
HETATM   24  C10 UNL     1      76.482  27.424  44.090  1.00  0.00     0.275 C 
HETATM   25  N5  UNL     1      77.018  26.685  45.181  1.00  0.00     0.087 N 
HETATM   26  C11 UNL     1      76.007  25.824  45.804  1.00  0.00     0.310 C 
HETATM   27  C12 UNL     1      78.073  25.812  44.685  1.00  0.00     0.317 C 
ENDBRANCH  20  21
ENDBRANCH  18  20
ENDBRANCH   1  18
TORSDOF 8
ENDMDL
MODEL 2
REMARK VINA RESULT: -2.610937732      1.672      2.269
REMARK  8 active torsions:
REMARK  status: ('A' for Active; 'I' for Inactive)
REMARK    1  A    between atoms: O1_2  and  C2_3 
REMARK       I    between atoms: C2_3  and  N1_5 
REMARK    2  A    between atoms: N2_8  and  C5_9 
REMARK    3  A    between atoms: C5_9  and  O3_10 
REMARK    4  A    between atoms: C5_9  and  C6_12 
REMARK    5  A    between atoms: C6_12  and  N3_13 
REMARK    6  A    between atoms: C6_12  and  N4_16 
REMARK    7  A    between atoms: N4_16  and  C7_18 
REMARK    8  A    between atoms: C7_18  and  C8_19 
ROOT
HETATM    1  C6  UNL     1      79.261  24.523  40.721  1.00  0.00     0.146 C 
ENDROOT
BRANCH   1   2
HETATM    2  C5  UNL     1      79.141  25.077  39.419  1.00  0.00     0.184 C 
BRANCH   2   3
HETATM    3  N2  UNL     1      78.664  26.346  39.078  1.00  0.00    -0.336 N 
HETATM    4  C4  UNL     1      77.256  26.633  38.681  1.00  0.00     0.147 C 
HETATM    5  C3  UNL     1      77.028  28.045  39.068  1.00  0.00     0.150 C 
HETATM    6  N1  UNL     1      78.238  28.429  39.735  1.00  0.00    -0.305 N 
HETATM    7  C2  UNL     1      78.523  29.327  40.772  1.00  0.00     0.364 C 
HETATM    8  C13 UNL     1      79.287  27.617  39.059  1.00  0.00     0.189 C 
HETATM    9  O2  UNL     1      79.708  29.460  41.167  1.00  0.00    -0.238 OA
HETATM   10  C14 UNL     1      79.394  28.232  37.672  1.00  0.00     0.056 C 
BRANCH   7  11
HETATM   11  O1  UNL     1      77.528  30.058  41.360  1.00  0.00    -0.309 OA
HETATM   12  C1  UNL     1      76.706  30.982  40.673  1.00  0.00     0.215 C 
ENDBRANCH   7  11
ENDBRANCH   2   3
BRANCH   2  13
HETATM   13  O3  UNL     1      79.526  24.288  38.442  1.00  0.00    -0.343 OA
ATOM     14  H3  UNL     1      80.249  23.695  38.613  1.00  0.00     0.219 HD
ENDBRANCH   2  13
ENDBRANCH   1   2
BRANCH   1  15
HETATM   15  N3  UNL     1      79.767  23.309  40.783  1.00  0.00    -0.382 N 
ATOM     16  H32 UNL     1      79.185  22.503  41.010  1.00  0.00     0.157 HD
ATOM     17  H31 UNL     1      80.768  23.236  40.600  1.00  0.00     0.157 HD
ENDBRANCH   1  15
BRANCH   1  18
HETATM   18  N4  UNL     1      78.881  25.214  41.881  1.00  0.00    -0.370 N 
ATOM     19  H4  UNL     1      79.547  25.265  42.652  1.00  0.00     0.161 HD
BRANCH  18  20
HETATM   20  C7  UNL     1      77.622  25.848  42.043  1.00  0.00     0.166 C 
BRANCH  20  21
HETATM   21  C8  UNL     1      77.299  26.353  43.396  1.00  0.00     0.147 C 
HETATM   22  F1  UNL     1      77.376  27.757  43.465  1.00  0.00    -0.239 F 
HETATM   23  C9  UNL     1      78.474  25.918  44.323  1.00  0.00     0.077 C 
HETATM   24  C10 UNL     1      77.866  25.949  45.662  1.00  0.00     0.275 C 
HETATM   25  N5  UNL     1      76.452  25.903  45.525  1.00  0.00     0.087 N 
HETATM   26  C11 UNL     1      75.809  27.086  46.109  1.00  0.00     0.310 C 
HETATM   27  C12 UNL     1      76.116  25.894  44.108  1.00  0.00     0.317 C 
ENDBRANCH  20  21
ENDBRANCH  18  20
ENDBRANCH   1  18
TORSDOF 8
ENDMDL
MODEL 3
REMARK VINA RESULT: -2.307765206      0.998      1.279
REMARK  8 active torsions:
REMARK  status: ('A' for Active; 'I' for Inactive)
REMARK    1  A    between atoms: O1_2  and  C2_3 
REMARK       I    between atoms: C2_3  and  N1_5 
REMARK    2  A    between atoms: N2_8  and  C5_9 
REMARK    3  A    between atoms: C5_9  and  O3_10 
REMARK    4  A    between atoms: C5_9  and  C6_12 
REMARK    5  A    between atoms: C6_12  and  N3_13 
REMARK    6  A    between atoms: C6_12  and  N4_16 
REMARK    7  A    between atoms: N4_16  and  C7_18 
REMARK    8  A    between atoms: C7_18  and  C8_19 
ROOT
HETATM    1  C6  UNL     1      78.618  25.465  40.391  1.00  0.00     0.146 C 
ENDROOT
BRANCH   1   2
HETATM    2  C5  UNL     1      78.018  26.464  39.579  1.00  0.00     0.184 C 
BRANCH   2   3
HETATM    3  N2  UNL     1      78.211  27.847  39.654  1.00  0.00    -0.336 N 
HETATM    4  C4  UNL     1      78.353  28.739  38.469  1.00  0.00     0.147 C 
HETATM    5  C3  UNL     1      77.864  30.062  38.923  1.00  0.00     0.150 C 
HETATM    6  N1  UNL     1      77.391  29.825  40.257  1.00  0.00    -0.305 N 
HETATM    7  C2  UNL     1      76.374  30.395  41.033  1.00  0.00     0.364 C 
HETATM    8  C13 UNL     1      78.272  28.734  40.755  1.00  0.00     0.189 C 
HETATM    9  O2  UNL     1      76.177  29.975  42.200  1.00  0.00    -0.238 OA
HETATM   10  C14 UNL     1      79.626  29.405  40.934  1.00  0.00     0.056 C 
BRANCH   7  11
HETATM   11  O1  UNL     1      75.592  31.402  40.536  1.00  0.00    -0.309 OA
HETATM   12  C1  UNL     1      74.713  31.260  39.437  1.00  0.00     0.215 C 
ENDBRANCH   7  11
ENDBRANCH   2   3
BRANCH   2  13
HETATM   13  O3  UNL     1      77.190  26.013  38.665  1.00  0.00    -0.343 OA
ATOM     14  H3  UNL     1      77.489  25.300  38.112  1.00  0.00     0.219 HD
ENDBRANCH   2  13
ENDBRANCH   1   2
BRANCH   1  15
HETATM   15  N3  UNL     1      79.438  24.641  39.773  1.00  0.00    -0.382 N 
ATOM     16  H32 UNL     1      80.266  24.983  39.286  1.00  0.00     0.157 HD
ATOM     17  H31 UNL     1      79.184  23.654  39.808  1.00  0.00     0.157 HD
ENDBRANCH   1  15
BRANCH   1  18
HETATM   18  N4  UNL     1      78.376  25.356  41.769  1.00  0.00    -0.370 N 
ATOM     19  H4  UNL     1      79.175  25.227  42.389  1.00  0.00     0.161 HD
BRANCH  18  20
HETATM   20  C7  UNL     1      77.082  25.416  42.348  1.00  0.00     0.166 C 
BRANCH  20  21
HETATM   21  C8  UNL     1      76.963  26.122  43.642  1.00  0.00     0.147 C 
HETATM   22  F1  UNL     1      77.170  27.507  43.505  1.00  0.00    -0.239 F 
HETATM   23  C9  UNL     1      78.195  25.693  44.496  1.00  0.00     0.077 C 
HETATM   24  C10 UNL     1      77.752  25.960  45.872  1.00  0.00     0.275 C 
HETATM   25  N5  UNL     1      76.332  26.041  45.889  1.00  0.00     0.087 N 
HETATM   26  C11 UNL     1      75.867  27.350  46.364  1.00  0.00     0.310 C 
HETATM   27  C12 UNL     1      75.835  25.883  44.529  1.00  0.00     0.317 C 
ENDBRANCH  20  21
ENDBRANCH  18  20
ENDBRANCH   1  18
TORSDOF 8
ENDMDL
MODEL 4
REMARK VINA RESULT: -1.887234264      2.452      4.931
REMARK  8 active torsions:
REMARK  status: ('A' for Active; 'I' for Inactive)
REMARK    1  A    between atoms: O1_2  and  C2_3 
REMARK       I    between atoms: C2_3  and  N1_5 
REMARK    2  A    between atoms: N2_8  and  C5_9 
REMARK    3  A    between atoms: C5_9  and  O3_10 
REMARK    4  A    between atoms: C5_9  and  C6_12 
REMARK    5  A    between atoms: C6_12  and  N3_13 
REMARK    6  A    between atoms: C6_12  and  N4_16 
REMARK    7  A    between atoms: N4_16  and  C7_18 
REMARK    8  A    between atoms: C7_18  and  C8_19 
ROOT
HETATM    1  C6  UNL     1      78.950  27.453  38.485  1.00  0.00     0.146 C 
ENDROOT
BRANCH   1   2
HETATM    2  C5  UNL     1      78.364  26.471  39.328  1.00  0.00     0.184 C 
BRANCH   2   3
HETATM    3  N2  UNL     1      78.569  26.301  40.701  1.00  0.00    -0.336 N 
HETATM    4  C4  UNL     1      79.063  27.371  41.614  1.00  0.00     0.147 C 
HETATM    5  C3  UNL     1      78.505  27.029  42.943  1.00  0.00     0.150 C 
HETATM    6  N1  UNL     1      77.671  25.889  42.695  1.00  0.00    -0.305 N 
HETATM    7  C2  UNL     1      76.494  25.410  43.284  1.00  0.00     0.364 C 
HETATM    8  C13 UNL     1      78.346  25.199  41.561  1.00  0.00     0.189 C 
HETATM    9  O2  UNL     1      75.967  24.358  42.846  1.00  0.00    -0.238 OA
HETATM   10  C14 UNL     1      79.614  24.629  42.177  1.00  0.00     0.056 C 
BRANCH   7  11
HETATM   11  O1  UNL     1      75.913  26.073  44.330  1.00  0.00    -0.309 OA
HETATM   12  C1  UNL     1      76.411  26.067  45.654  1.00  0.00     0.215 C 
ENDBRANCH   7  11
ENDBRANCH   2   3
BRANCH   2  13
HETATM   13  O3  UNL     1      77.545  25.640  38.727  1.00  0.00    -0.343 OA
ATOM     14  H3  UNL     1      77.905  24.819  38.409  1.00  0.00     0.219 HD
ENDBRANCH   2  13
ENDBRANCH   1   2
BRANCH   1  15
HETATM   15  N3  UNL     1      80.262  27.410  38.382  1.00  0.00    -0.382 N 
ATOM     16  H32 UNL     1      80.829  26.884  39.046  1.00  0.00     0.157 HD
ATOM     17  H31 UNL     1      80.663  27.939  37.608  1.00  0.00     0.157 HD
ENDBRANCH   1  15
BRANCH   1  18
HETATM   18  N4  UNL     1      78.194  28.407  37.789  1.00  0.00    -0.370 N 
ATOM     19  H4  UNL     1      77.852  28.165  36.859  1.00  0.00     0.161 HD
BRANCH  18  20
HETATM   20  C7  UNL     1      77.877  29.690  38.304  1.00  0.00     0.166 C 
BRANCH  20  21
HETATM   21  C8  UNL     1      77.030  29.731  39.517  1.00  0.00     0.147 C 
HETATM   22  F1  UNL     1      76.140  28.642  39.571  1.00  0.00    -0.239 F 
HETATM   23  C9  UNL     1      76.058  30.937  39.338  1.00  0.00     0.077 C 
HETATM   24  C10 UNL     1      75.662  31.248  40.720  1.00  0.00     0.275 C 
HETATM   25  N5  UNL     1      76.615  30.681  41.609  1.00  0.00     0.087 N 
HETATM   26  C11 UNL     1      75.998  29.715  42.526  1.00  0.00     0.310 C 
HETATM   27  C12 UNL     1      77.609  29.954  40.832  1.00  0.00     0.317 C 
ENDBRANCH  20  21
ENDBRANCH  18  20
ENDBRANCH   1  18
TORSDOF 8
ENDMDL
MODEL 5
REMARK VINA RESULT: -1.882715957      1.718      4.295
REMARK  8 active torsions:
REMARK  status: ('A' for Active; 'I' for Inactive)
REMARK    1  A    between atoms: O1_2  and  C2_3 
REMARK       I    between atoms: C2_3  and  N1_5 
REMARK    2  A    between atoms: N2_8  and  C5_9 
REMARK    3  A    between atoms: C5_9  and  O3_10 
REMARK    4  A    between atoms: C5_9  and  C6_12 
REMARK    5  A    between atoms: C6_12  and  N3_13 
REMARK    6  A    between atoms: C6_12  and  N4_16 
REMARK    7  A    between atoms: N4_16  and  C7_18 
REMARK    8  A    between atoms: C7_18  and  C8_19 
ROOT
HETATM    1  C6  UNL     1      76.525  30.209  41.120  1.00  0.00     0.146 C 
ENDROOT
BRANCH   1   2
HETATM    2  C5  UNL     1      76.654  29.774  39.774  1.00  0.00     0.184 C 
BRANCH   2   3
HETATM    3  N2  UNL     1      77.726  29.079  39.207  1.00  0.00    -0.336 N 
HETATM    4  C4  UNL     1      79.151  29.268  39.601  1.00  0.00     0.147 C 
HETATM    5  C3  UNL     1      79.805  27.971  39.310  1.00  0.00     0.150 C 
HETATM    6  N1  UNL     1      78.732  27.121  38.884  1.00  0.00    -0.305 N 
HETATM    7  C2  UNL     1      78.497  25.743  38.984  1.00  0.00     0.364 C 
HETATM    8  C13 UNL     1      77.778  28.057  38.228  1.00  0.00     0.189 C 
HETATM    9  O2  UNL     1      77.439  25.260  38.511  1.00  0.00    -0.238 OA
HETATM   10  C14 UNL     1      78.486  28.465  36.945  1.00  0.00     0.056 C 
BRANCH   7  11
HETATM   11  O1  UNL     1      79.405  24.919  39.590  1.00  0.00    -0.309 OA
HETATM   12  C1  UNL     1      79.281  24.428  40.911  1.00  0.00     0.215 C 
ENDBRANCH   7  11
ENDBRANCH   2   3
BRANCH   2  13
HETATM   13  O3  UNL     1      75.641  30.074  38.994  1.00  0.00    -0.343 OA
ATOM     14  H3  UNL     1      75.773  30.752  38.341  1.00  0.00     0.219 HD
ENDBRANCH   2  13
ENDBRANCH   1   2
BRANCH   1  15
HETATM   15  N3  UNL     1      76.161  31.464  41.284  1.00  0.00    -0.382 N 
ATOM     16  H32 UNL     1      76.797  32.232  41.071  1.00  0.00     0.157 HD
ATOM     17  H31 UNL     1      75.218  31.608  41.643  1.00  0.00     0.157 HD
ENDBRANCH   1  15
BRANCH   1  18
HETATM   18  N4  UNL     1      76.754  29.366  42.218  1.00  0.00    -0.370 N 
ATOM     19  H4  UNL     1      76.215  29.526  43.068  1.00  0.00     0.161 HD
BRANCH  18  20
HETATM   20  C7  UNL     1      77.693  28.303  42.212  1.00  0.00     0.166 C 
BRANCH  20  21
HETATM   21  C8  UNL     1      77.560  27.290  43.282  1.00  0.00     0.147 C 
HETATM   22  F1  UNL     1      78.792  27.021  43.906  1.00  0.00    -0.239 F 
HETATM   23  C9  UNL     1      77.253  25.935  42.574  1.00  0.00     0.077 C 
HETATM   24  C10 UNL     1      76.614  25.144  43.637  1.00  0.00     0.275 C 
HETATM   25  N5  UNL     1      76.146  26.029  44.647  1.00  0.00     0.087 N 
HETATM   26  C11 UNL     1      76.766  25.746  45.947  1.00  0.00     0.310 C 
HETATM   27  C12 UNL     1      76.515  27.391  44.288  1.00  0.00     0.317 C 
ENDBRANCH  20  21
ENDBRANCH  18  20
ENDBRANCH   1  18
TORSDOF 8
ENDMDL
