MODEL 1
REMARK VINA RESULT: -1.857729172      0.000      0.000
REMARK  3 active torsions:
REMARK  status: ('A' for Active; 'I' for Inactive)
REMARK    1  A    between atoms: C2_2  and  C3_3 
REMARK       I    between atoms: C3_3  and  N1_5 
REMARK    2  A    between atoms: N1_5  and  C4_7 
REMARK    3  A    between atoms: C10_19  and  N4_20 
REMARK       I    between atoms: N4_20  and  C11_22 
ROOT
HETATM    1  C4  UNL     1      77.243  28.321  40.981  1.00  0.00     0.106 C 
HETATM    2  N2  UNL     1      77.231  28.564  42.225  1.00  0.00    -0.368 N 
HETATM    3  C5  UNL     1      76.441  29.606  42.799  1.00  0.00     0.151 C 
HETATM    4  C6  UNL     1      78.020  27.816  43.252  1.00  0.00     0.200 C 
HETATM    5  C7  UNL     1      77.279  26.549  43.509  1.00  0.00     0.307 C 
HETATM    6  F1  UNL     1      75.927  26.815  43.432  1.00  0.00    -0.207 F 
HETATM    7  C8  UNL     1      77.566  25.993  44.846  1.00  0.00     0.122 C 
HETATM    8  N3  UNL     1      77.789  25.541  45.895  1.00  0.00    -0.193 NA
HETATM    9  S1  UNL     1      77.660  25.277  42.334  1.00  0.00     0.200 S 
HETATM   10  O2  UNL     1      79.031  24.719  42.589  1.00  0.00    -0.223 OA
HETATM   11  O3  UNL     1      76.632  24.186  42.517  1.00  0.00    -0.223 OA
HETATM   12  C9  UNL     1      77.536  25.850  40.672  1.00  0.00     0.178 C 
HETATM   13  C10 UNL     1      78.111  27.190  40.431  1.00  0.00     0.167 C 
ENDROOT
BRANCH   1  14
HETATM   14  N1  UNL     1      76.509  29.024  40.073  1.00  0.00    -0.311 N 
HETATM   15  C3  UNL     1      76.166  29.206  38.740  1.00  0.00     0.245 C 
HETATM   16  O1  UNL     1      76.491  28.656  37.673  1.00  0.00    -0.268 OA
ATOM     17  H1  UNL     1      75.985  29.719  40.603  1.00  0.00     0.170 HD
BRANCH  15  18
HETATM   18  C2  UNL     1      75.159  30.336  38.505  1.00  0.00     0.064 C 
HETATM   19  C1  UNL     1      74.867  31.166  39.474  1.00  0.00     0.017 C 
ENDBRANCH  15  18
ENDBRANCH   1  14
BRANCH  13  20
HETATM   20  N4  UNL     1      78.389  27.349  39.039  1.00  0.00    -0.333 N 
HETATM   21  C11 UNL     1      79.606  27.873  38.539  1.00  0.00     0.329 C 
HETATM   22  N5  UNL     1      79.794  27.995  37.143  1.00  0.00    -0.040 NA
HETATM   23  O4  UNL     1      80.516  28.229  39.335  1.00  0.00    -0.251 OA
ATOM     24  H4  UNL     1      77.672  27.071  38.369  1.00  0.00     0.164 HD
ENDBRANCH  13  20
TORSDOF 3
ENDMDL
MODEL 2
REMARK VINA RESULT: -1.334260908      1.102      1.102
REMARK  3 active torsions:
REMARK  status: ('A' for Active; 'I' for Inactive)
REMARK    1  A    between atoms: C2_2  and  C3_3 
REMARK       I    between atoms: C3_3  and  N1_5 
REMARK    2  A    between atoms: N1_5  and  C4_7 
REMARK    3  A    between atoms: C10_19  and  N4_20 
REMARK       I    between atoms: N4_20  and  C11_22 
ROOT
HETATM    1  C4  UNL     1      77.215  28.546  41.486  1.00  0.00     0.106 C 
HETATM    2  N2  UNL     1      76.839  28.635  42.693  1.00  0.00    -0.368 N 
HETATM    3  C5  UNL     1      75.764  29.480  43.106  1.00  0.00     0.151 C 
HETATM    4  C6  UNL     1      77.449  27.889  43.837  1.00  0.00     0.200 C 
HETATM    5  C7  UNL     1      76.890  26.509  43.782  1.00  0.00     0.307 C 
HETATM    6  F1  UNL     1      75.580  26.589  43.357  1.00  0.00    -0.207 F 
HETATM    7  C8  UNL     1      76.909  25.844  45.100  1.00  0.00     0.122 C 
HETATM    8  N3  UNL     1      76.925  25.306  46.132  1.00  0.00    -0.193 NA
HETATM    9  S1  UNL     1      77.771  25.453  42.664  1.00  0.00     0.200 S 
HETATM   10  O2  UNL     1      79.103  25.068  43.243  1.00  0.00    -0.223 OA
HETATM   11  O3  UNL     1      76.930  24.214  42.472  1.00  0.00    -0.223 OA
HETATM   12  C9  UNL     1      77.989  26.197  41.081  1.00  0.00     0.178 C 
HETATM   13  C10 UNL     1      78.374  27.623  41.111  1.00  0.00     0.167 C 
ENDROOT
BRANCH   1  14
HETATM   14  N1  UNL     1      76.636  29.243  40.467  1.00  0.00    -0.311 N 
HETATM   15  C3  UNL     1      76.818  30.064  39.363  1.00  0.00     0.245 C 
HETATM   16  O1  UNL     1      77.809  30.560  38.800  1.00  0.00    -0.268 OA
ATOM     17  H1  UNL     1      75.630  29.095  40.554  1.00  0.00     0.170 HD
BRANCH  15  18
HETATM   18  C2  UNL     1      75.515  30.467  38.664  1.00  0.00     0.064 C 
HETATM   19  C1  UNL     1      74.612  31.159  39.310  1.00  0.00     0.017 C 
ENDBRANCH  15  18
ENDBRANCH   1  14
BRANCH  13  20
HETATM   20  N4  UNL     1      78.973  27.985  39.866  1.00  0.00    -0.333 N 
HETATM   21  C11 UNL     1      78.972  27.149  38.725  1.00  0.00     0.329 C 
HETATM   22  N5  UNL     1      79.591  27.590  37.533  1.00  0.00    -0.040 NA
HETATM   23  O4  UNL     1      78.423  26.015  38.771  1.00  0.00    -0.251 OA
ATOM     24  H4  UNL     1      79.427  28.896  39.797  1.00  0.00     0.164 HD
ENDBRANCH  13  20
TORSDOF 3
ENDMDL
MODEL 3
REMARK VINA RESULT: 1.124639877      0.952      1.130
REMARK  3 active torsions:
REMARK  status: ('A' for Active; 'I' for Inactive)
REMARK    1  A    between atoms: C2_2  and  C3_3 
REMARK       I    between atoms: C3_3  and  N1_5 
REMARK    2  A    between atoms: N1_5  and  C4_7 
REMARK    3  A    between atoms: C10_19  and  N4_20 
REMARK       I    between atoms: N4_20  and  C11_22 
ROOT
HETATM    1  C4  UNL     1      77.519  28.017  41.008  1.00  0.00     0.106 C 
HETATM    2  N2  UNL     1      77.432  28.331  42.233  1.00  0.00    -0.368 N 
HETATM    3  C5  UNL     1      76.680  29.455  42.689  1.00  0.00     0.151 C 
HETATM    4  C6  UNL     1      78.087  27.590  43.354  1.00  0.00     0.200 C 
HETATM    5  C7  UNL     1      77.239  26.394  43.618  1.00  0.00     0.307 C 
HETATM    6  F1  UNL     1      75.920  26.747  43.422  1.00  0.00    -0.207 F 
HETATM    7  C8  UNL     1      77.385  25.896  45.000  1.00  0.00     0.122 C 
HETATM    8  N3  UNL     1      77.496  25.490  46.085  1.00  0.00    -0.193 NA
HETATM    9  S1  UNL     1      77.613  25.034  42.543  1.00  0.00     0.200 S 
HETATM   10  O2  UNL     1      78.918  24.399  42.933  1.00  0.00    -0.223 OA
HETATM   11  O3  UNL     1      76.498  24.028  42.701  1.00  0.00    -0.223 OA
HETATM   12  C9  UNL     1      77.655  25.519  40.849  1.00  0.00     0.178 C 
HETATM   13  C10 UNL     1      78.342  26.800  40.585  1.00  0.00     0.167 C 
ENDROOT
BRANCH   1  14
HETATM   14  N1  UNL     1      76.908  28.716  40.009  1.00  0.00    -0.311 N 
HETATM   15  C3  UNL     1      76.121  29.805  39.660  1.00  0.00     0.245 C 
HETATM   16  O1  UNL     1      75.579  30.727  40.293  1.00  0.00    -0.268 OA
ATOM     17  H1  UNL     1      77.123  28.226  39.142  1.00  0.00     0.170 HD
BRANCH  15  18
HETATM   18  C2  UNL     1      75.840  29.915  38.158  1.00  0.00     0.064 C 
HETATM   19  C1  UNL     1      76.433  29.103  37.319  1.00  0.00     0.017 C 
ENDBRANCH  15  18
ENDBRANCH   1  14
BRANCH  13  20
HETATM   20  N4  UNL     1      78.733  26.861  39.213  1.00  0.00    -0.333 N 
HETATM   21  C11 UNL     1      79.561  27.878  38.680  1.00  0.00     0.329 C 
HETATM   22  N5  UNL     1      79.898  27.858  37.307  1.00  0.00    -0.040 NA
HETATM   23  O4  UNL     1      79.995  28.797  39.425  1.00  0.00    -0.251 OA
ATOM     24  H4  UNL     1      78.398  26.132  38.584  1.00  0.00     0.164 HD
ENDBRANCH  13  20
TORSDOF 3
ENDMDL
MODEL 4
REMARK VINA RESULT: 1.287228646      2.679      5.404
REMARK  3 active torsions:
REMARK  status: ('A' for Active; 'I' for Inactive)
REMARK    1  A    between atoms: C2_2  and  C3_3 
REMARK       I    between atoms: C3_3  and  N1_5 
REMARK    2  A    between atoms: N1_5  and  C4_7 
REMARK    3  A    between atoms: C10_19  and  N4_20 
REMARK       I    between atoms: N4_20  and  C11_22 
ROOT
HETATM    1  C4  UNL     1      77.687  26.836  41.013  1.00  0.00     0.106 C 
HETATM    2  N2  UNL     1      77.137  27.697  41.763  1.00  0.00    -0.368 N 
HETATM    3  C5  UNL     1      77.327  27.721  43.178  1.00  0.00     0.151 C 
HETATM    4  C6  UNL     1      76.229  28.788  41.292  1.00  0.00     0.200 C 
HETATM    5  C7  UNL     1      77.109  29.856  40.741  1.00  0.00     0.307 C 
HETATM    6  F1  UNL     1      78.257  29.908  41.504  1.00  0.00    -0.207 F 
HETATM    7  C8  UNL     1      76.468  31.186  40.777  1.00  0.00     0.122 C 
HETATM    8  N3  UNL     1      75.971  32.238  40.795  1.00  0.00    -0.193 NA
HETATM    9  S1  UNL     1      77.579  29.562  39.056  1.00  0.00     0.200 S 
HETATM   10  O2  UNL     1      76.419  29.814  38.136  1.00  0.00    -0.223 OA
HETATM   11  O3  UNL     1      78.694  30.527  38.734  1.00  0.00    -0.223 OA
HETATM   12  C9  UNL     1      78.202  27.931  38.817  1.00  0.00     0.178 C 
HETATM   13  C10 UNL     1      77.442  26.867  39.505  1.00  0.00     0.167 C 
ENDROOT
BRANCH   1  14
HETATM   14  N1  UNL     1      78.511  25.854  41.477  1.00  0.00    -0.311 N 
HETATM   15  C3  UNL     1      78.642  24.715  42.259  1.00  0.00     0.245 C 
HETATM   16  O1  UNL     1      77.868  24.051  42.970  1.00  0.00    -0.268 OA
ATOM     17  H1  UNL     1      79.429  26.034  41.074  1.00  0.00     0.170 HD
BRANCH  15  18
HETATM   18  C2  UNL     1      80.056  24.124  42.267  1.00  0.00     0.064 C 
HETATM   19  C1  UNL     1      80.256  22.897  41.855  1.00  0.00     0.017 C 
ENDBRANCH  15  18
ENDBRANCH   1  14
BRANCH  13  20
HETATM   20  N4  UNL     1      77.712  25.608  38.887  1.00  0.00    -0.333 N 
HETATM   21  C11 UNL     1      79.010  25.180  38.516  1.00  0.00     0.329 C 
HETATM   22  N5  UNL     1      79.183  23.916  37.909  1.00  0.00    -0.040 NA
HETATM   23  O4  UNL     1      80.005  25.924  38.727  1.00  0.00    -0.251 OA
ATOM     24  H4  UNL     1      76.927  24.983  38.702  1.00  0.00     0.164 HD
ENDBRANCH  13  20
TORSDOF 3
ENDMDL
