MODEL 1
REMARK VINA RESULT: -0.658583682      0.000      0.000
REMARK  5 active torsions:
REMARK  status: ('A' for Active; 'I' for Inactive)
REMARK       I    between atoms: C2_5  and  N4_7 
REMARK    1  A    between atoms: N5_10  and  C5_11 
REMARK    2  A    between atoms: C5_11  and  O1_12 
REMARK    3  A    between atoms: C5_11  and  C6_14 
REMARK    4  A    between atoms: C6_14  and  C7_15 
REMARK    5  A    between atoms: C11_22  and  C12_23 
ROOT
HETATM    1  N1  UNL     1      73.744  29.880  38.292  1.00  0.00    -0.172 NA
HETATM    2  C1  UNL     1      74.537  30.417  38.965  1.00  0.00     0.184 C 
HETATM    3  N2  UNL     1      75.421  31.061  39.736  1.00  0.00    -0.267 N 
ATOM      4  H2  UNL     1      75.171  32.034  39.915  1.00  0.00     0.180 HD
HETATM    5  C2  UNL     1      76.484  30.715  40.277  1.00  0.00     0.200 C 
HETATM    6  N3  UNL     1      77.127  31.789  41.046  1.00  0.00    -0.063 NA
HETATM    7  N4  UNL     1      77.154  29.491  40.282  1.00  0.00    -0.339 N 
HETATM    8  C3  UNL     1      78.025  29.209  41.442  1.00  0.00     0.146 C 
HETATM    9  C4  UNL     1      77.285  28.159  42.218  1.00  0.00     0.144 C 
HETATM   10  N5  UNL     1      77.155  26.990  41.329  1.00  0.00    -0.360 N 
HETATM   11  C10 UNL     1      76.922  27.068  39.924  1.00  0.00     0.159 C 
HETATM   12  C11 UNL     1      77.111  28.443  39.312  1.00  0.00     0.194 C 
ENDROOT
BRANCH  12  13
HETATM   13  C12 UNL     1      78.437  28.453  38.601  1.00  0.00     0.255 C 
HETATM   14  N7  UNL     1      79.555  27.653  39.020  1.00  0.00    -0.060 NA
HETATM   15  O3  UNL     1      78.647  29.176  37.575  1.00  0.00    -0.275 OA
ENDBRANCH  12  13
BRANCH  10  16
HETATM   16  C5  UNL     1      77.451  25.748  41.928  1.00  0.00     0.134 C 
BRANCH  16  17
HETATM   17  O1  UNL     1      76.480  24.878  42.027  1.00  0.00    -0.348 OA
ATOM     18  H1  UNL     1      76.515  24.261  42.749  1.00  0.00     0.219 HD
ENDBRANCH  16  17
BRANCH  16  19
HETATM   19  C6  UNL     1      78.713  25.253  42.493  1.00  0.00     0.136 A 
HETATM   20  C8  UNL     1      79.670  26.273  43.057  1.00  0.00     0.069 A 
HETATM   21  C9  UNL     1      78.874  25.382  43.999  1.00  0.00     0.197 A 
HETATM   22  F1  UNL     1      77.911  26.046  44.732  1.00  0.00    -0.248 F 
BRANCH  19  23
HETATM   23  C7  UNL     1      79.424  24.162  41.790  1.00  0.00     0.251 C 
HETATM   24  N6  UNL     1      79.551  24.191  40.395  1.00  0.00    -0.061 NA
HETATM   25  O2  UNL     1      79.930  23.176  42.416  1.00  0.00    -0.275 OA
ENDBRANCH  19  23
ENDBRANCH  16  19
ENDBRANCH  10  16
TORSDOF 5
ENDMDL
MODEL 2
REMARK VINA RESULT: -0.538341821      2.450      4.714
REMARK  5 active torsions:
REMARK  status: ('A' for Active; 'I' for Inactive)
REMARK       I    between atoms: C2_5  and  N4_7 
REMARK    1  A    between atoms: N5_10  and  C5_11 
REMARK    2  A    between atoms: C5_11  and  O1_12 
REMARK    3  A    between atoms: C5_11  and  C6_14 
REMARK    4  A    between atoms: C6_14  and  C7_15 
REMARK    5  A    between atoms: C11_22  and  C12_23 
ROOT
HETATM    1  N1  UNL     1      81.805  28.240  38.590  1.00  0.00    -0.172 NA
HETATM    2  C1  UNL     1      81.060  27.358  38.398  1.00  0.00     0.184 C 
HETATM    3  N2  UNL     1      80.235  26.332  38.162  1.00  0.00    -0.267 N 
ATOM      4  H2  UNL     1      80.644  25.609  37.569  1.00  0.00     0.180 HD
HETATM    5  C2  UNL     1      79.072  26.080  38.517  1.00  0.00     0.200 C 
HETATM    6  N3  UNL     1      78.564  24.802  38.000  1.00  0.00    -0.063 NA
HETATM    7  N4  UNL     1      78.184  26.796  39.321  1.00  0.00    -0.339 N 
HETATM    8  C3  UNL     1      77.151  26.017  40.036  1.00  0.00     0.146 C 
HETATM    9  C4  UNL     1      77.585  26.051  41.472  1.00  0.00     0.144 C 
HETATM   10  N5  UNL     1      77.587  27.468  41.880  1.00  0.00    -0.360 N 
HETATM   11  C10 UNL     1      77.987  28.548  41.037  1.00  0.00     0.159 C 
HETATM   12  C11 UNL     1      78.133  28.202  39.567  1.00  0.00     0.194 C 
ENDROOT
BRANCH  12  13
HETATM   13  C12 UNL     1      76.922  28.727  38.847  1.00  0.00     0.255 C 
HETATM   14  N7  UNL     1      75.940  29.567  39.477  1.00  0.00    -0.060 NA
HETATM   15  O3  UNL     1      76.695  28.458  37.624  1.00  0.00    -0.275 OA
ENDBRANCH  12  13
BRANCH  10  16
HETATM   16  C5  UNL     1      76.995  27.731  43.132  1.00  0.00     0.134 C 
BRANCH  16  17
HETATM   17  O1  UNL     1      76.535  28.936  43.343  1.00  0.00    -0.348 OA
ATOM     18  H1  UNL     1      76.572  29.271  44.231  1.00  0.00     0.219 HD
ENDBRANCH  16  17
BRANCH  16  19
HETATM   19  C6  UNL     1      76.811  26.846  44.289  1.00  0.00     0.136 A 
HETATM   20  C8  UNL     1      76.991  25.365  44.069  1.00  0.00     0.069 A 
HETATM   21  C9  UNL     1      78.058  26.154  44.814  1.00  0.00     0.197 A 
HETATM   22  F1  UNL     1      79.250  26.288  44.129  1.00  0.00    -0.248 F 
BRANCH  19  23
HETATM   23  C7  UNL     1      75.704  27.131  45.229  1.00  0.00     0.251 C 
HETATM   24  N6  UNL     1      75.784  26.705  46.561  1.00  0.00    -0.061 NA
HETATM   25  O2  UNL     1      74.657  27.757  44.863  1.00  0.00    -0.275 OA
ENDBRANCH  19  23
ENDBRANCH  16  19
ENDBRANCH  10  16
TORSDOF 5
ENDMDL
MODEL 3
REMARK VINA RESULT: -0.322581144      1.230      1.259
REMARK  5 active torsions:
REMARK  status: ('A' for Active; 'I' for Inactive)
REMARK       I    between atoms: C2_5  and  N4_7 
REMARK    1  A    between atoms: N5_10  and  C5_11 
REMARK    2  A    between atoms: C5_11  and  O1_12 
REMARK    3  A    between atoms: C5_11  and  C6_14 
REMARK    4  A    between atoms: C6_14  and  C7_15 
REMARK    5  A    between atoms: C11_22  and  C12_23 
ROOT
HETATM    1  N1  UNL     1      73.607  29.859  38.407  1.00  0.00    -0.172 NA
HETATM    2  C1  UNL     1      74.391  30.378  39.104  1.00  0.00     0.184 C 
HETATM    3  N2  UNL     1      75.262  30.997  39.910  1.00  0.00    -0.267 N 
ATOM      4  H2  UNL     1      74.900  31.862  40.311  1.00  0.00     0.180 HD
HETATM    5  C2  UNL     1      76.421  30.731  40.268  1.00  0.00     0.200 C 
HETATM    6  N3  UNL     1      76.994  31.727  41.185  1.00  0.00    -0.063 NA
HETATM    7  N4  UNL     1      77.254  29.656  39.956  1.00  0.00    -0.339 N 
HETATM    8  C3  UNL     1      78.290  29.301  40.948  1.00  0.00     0.146 C 
HETATM    9  C4  UNL     1      77.806  28.014  41.550  1.00  0.00     0.144 C 
HETATM   10  N5  UNL     1      77.737  27.034  40.450  1.00  0.00    -0.360 N 
HETATM   11  C10 UNL     1      77.326  27.344  39.119  1.00  0.00     0.159 C 
HETATM   12  C11 UNL     1      77.243  28.823  38.796  1.00  0.00     0.194 C 
ENDROOT
BRANCH  12  13
HETATM   13  C12 UNL     1      78.458  29.188  37.987  1.00  0.00     0.255 C 
HETATM   14  N7  UNL     1      79.463  28.231  37.612  1.00  0.00    -0.060 NA
HETATM   15  O3  UNL     1      78.666  30.376  37.581  1.00  0.00    -0.275 OA
ENDBRANCH  12  13
BRANCH  10  16
HETATM   16  C5  UNL     1      78.276  25.765  40.746  1.00  0.00     0.134 C 
BRANCH  16  17
HETATM   17  O1  UNL     1      78.565  24.981  39.741  1.00  0.00    -0.348 OA
ATOM     18  H1  UNL     1      77.851  24.708  39.177  1.00  0.00     0.219 HD
ENDBRANCH  16  17
BRANCH  16  19
HETATM   19  C6  UNL     1      78.568  25.147  42.046  1.00  0.00     0.136 A 
HETATM   20  C8  UNL     1      78.577  26.046  43.257  1.00  0.00     0.069 A 
HETATM   21  C9  UNL     1      77.417  25.086  43.037  1.00  0.00     0.197 A 
HETATM   22  F1  UNL     1      76.220  25.700  42.728  1.00  0.00    -0.248 F 
BRANCH  19  23
HETATM   23  C7  UNL     1      79.628  24.117  42.118  1.00  0.00     0.251 C 
HETATM   24  N6  UNL     1      79.504  22.928  41.388  1.00  0.00    -0.061 NA
HETATM   25  O2  UNL     1      80.668  24.273  42.836  1.00  0.00    -0.275 OA
ENDBRANCH  19  23
ENDBRANCH  16  19
ENDBRANCH  10  16
TORSDOF 5
ENDMDL
MODEL 4
REMARK VINA RESULT: -0.000074067      2.949      6.425
REMARK  5 active torsions:
REMARK  status: ('A' for Active; 'I' for Inactive)
REMARK       I    between atoms: C2_5  and  N4_7 
REMARK    1  A    between atoms: N5_10  and  C5_11 
REMARK    2  A    between atoms: C5_11  and  O1_12 
REMARK    3  A    between atoms: C5_11  and  C6_14 
REMARK    4  A    between atoms: C6_14  and  C7_15 
REMARK    5  A    between atoms: C11_22  and  C12_23 
ROOT
HETATM    1  N1  UNL     1      80.235  25.607  46.777  1.00  0.00    -0.172 NA
HETATM    2  C1  UNL     1      79.073  25.664  46.645  1.00  0.00     0.184 C 
HETATM    3  N2  UNL     1      77.742  25.726  46.530  1.00  0.00    -0.267 N 
ATOM      4  H2  UNL     1      77.251  25.582  47.413  1.00  0.00     0.180 HD
HETATM    5  C2  UNL     1      76.982  25.923  45.568  1.00  0.00     0.200 C 
HETATM    6  N3  UNL     1      75.558  25.903  45.930  1.00  0.00    -0.063 NA
HETATM    7  N4  UNL     1      77.253  26.166  44.220  1.00  0.00    -0.339 N 
HETATM    8  C3  UNL     1      76.241  26.928  43.460  1.00  0.00     0.146 C 
HETATM    9  C4  UNL     1      76.872  28.272  43.240  1.00  0.00     0.144 C 
HETATM   10  N5  UNL     1      78.096  28.039  42.450  1.00  0.00    -0.360 N 
HETATM   11  C10 UNL     1      78.960  26.915  42.614  1.00  0.00     0.159 C 
HETATM   12  C11 UNL     1      78.398  25.785  43.455  1.00  0.00     0.194 C 
ENDROOT
BRANCH  12  13
HETATM   13  C12 UNL     1      77.953  24.692  42.521  1.00  0.00     0.255 C 
HETATM   14  N7  UNL     1      78.865  23.958  41.687  1.00  0.00    -0.060 NA
HETATM   15  O3  UNL     1      76.732  24.349  42.417  1.00  0.00    -0.275 OA
ENDBRANCH  12  13
BRANCH  10  16
HETATM   16  C5  UNL     1      78.288  28.926  41.371  1.00  0.00     0.134 C 
BRANCH  16  17
HETATM   17  O1  UNL     1      79.416  29.584  41.322  1.00  0.00    -0.348 OA
ATOM     18  H1  UNL     1      79.605  30.186  42.032  1.00  0.00     0.219 HD
ENDBRANCH  16  17
BRANCH  16  19
HETATM   19  C6  UNL     1      77.392  29.257  40.255  1.00  0.00     0.136 A 
HETATM   20  C8  UNL     1      77.963  29.191  38.861  1.00  0.00     0.069 A 
HETATM   21  C9  UNL     1      77.004  28.110  39.338  1.00  0.00     0.197 A 
HETATM   22  F1  UNL     1      77.586  26.870  39.515  1.00  0.00    -0.248 F 
BRANCH  19  23
HETATM   23  C7  UNL     1      76.457  30.394  40.413  1.00  0.00     0.251 C 
HETATM   24  N6  UNL     1      75.366  30.533  39.544  1.00  0.00    -0.061 NA
HETATM   25  O2  UNL     1      76.612  31.270  41.323  1.00  0.00    -0.275 OA
ENDBRANCH  19  23
ENDBRANCH  16  19
ENDBRANCH  10  16
TORSDOF 5
ENDMDL
MODEL 5
REMARK VINA RESULT: 0.311477158      1.747      2.153
REMARK  5 active torsions:
REMARK  status: ('A' for Active; 'I' for Inactive)
REMARK       I    between atoms: C2_5  and  N4_7 
REMARK    1  A    between atoms: N5_10  and  C5_11 
REMARK    2  A    between atoms: C5_11  and  O1_12 
REMARK    3  A    between atoms: C5_11  and  C6_14 
REMARK    4  A    between atoms: C6_14  and  C7_15 
REMARK    5  A    between atoms: C11_22  and  C12_23 
ROOT
HETATM    1  N1  UNL     1      73.475  29.994  38.375  1.00  0.00    -0.172 NA
HETATM    2  C1  UNL     1      74.248  30.545  39.059  1.00  0.00     0.184 C 
HETATM    3  N2  UNL     1      75.107  31.200  39.849  1.00  0.00    -0.267 N 
ATOM      4  H2  UNL     1      74.740  32.084  40.203  1.00  0.00     0.180 HD
HETATM    5  C2  UNL     1      76.260  30.951  40.238  1.00  0.00     0.200 C 
HETATM    6  N3  UNL     1      76.819  31.988  41.116  1.00  0.00    -0.063 NA
HETATM    7  N4  UNL     1      77.096  29.862  39.990  1.00  0.00    -0.339 N 
HETATM    8  C3  UNL     1      78.116  29.553  41.013  1.00  0.00     0.146 C 
HETATM    9  C4  UNL     1      77.621  28.297  41.667  1.00  0.00     0.144 C 
HETATM   10  N5  UNL     1      77.568  27.266  40.614  1.00  0.00    -0.360 N 
HETATM   11  C10 UNL     1      77.178  27.513  39.264  1.00  0.00     0.159 C 
HETATM   12  C11 UNL     1      77.102  28.975  38.870  1.00  0.00     0.194 C 
ENDROOT
BRANCH  12  13
HETATM   13  C12 UNL     1      78.330  29.301  38.064  1.00  0.00     0.255 C 
HETATM   14  N7  UNL     1      79.302  28.311  37.686  1.00  0.00    -0.060 NA
HETATM   15  O3  UNL     1      78.580  30.482  37.662  1.00  0.00    -0.275 OA
ENDBRANCH  12  13
BRANCH  10  16
HETATM   16  C5  UNL     1      78.101  26.012  40.978  1.00  0.00     0.134 C 
BRANCH  16  17
HETATM   17  O1  UNL     1      78.615  25.275  40.029  1.00  0.00    -0.348 OA
ATOM     18  H1  UNL     1      78.067  24.595  39.654  1.00  0.00     0.219 HD
ENDBRANCH  16  17
BRANCH  16  19
HETATM   19  C6  UNL     1      78.166  25.364  42.294  1.00  0.00     0.136 A 
HETATM   20  C8  UNL     1      77.720  23.926  42.385  1.00  0.00     0.069 A 
HETATM   21  C9  UNL     1      79.202  24.264  42.454  1.00  0.00     0.197 A 
HETATM   22  F1  UNL     1      79.932  23.852  41.357  1.00  0.00    -0.248 F 
BRANCH  19  23
HETATM   23  C7  UNL     1      77.760  26.142  43.486  1.00  0.00     0.251 C 
HETATM   24  N6  UNL     1      76.437  26.086  43.945  1.00  0.00    -0.061 NA
HETATM   25  O2  UNL     1      78.582  26.878  44.121  1.00  0.00    -0.275 OA
ENDBRANCH  19  23
ENDBRANCH  16  19
ENDBRANCH  10  16
TORSDOF 5
ENDMDL
