MODEL 1
REMARK VINA RESULT: -10.028386707      0.000      0.000
REMARK  6 active torsions:
REMARK  status: ('A' for Active; 'I' for Inactive)
REMARK    1  A    between atoms: N1_6  and  S1_7 
REMARK    2  A    between atoms: S1_7  and  C6_10 
REMARK    3  A    between atoms: N2_16  and  C12_17 
REMARK    4  A    between atoms: C12_17  and  C13_18 
REMARK       I    between atoms: C13_18  and  N3_20 
REMARK    5  A    between atoms: N3_20  and  C14_22 
REMARK    6  A    between atoms: C14_22  and  C15_23 
ROOT
HETATM    1  C6  UNL     1      16.792 129.128  -3.230  1.00  0.00     0.076 A 
HETATM    2  C7  UNL     1      16.301 127.853  -3.364  1.00  0.00     0.026 A 
HETATM    3  C8  UNL     1      15.392 127.583  -4.404  1.00  0.00     0.022 A 
HETATM    4  C9  UNL     1      15.000 128.536  -5.259  1.00  0.00     0.027 A 
HETATM    5  C10 UNL     1      15.496 129.823  -5.125  1.00  0.00     0.049 A 
HETATM    6  C11 UNL     1      16.387 130.116  -4.116  1.00  0.00     0.055 A 
HETATM    7  N2  UNL     1      15.083 130.838  -6.025  1.00  0.00    -0.370 N 
HETATM    8  C21 UNL     1      14.792 130.651  -7.403  1.00  0.00     0.134 C 
HETATM    9  C22 UNL     1      14.418 129.335  -7.927  1.00  0.00     0.099 C 
HETATM   10  S2  UNL     1      13.884 128.240  -6.584  1.00  0.00    -0.126 SA
ENDROOT
BRANCH   7  11
HETATM   11  C12 UNL     1      14.959 132.184  -5.497  1.00  0.00     0.225 C 
BRANCH  11  12
HETATM   12  C13 UNL     1      15.779 133.204  -6.175  1.00  0.00     0.235 C 
HETATM   13  O3  UNL     1      17.058 133.099  -6.077  1.00  0.00    -0.272 OA
HETATM   14  N3  UNL     1      15.319 134.302  -6.928  1.00  0.00    -0.359 N 
ATOM     15  H3  UNL     1      14.311 134.423  -7.018  1.00  0.00     0.162 HD
BRANCH  14  16
HETATM   16  C14 UNL     1      16.159 135.256  -7.573  1.00  0.00     0.127 C 
BRANCH  16  17
HETATM   17  C15 UNL     1      15.786 135.604  -8.992  1.00  0.00     0.003 C 
HETATM   18  C16 UNL     1      14.304 135.825  -9.014  1.00  0.00     0.006 C 
HETATM   19  C17 UNL     1      13.834 136.640 -10.185  1.00  0.00     0.000 C 
HETATM   20  C18 UNL     1      14.495 138.018 -10.033  1.00  0.00     0.000 C 
HETATM   21  C19 UNL     1      15.965 137.769 -10.290  1.00  0.00     0.000 C 
HETATM   22  C20 UNL     1      16.597 136.800  -9.376  1.00  0.00     0.006 C 
ENDBRANCH  16  17
ENDBRANCH  14  16
ENDBRANCH  11  12
ENDBRANCH   7  11
BRANCH   1  23
HETATM   23  S1  UNL     1      17.918 129.448  -1.932  1.00  0.00     0.243 S 
HETATM   24  O1  UNL     1      17.822 128.410  -0.850  1.00  0.00    -0.206 OA
HETATM   25  O2  UNL     1      17.526 130.760  -1.300  1.00  0.00    -0.206 OA
BRANCH  23  26
HETATM   26  N1  UNL     1      19.514 129.607  -2.509  1.00  0.00    -0.206 NA
HETATM   27  C5  UNL     1      19.869 128.653  -3.508  1.00  0.00     0.107 C 
HETATM   28  C4  UNL     1      21.148 127.899  -3.229  1.00  0.00     0.016 C 
HETATM   29  C3  UNL     1      22.296 128.771  -2.832  1.00  0.00     0.006 C 
HETATM   30  C2  UNL     1      21.825 130.026  -2.153  1.00  0.00    -0.004 C 
HETATM   31  C1  UNL     1      22.810 130.606  -1.184  1.00  0.00     0.011 C 
HETATM   32  C23 UNL     1      20.503 129.669  -1.462  1.00  0.00     0.111 C 
ENDBRANCH  23  26
ENDBRANCH   1  23
TORSDOF 6
ENDMDL
MODEL 2
REMARK VINA RESULT: -9.634842483      1.116      1.539
REMARK  6 active torsions:
REMARK  status: ('A' for Active; 'I' for Inactive)
REMARK    1  A    between atoms: N1_6  and  S1_7 
REMARK    2  A    between atoms: S1_7  and  C6_10 
REMARK    3  A    between atoms: N2_16  and  C12_17 
REMARK    4  A    between atoms: C12_17  and  C13_18 
REMARK       I    between atoms: C13_18  and  N3_20 
REMARK    5  A    between atoms: N3_20  and  C14_22 
REMARK    6  A    between atoms: C14_22  and  C15_23 
ROOT
HETATM    1  C6  UNL     1      16.821 129.286  -3.169  1.00  0.00     0.076 A 
HETATM    2  C7  UNL     1      16.317 128.028  -3.395  1.00  0.00     0.026 A 
HETATM    3  C8  UNL     1      15.391 127.846  -4.440  1.00  0.00     0.022 A 
HETATM    4  C9  UNL     1      14.996 128.867  -5.212  1.00  0.00     0.027 A 
HETATM    5  C10 UNL     1      15.504 130.135  -4.985  1.00  0.00     0.049 A 
HETATM    6  C11 UNL     1      16.412 130.342  -3.970  1.00  0.00     0.055 A 
HETATM    7  N2  UNL     1      15.088 131.221  -5.797  1.00  0.00    -0.370 N 
HETATM    8  C21 UNL     1      14.776 131.144  -7.182  1.00  0.00     0.134 C 
HETATM    9  C22 UNL     1      14.384 129.875  -7.801  1.00  0.00     0.099 C 
HETATM   10  S2  UNL     1      13.859 128.683  -6.540  1.00  0.00    -0.126 SA
ENDROOT
BRANCH   7  11
HETATM   11  C12 UNL     1      14.983 132.522  -5.165  1.00  0.00     0.225 C 
BRANCH  11  12
HETATM   12  C13 UNL     1      14.434 133.593  -6.014  1.00  0.00     0.235 C 
HETATM   13  O3  UNL     1      13.323 134.130  -5.650  1.00  0.00    -0.272 OA
HETATM   14  N3  UNL     1      14.991 134.107  -7.202  1.00  0.00    -0.359 N 
ATOM     15  H3  UNL     1      15.866 133.697  -7.528  1.00  0.00     0.162 HD
BRANCH  14  16
HETATM   16  C14 UNL     1      14.422 135.154  -7.982  1.00  0.00     0.127 C 
BRANCH  16  17
HETATM   17  C15 UNL     1      15.347 135.807  -8.979  1.00  0.00     0.003 C 
HETATM   18  C16 UNL     1      15.956 136.995  -8.299  1.00  0.00     0.006 C 
HETATM   19  C17 UNL     1      17.234 137.464  -8.934  1.00  0.00     0.000 C 
HETATM   20  C18 UNL     1      18.227 136.301  -8.791  1.00  0.00     0.000 C 
HETATM   21  C19 UNL     1      17.697 135.228  -9.716  1.00  0.00     0.000 C 
HETATM   22  C20 UNL     1      16.331 134.767  -9.408  1.00  0.00     0.006 C 
ENDBRANCH  16  17
ENDBRANCH  14  16
ENDBRANCH  11  12
ENDBRANCH   7  11
BRANCH   1  23
HETATM   23  S1  UNL     1      17.967 129.495  -1.867  1.00  0.00     0.243 S 
HETATM   24  O1  UNL     1      17.855 128.393  -0.851  1.00  0.00    -0.206 OA
HETATM   25  O2  UNL     1      17.615 130.773  -1.149  1.00  0.00    -0.206 OA
BRANCH  23  26
HETATM   26  N1  UNL     1      19.561 129.649  -2.450  1.00  0.00    -0.206 NA
HETATM   27  C5  UNL     1      19.900 128.712  -3.470  1.00  0.00     0.107 C 
HETATM   28  C4  UNL     1      21.174 127.941  -3.215  1.00  0.00     0.016 C 
HETATM   29  C3  UNL     1      22.332 128.793  -2.807  1.00  0.00     0.006 C 
HETATM   30  C2  UNL     1      21.878 130.040  -2.101  1.00  0.00    -0.004 C 
HETATM   31  C1  UNL     1      22.875 130.591  -1.127  1.00  0.00     0.011 C 
HETATM   32  C23 UNL     1      20.557 129.681  -1.408  1.00  0.00     0.111 C 
ENDBRANCH  23  26
ENDBRANCH   1  23
TORSDOF 6
ENDMDL
MODEL 3
REMARK VINA RESULT: -9.519149247      1.570      1.835
REMARK  6 active torsions:
REMARK  status: ('A' for Active; 'I' for Inactive)
REMARK    1  A    between atoms: N1_6  and  S1_7 
REMARK    2  A    between atoms: S1_7  and  C6_10 
REMARK    3  A    between atoms: N2_16  and  C12_17 
REMARK    4  A    between atoms: C12_17  and  C13_18 
REMARK       I    between atoms: C13_18  and  N3_20 
REMARK    5  A    between atoms: N3_20  and  C14_22 
REMARK    6  A    between atoms: C14_22  and  C15_23 
ROOT
HETATM    1  C6  UNL     1      16.807 129.124  -3.052  1.00  0.00     0.076 A 
HETATM    2  C7  UNL     1      16.642 127.802  -3.385  1.00  0.00     0.026 A 
HETATM    3  C8  UNL     1      15.763 127.471  -4.433  1.00  0.00     0.022 A 
HETATM    4  C9  UNL     1      15.090 128.412  -5.107  1.00  0.00     0.027 A 
HETATM    5  C10 UNL     1      15.256 129.746  -4.773  1.00  0.00     0.049 A 
HETATM    6  C11 UNL     1      16.111 130.098  -3.752  1.00  0.00     0.055 A 
HETATM    7  N2  UNL     1      14.544 130.747  -5.481  1.00  0.00    -0.370 N 
HETATM    8  C21 UNL     1      14.219 130.708  -6.863  1.00  0.00     0.134 C 
HETATM    9  C22 UNL     1      14.152 129.436  -7.590  1.00  0.00     0.099 C 
HETATM   10  S2  UNL     1      13.998 128.047  -6.435  1.00  0.00    -0.126 SA
ENDROOT
BRANCH   7  11
HETATM   11  C12 UNL     1      14.124 131.917  -4.734  1.00  0.00     0.225 C 
BRANCH  11  12
HETATM   12  C13 UNL     1      14.588 133.209  -5.272  1.00  0.00     0.235 C 
HETATM   13  O3  UNL     1      13.758 133.888  -5.982  1.00  0.00    -0.272 OA
HETATM   14  N3  UNL     1      15.857 133.796  -5.100  1.00  0.00    -0.359 N 
ATOM     15  H3  UNL     1      16.544 133.280  -4.551  1.00  0.00     0.162 HD
BRANCH  14  16
HETATM   16  C14 UNL     1      16.250 135.056  -5.635  1.00  0.00     0.127 C 
BRANCH  16  17
HETATM   17  C15 UNL     1      17.426 135.030  -6.579  1.00  0.00     0.003 C 
HETATM   18  C16 UNL     1      16.880 134.768  -7.950  1.00  0.00     0.006 C 
HETATM   19  C17 UNL     1      17.805 135.189  -9.057  1.00  0.00     0.000 C 
HETATM   20  C18 UNL     1      17.967 136.710  -8.916  1.00  0.00     0.000 C 
HETATM   21  C19 UNL     1      18.764 136.895  -7.643  1.00  0.00     0.000 C 
HETATM   22  C20 UNL     1      18.133 136.339  -6.432  1.00  0.00     0.006 C 
ENDBRANCH  16  17
ENDBRANCH  14  16
ENDBRANCH  11  12
ENDBRANCH   7  11
BRANCH   1  23
HETATM   23  S1  UNL     1      17.901 129.517  -1.747  1.00  0.00     0.243 S 
HETATM   24  O1  UNL     1      17.853 128.485  -0.656  1.00  0.00    -0.206 OA
HETATM   25  O2  UNL     1      17.430 130.811  -1.131  1.00  0.00    -0.206 OA
BRANCH  23  26
HETATM   26  N1  UNL     1      19.492 129.760  -2.311  1.00  0.00    -0.206 NA
HETATM   27  C5  UNL     1      19.858 128.913  -3.397  1.00  0.00     0.107 C 
HETATM   28  C4  UNL     1      21.153 128.160  -3.196  1.00  0.00     0.016 C 
HETATM   29  C3  UNL     1      22.286 129.011  -2.720  1.00  0.00     0.006 C 
HETATM   30  C2  UNL     1      21.796 130.187  -1.923  1.00  0.00    -0.004 C 
HETATM   31  C1  UNL     1      22.774 130.690  -0.906  1.00  0.00     0.011 C 
HETATM   32  C23 UNL     1      20.483 129.740  -1.265  1.00  0.00     0.111 C 
ENDBRANCH  23  26
ENDBRANCH   1  23
TORSDOF 6
ENDMDL
MODEL 4
REMARK VINA RESULT: -9.254180975      3.844      7.155
REMARK  6 active torsions:
REMARK  status: ('A' for Active; 'I' for Inactive)
REMARK    1  A    between atoms: N1_6  and  S1_7 
REMARK    2  A    between atoms: S1_7  and  C6_10 
REMARK    3  A    between atoms: N2_16  and  C12_17 
REMARK    4  A    between atoms: C12_17  and  C13_18 
REMARK       I    between atoms: C13_18  and  N3_20 
REMARK    5  A    between atoms: N3_20  and  C14_22 
REMARK    6  A    between atoms: C14_22  and  C15_23 
ROOT
HETATM    1  C6  UNL     1      17.613 129.372  -4.144  1.00  0.00     0.076 A 
HETATM    2  C7  UNL     1      18.252 128.171  -4.331  1.00  0.00     0.026 A 
HETATM    3  C8  UNL     1      19.624 128.078  -4.027  1.00  0.00     0.022 A 
HETATM    4  C9  UNL     1      20.312 129.130  -3.563  1.00  0.00     0.027 A 
HETATM    5  C10 UNL     1      19.668 130.342  -3.375  1.00  0.00     0.049 A 
HETATM    6  C11 UNL     1      18.326 130.460  -3.663  1.00  0.00     0.055 A 
HETATM    7  N2  UNL     1      20.391 131.460  -2.887  1.00  0.00    -0.370 N 
HETATM    8  C21 UNL     1      21.454 131.408  -1.946  1.00  0.00     0.134 C 
HETATM    9  C22 UNL     1      22.233 130.182  -1.748  1.00  0.00     0.099 C 
HETATM   10  S2  UNL     1      22.019 129.055  -3.152  1.00  0.00    -0.126 SA
ENDROOT
BRANCH   7  11
HETATM   11  C12 UNL     1      20.005 132.767  -3.381  1.00  0.00     0.225 C 
BRANCH  11  12
HETATM   12  C13 UNL     1      19.628 133.746  -2.345  1.00  0.00     0.235 C 
HETATM   13  O3  UNL     1      20.399 134.761  -2.178  1.00  0.00    -0.272 OA
HETATM   14  N3  UNL     1      18.503 133.697  -1.498  1.00  0.00    -0.359 N 
ATOM     15  H3  UNL     1      17.874 132.900  -1.595  1.00  0.00     0.162 HD
BRANCH  14  16
HETATM   16  C14 UNL     1      18.178 134.678  -0.518  1.00  0.00     0.127 C 
BRANCH  16  17
HETATM   17  C15 UNL     1      16.707 134.882  -0.254  1.00  0.00     0.003 C 
HETATM   18  C16 UNL     1      16.558 136.238   0.366  1.00  0.00     0.006 C 
HETATM   19  C17 UNL     1      15.173 136.807   0.244  1.00  0.00     0.000 C 
HETATM   20  C18 UNL     1      14.913 136.966  -1.262  1.00  0.00     0.000 C 
HETATM   21  C19 UNL     1      14.806 135.550  -1.784  1.00  0.00     0.000 C 
HETATM   22  C20 UNL     1      16.002 134.717  -1.562  1.00  0.00     0.006 C 
ENDBRANCH  16  17
ENDBRANCH  14  16
ENDBRANCH  11  12
ENDBRANCH   7  11
BRANCH   1  23
HETATM   23  S1  UNL     1      15.911 129.471  -4.528  1.00  0.00     0.243 S 
HETATM   24  O1  UNL     1      15.166 128.255  -4.052  1.00  0.00    -0.206 OA
HETATM   25  O2  UNL     1      15.782 129.488  -6.030  1.00  0.00    -0.206 OA
BRANCH  23  26
HETATM   26  N1  UNL     1      15.213 130.907  -3.930  1.00  0.00    -0.206 NA
HETATM   27  C5  UNL     1      14.500 130.741  -2.707  1.00  0.00     0.107 C 
HETATM   28  C4  UNL     1      13.093 131.291  -2.723  1.00  0.00     0.016 C 
HETATM   29  C3  UNL     1      12.986 132.678  -3.269  1.00  0.00     0.006 C 
HETATM   30  C2  UNL     1      14.075 132.964  -4.264  1.00  0.00    -0.004 C 
HETATM   31  C1  UNL     1      13.709 133.986  -5.297  1.00  0.00     0.011 C 
HETATM   32  C23 UNL     1      14.430 131.618  -4.909  1.00  0.00     0.111 C 
ENDBRANCH  23  26
ENDBRANCH   1  23
TORSDOF 6
ENDMDL
MODEL 5
REMARK VINA RESULT: -9.253650336      4.433     10.484
REMARK  6 active torsions:
REMARK  status: ('A' for Active; 'I' for Inactive)
REMARK    1  A    between atoms: N1_6  and  S1_7 
REMARK    2  A    between atoms: S1_7  and  C6_10 
REMARK    3  A    between atoms: N2_16  and  C12_17 
REMARK    4  A    between atoms: C12_17  and  C13_18 
REMARK       I    between atoms: C13_18  and  N3_20 
REMARK    5  A    between atoms: N3_20  and  C14_22 
REMARK    6  A    between atoms: C14_22  and  C15_23 
ROOT
HETATM    1  C6  UNL     1      19.092 129.393  -2.554  1.00  0.00     0.076 A 
HETATM    2  C7  UNL     1      19.540 128.809  -3.713  1.00  0.00     0.026 A 
HETATM    3  C8  UNL     1      20.894 128.957  -4.067  1.00  0.00     0.022 A 
HETATM    4  C9  UNL     1      21.747 129.650  -3.302  1.00  0.00     0.027 A 
HETATM    5  C10 UNL     1      21.296 130.239  -2.132  1.00  0.00     0.049 A 
HETATM    6  C11 UNL     1      19.976 130.109  -1.761  1.00  0.00     0.055 A 
HETATM    7  N2  UNL     1      22.194 130.977  -1.319  1.00  0.00    -0.370 N 
HETATM    8  C21 UNL     1      23.569 130.676  -1.124  1.00  0.00     0.134 C 
HETATM    9  C22 UNL     1      24.316 129.880  -2.101  1.00  0.00     0.099 C 
HETATM   10  S2  UNL     1      23.450 129.844  -3.693  1.00  0.00    -0.126 SA
ENDROOT
BRANCH   7  11
HETATM   11  C12 UNL     1      21.660 132.128  -0.617  1.00  0.00     0.225 C 
BRANCH  11  12
HETATM   12  C13 UNL     1      21.741 132.062   0.854  1.00  0.00     0.235 C 
HETATM   13  O3  UNL     1      20.716 131.608   1.484  1.00  0.00    -0.272 OA
HETATM   14  N3  UNL     1      22.826 132.449   1.664  1.00  0.00    -0.359 N 
ATOM     15  H3  UNL     1      23.652 132.824   1.199  1.00  0.00     0.162 HD
BRANCH  14  16
HETATM   16  C14 UNL     1      22.855 132.354   3.085  1.00  0.00     0.127 C 
BRANCH  16  17
HETATM   17  C15 UNL     1      24.126 131.801   3.680  1.00  0.00     0.003 C 
HETATM   18  C16 UNL     1      23.735 131.026   4.903  1.00  0.00     0.006 C 
HETATM   19  C17 UNL     1      24.765 130.020   5.333  1.00  0.00     0.000 C 
HETATM   20  C18 UNL     1      24.883 129.015   4.177  1.00  0.00     0.000 C 
HETATM   21  C19 UNL     1      25.536 129.794   3.056  1.00  0.00     0.000 C 
HETATM   22  C20 UNL     1      24.789 130.987   2.616  1.00  0.00     0.006 C 
ENDBRANCH  16  17
ENDBRANCH  14  16
ENDBRANCH  11  12
ENDBRANCH   7  11
BRANCH   1  23
HETATM   23  S1  UNL     1      17.407 129.201  -2.129  1.00  0.00     0.243 S 
HETATM   24  O1  UNL     1      17.147 129.603  -0.705  1.00  0.00    -0.206 OA
HETATM   25  O2  UNL     1      17.076 127.733  -2.224  1.00  0.00    -0.206 OA
BRANCH  23  26
HETATM   26  N1  UNL     1      16.387 130.034  -3.212  1.00  0.00    -0.206 NA
HETATM   27  C5  UNL     1      15.632 131.082  -2.608  1.00  0.00     0.107 C 
HETATM   28  C4  UNL     1      14.147 131.022  -2.883  1.00  0.00     0.016 C 
HETATM   29  C3  UNL     1      13.800 130.817  -4.322  1.00  0.00     0.006 C 
HETATM   30  C2  UNL     1      14.880 130.064  -5.048  1.00  0.00    -0.004 C 
HETATM   31  C1  UNL     1      14.393 129.270  -6.221  1.00  0.00     0.011 C 
HETATM   32  C23 UNL     1      15.551 129.165  -4.001  1.00  0.00     0.111 C 
ENDBRANCH  23  26
ENDBRANCH   1  23
TORSDOF 6
ENDMDL
