MODEL 1
REMARK VINA RESULT: -8.819118133      0.000      0.000
REMARK  6 active torsions:
REMARK  status: ('A' for Active; 'I' for Inactive)
REMARK    1  A    between atoms: O1_2  and  C2_3 
REMARK    2  A    between atoms: C4_5  and  O2_6 
REMARK    3  A    between atoms: C7_9  and  C8_10 
REMARK       I    between atoms: C8_10  and  N1_12 
REMARK    4  A    between atoms: N1_12  and  C9_14 
REMARK       I    between atoms: N2_20  and  C15_21 
REMARK    5  A    between atoms: C15_21  and  C16_23 
REMARK    6  A    between atoms: N3_27  and  C20_28 
ROOT
HETATM    1  C9  UNL     1      18.062 130.128  -1.591  1.00  0.00     0.088 C 
HETATM    2  C10 UNL     1      18.461 130.796  -2.863  1.00  0.00     0.050 C 
HETATM    3  C11 UNL     1      18.447 129.864  -4.043  1.00  0.00     0.091 C 
HETATM    4  C12 UNL     1      19.504 128.792  -3.723  1.00  0.00     0.050 C 
HETATM    5  C13 UNL     1      18.330 128.143  -3.034  1.00  0.00     0.091 C 
HETATM    6  C14 UNL     1      18.149 128.637  -1.628  1.00  0.00     0.050 C 
HETATM    7  N2  UNL     1      17.462 128.818  -3.966  1.00  0.00    -0.341 N 
HETATM    8  C15 UNL     1      16.204 128.556  -4.532  1.00  0.00     0.243 C 
HETATM    9  O4  UNL     1      15.633 127.472  -4.205  1.00  0.00    -0.271 OA
ENDROOT
BRANCH   1  10
HETATM   10  N1  UNL     1      18.947 130.656  -0.549  1.00  0.00    -0.352 N 
HETATM   11  C8  UNL     1      18.785 131.940   0.013  1.00  0.00     0.252 C 
HETATM   12  O3  UNL     1      17.847 132.664  -0.399  1.00  0.00    -0.268 OA
ATOM     13  H1  UNL     1      19.713 130.071  -0.216  1.00  0.00     0.163 HD
BRANCH  11  14
HETATM   14  C7  UNL     1      19.685 132.402   1.041  1.00  0.00     0.037 A 
HETATM   15  C6  UNL     1      21.029 132.176   0.913  1.00  0.00     0.054 A 
HETATM   16  C4  UNL     1      21.944 132.603   1.857  1.00  0.00     0.071 A 
HETATM   17  C3  UNL     1      21.450 133.275   2.953  1.00  0.00     0.073 A 
HETATM   18  C2  UNL     1      20.117 133.520   3.116  1.00  0.00     0.071 A 
HETATM   19  C27 UNL     1      19.217 133.072   2.137  1.00  0.00     0.054 A 
BRANCH  16  20
HETATM   20  O2  UNL     1      23.302 132.386   1.747  1.00  0.00    -0.356 OA
HETATM   21  C5  UNL     1      23.864 131.369   0.948  1.00  0.00     0.210 C 
ENDBRANCH  16  20
BRANCH  18  22
HETATM   22  O1  UNL     1      19.639 134.197   4.221  1.00  0.00    -0.356 OA
HETATM   23  C1  UNL     1      20.438 135.198   4.836  1.00  0.00     0.210 C 
ENDBRANCH  18  22
ENDBRANCH  11  14
ENDBRANCH   1  10
BRANCH   8  24
HETATM   24  C16 UNL     1      15.503 129.453  -5.474  1.00  0.00     0.176 C 
HETATM   25  C17 UNL     1      14.582 128.662  -6.388  1.00  0.00     0.037 C 
HETATM   26  C18 UNL     1      13.362 128.451  -5.487  1.00  0.00     0.022 C 
HETATM   27  C19 UNL     1      13.395 129.635  -4.516  1.00  0.00     0.123 C 
HETATM   28  N3  UNL     1      14.580 130.256  -4.779  1.00  0.00    -0.374 N 
BRANCH  28  29
HETATM   29  C20 UNL     1      15.036 131.403  -4.126  1.00  0.00    -0.015 C 
HETATM   30  C21 UNL     1      15.830 132.366  -4.958  1.00  0.00     0.052 C 
HETATM   31  C22 UNL     1      15.168 132.796  -6.227  1.00  0.00     0.006 C 
HETATM   32  C23 UNL     1      13.920 133.602  -6.020  1.00  0.00     0.000 C 
HETATM   33  C24 UNL     1      13.773 134.114  -4.618  1.00  0.00     0.000 C 
HETATM   34  C25 UNL     1      13.142 133.052  -3.785  1.00  0.00     0.006 C 
HETATM   35  C26 UNL     1      14.059 132.057  -3.200  1.00  0.00     0.052 C 
ENDBRANCH  28  29
ENDBRANCH   8  24
TORSDOF 6
ENDMDL
MODEL 2
REMARK VINA RESULT: -8.813154113      0.094      2.114
REMARK  6 active torsions:
REMARK  status: ('A' for Active; 'I' for Inactive)
REMARK    1  A    between atoms: O1_2  and  C2_3 
REMARK    2  A    between atoms: C4_5  and  O2_6 
REMARK    3  A    between atoms: C7_9  and  C8_10 
REMARK       I    between atoms: C8_10  and  N1_12 
REMARK    4  A    between atoms: N1_12  and  C9_14 
REMARK       I    between atoms: N2_20  and  C15_21 
REMARK    5  A    between atoms: C15_21  and  C16_23 
REMARK    6  A    between atoms: N3_27  and  C20_28 
ROOT
HETATM    1  C9  UNL     1      18.169 130.134  -1.682  1.00  0.00     0.088 C 
HETATM    2  C10 UNL     1      18.535 130.803  -2.963  1.00  0.00     0.050 C 
HETATM    3  C11 UNL     1      18.494 129.871  -4.142  1.00  0.00     0.091 C 
HETATM    4  C12 UNL     1      19.561 128.803  -3.849  1.00  0.00     0.050 C 
HETATM    5  C13 UNL     1      18.406 128.150  -3.131  1.00  0.00     0.091 C 
HETATM    6  C14 UNL     1      18.258 128.643  -1.721  1.00  0.00     0.050 C 
HETATM    7  N2  UNL     1      17.513 128.823  -4.041  1.00  0.00    -0.341 N 
HETATM    8  C15 UNL     1      16.242 128.558  -4.576  1.00  0.00     0.243 C 
HETATM    9  O4  UNL     1      15.682 127.473  -4.236  1.00  0.00    -0.271 OA
ENDROOT
BRANCH   1  10
HETATM   10  N1  UNL     1      19.078 130.665  -0.662  1.00  0.00    -0.352 N 
HETATM   11  C8  UNL     1      18.878 131.912  -0.034  1.00  0.00     0.252 C 
HETATM   12  O3  UNL     1      17.883 132.600  -0.365  1.00  0.00    -0.268 OA
ATOM     13  H1  UNL     1      19.889 130.108  -0.394  1.00  0.00     0.163 HD
BRANCH  11  14
HETATM   14  C7  UNL     1      19.805 132.378   0.968  1.00  0.00     0.037 A 
HETATM   15  C6  UNL     1      19.332 133.036   2.072  1.00  0.00     0.054 A 
HETATM   16  C4  UNL     1      20.166 133.497   3.072  1.00  0.00     0.071 A 
HETATM   17  C3  UNL     1      21.516 133.270   2.920  1.00  0.00     0.073 A 
HETATM   18  C2  UNL     1      22.026 132.617   1.835  1.00  0.00     0.071 A 
HETATM   19  C27 UNL     1      21.149 132.162   0.839  1.00  0.00     0.054 A 
BRANCH  16  20
HETATM   20  O2  UNL     1      19.710 134.162   4.192  1.00  0.00    -0.356 OA
HETATM   21  C5  UNL     1      20.478 135.109   4.900  1.00  0.00     0.210 C 
ENDBRANCH  16  20
BRANCH  18  22
HETATM   22  O1  UNL     1      23.383 132.397   1.699  1.00  0.00    -0.356 OA
HETATM   23  C1  UNL     1      23.850 131.387   0.815  1.00  0.00     0.210 C 
ENDBRANCH  18  22
ENDBRANCH  11  14
ENDBRANCH   1  10
BRANCH   8  24
HETATM   24  C16 UNL     1      15.516 129.453  -5.500  1.00  0.00     0.176 C 
HETATM   25  C17 UNL     1      14.586 128.659  -6.402  1.00  0.00     0.037 C 
HETATM   26  C18 UNL     1      13.385 128.430  -5.481  1.00  0.00     0.022 C 
HETATM   27  C19 UNL     1      13.423 129.610  -4.504  1.00  0.00     0.123 C 
HETATM   28  N3  UNL     1      14.597 130.244  -4.784  1.00  0.00    -0.374 N 
BRANCH  28  29
HETATM   29  C20 UNL     1      15.054 131.391  -4.132  1.00  0.00    -0.015 C 
HETATM   30  C21 UNL     1      15.832 132.362  -4.971  1.00  0.00     0.052 C 
HETATM   31  C22 UNL     1      15.153 132.791  -6.230  1.00  0.00     0.006 C 
HETATM   32  C23 UNL     1      13.902 133.589  -6.006  1.00  0.00     0.000 C 
HETATM   33  C24 UNL     1      13.769 134.096  -4.601  1.00  0.00     0.000 C 
HETATM   34  C25 UNL     1      13.154 133.028  -3.764  1.00  0.00     0.006 C 
HETATM   35  C26 UNL     1      14.084 132.036  -3.193  1.00  0.00     0.052 C 
ENDBRANCH  28  29
ENDBRANCH   8  24
TORSDOF 6
ENDMDL
MODEL 3
REMARK VINA RESULT: -8.759372354      4.311      8.309
REMARK  6 active torsions:
REMARK  status: ('A' for Active; 'I' for Inactive)
REMARK    1  A    between atoms: O1_2  and  C2_3 
REMARK    2  A    between atoms: C4_5  and  O2_6 
REMARK    3  A    between atoms: C7_9  and  C8_10 
REMARK       I    between atoms: C8_10  and  N1_12 
REMARK    4  A    between atoms: N1_12  and  C9_14 
REMARK       I    between atoms: N2_20  and  C15_21 
REMARK    5  A    between atoms: C15_21  and  C16_23 
REMARK    6  A    between atoms: N3_27  and  C20_28 
ROOT
HETATM    1  C9  UNL     1      17.016 133.996  -3.694  1.00  0.00     0.088 C 
HETATM    2  C10 UNL     1      15.735 134.390  -4.347  1.00  0.00     0.050 C 
HETATM    3  C11 UNL     1      15.109 135.605  -3.721  1.00  0.00     0.091 C 
HETATM    4  C12 UNL     1      14.791 135.195  -2.272  1.00  0.00     0.050 C 
HETATM    5  C13 UNL     1      16.211 135.656  -2.055  1.00  0.00     0.091 C 
HETATM    6  C14 UNL     1      17.212 134.572  -2.330  1.00  0.00     0.050 C 
HETATM    7  N2  UNL     1      16.050 136.548  -3.176  1.00  0.00    -0.341 N 
HETATM    8  C15 UNL     1      16.591 137.787  -3.555  1.00  0.00     0.243 C 
HETATM    9  O4  UNL     1      17.420 138.327  -2.763  1.00  0.00    -0.271 OA
ENDROOT
BRANCH   1  10
HETATM   10  N1  UNL     1      17.014 132.532  -3.625  1.00  0.00    -0.352 N 
HETATM   11  C8  UNL     1      17.639 131.720  -4.594  1.00  0.00     0.252 C 
HETATM   12  O3  UNL     1      18.218 132.272  -5.560  1.00  0.00    -0.268 OA
ATOM     13  H1  UNL     1      16.540 132.081  -2.843  1.00  0.00     0.163 HD
BRANCH  11  14
HETATM   14  C7  UNL     1      17.609 130.283  -4.468  1.00  0.00     0.037 A 
HETATM   15  C6  UNL     1      16.408 129.626  -4.519  1.00  0.00     0.054 A 
HETATM   16  C4  UNL     1      16.312 128.252  -4.415  1.00  0.00     0.071 A 
HETATM   17  C3  UNL     1      17.486 127.549  -4.254  1.00  0.00     0.073 A 
HETATM   18  C2  UNL     1      18.702 128.168  -4.200  1.00  0.00     0.071 A 
HETATM   19  C27 UNL     1      18.761 129.566  -4.309  1.00  0.00     0.054 A 
BRANCH  16  20
HETATM   20  O2  UNL     1      15.113 127.571  -4.464  1.00  0.00    -0.356 OA
HETATM   21  C5  UNL     1      14.010 127.996  -5.232  1.00  0.00     0.210 C 
ENDBRANCH  16  20
BRANCH  18  22
HETATM   22  O1  UNL     1      19.870 127.447  -4.040  1.00  0.00    -0.356 OA
HETATM   23  C1  UNL     1      20.941 127.997  -3.286  1.00  0.00     0.210 C 
ENDBRANCH  18  22
ENDBRANCH  11  14
ENDBRANCH   1  10
BRANCH   8  24
HETATM   24  C16 UNL     1      16.264 138.499  -4.808  1.00  0.00     0.176 C 
HETATM   25  C17 UNL     1      16.689 139.955  -4.728  1.00  0.00     0.037 C 
HETATM   26  C18 UNL     1      18.187 139.855  -5.030  1.00  0.00     0.022 C 
HETATM   27  C19 UNL     1      18.321 138.590  -5.883  1.00  0.00     0.123 C 
HETATM   28  N3  UNL     1      17.078 138.030  -5.856  1.00  0.00    -0.374 N 
BRANCH  28  29
HETATM   29  C20 UNL     1      16.726 136.847  -6.510  1.00  0.00    -0.015 C 
HETATM   30  C21 UNL     1      15.534 136.923  -7.417  1.00  0.00     0.052 C 
HETATM   31  C22 UNL     1      15.587 138.012  -8.438  1.00  0.00     0.006 C 
HETATM   32  C23 UNL     1      16.675 137.838  -9.457  1.00  0.00     0.000 C 
HETATM   33  C24 UNL     1      17.258 136.457  -9.468  1.00  0.00     0.000 C 
HETATM   34  C25 UNL     1      18.319 136.377  -8.426  1.00  0.00     0.006 C 
HETATM   35  C26 UNL     1      17.863 136.046  -7.063  1.00  0.00     0.052 C 
ENDBRANCH  28  29
ENDBRANCH   8  24
TORSDOF 6
ENDMDL
MODEL 4
REMARK VINA RESULT: -8.639708655      4.507      8.669
REMARK  6 active torsions:
REMARK  status: ('A' for Active; 'I' for Inactive)
REMARK    1  A    between atoms: O1_2  and  C2_3 
REMARK    2  A    between atoms: C4_5  and  O2_6 
REMARK    3  A    between atoms: C7_9  and  C8_10 
REMARK       I    between atoms: C8_10  and  N1_12 
REMARK    4  A    between atoms: N1_12  and  C9_14 
REMARK       I    between atoms: N2_20  and  C15_21 
REMARK    5  A    between atoms: C15_21  and  C16_23 
REMARK    6  A    between atoms: N3_27  and  C20_28 
ROOT
HETATM    1  C9  UNL     1      17.776 133.505  -4.697  1.00  0.00     0.088 C 
HETATM    2  C10 UNL     1      16.622 134.429  -4.498  1.00  0.00     0.050 C 
HETATM    3  C11 UNL     1      16.994 135.679  -3.752  1.00  0.00     0.091 C 
HETATM    4  C12 UNL     1      17.455 135.199  -2.364  1.00  0.00     0.050 C 
HETATM    5  C13 UNL     1      18.778 135.079  -3.080  1.00  0.00     0.091 C 
HETATM    6  C14 UNL     1      18.930 133.762  -3.782  1.00  0.00     0.050 C 
HETATM    7  N2  UNL     1      18.344 136.126  -3.971  1.00  0.00    -0.341 N 
HETATM    8  C15 UNL     1      18.979 137.128  -4.722  1.00  0.00     0.243 C 
HETATM    9  O4  UNL     1      20.242 137.207  -4.637  1.00  0.00    -0.271 OA
ENDROOT
BRANCH   1  10
HETATM   10  N1  UNL     1      17.263 132.148  -4.489  1.00  0.00    -0.352 N 
HETATM   11  C8  UNL     1      16.439 131.491  -5.427  1.00  0.00     0.252 C 
HETATM   12  O3  UNL     1      16.127 132.094  -6.482  1.00  0.00    -0.268 OA
ATOM     13  H1  UNL     1      17.512 131.658  -3.631  1.00  0.00     0.163 HD
BRANCH  11  14
HETATM   14  C7  UNL     1      15.971 130.152  -5.170  1.00  0.00     0.037 A 
HETATM   15  C6  UNL     1      15.030 129.595  -5.995  1.00  0.00     0.054 A 
HETATM   16  C4  UNL     1      14.548 128.313  -5.809  1.00  0.00     0.071 A 
HETATM   17  C3  UNL     1      15.054 127.599  -4.744  1.00  0.00     0.073 A 
HETATM   18  C2  UNL     1      15.993 128.119  -3.900  1.00  0.00     0.071 A 
HETATM   19  C27 UNL     1      16.459 129.424  -4.120  1.00  0.00     0.054 A 
BRANCH  16  20
HETATM   20  O2  UNL     1      13.602 127.734  -6.628  1.00  0.00    -0.356 OA
HETATM   21  C5  UNL     1      12.248 127.581  -6.265  1.00  0.00     0.210 C 
ENDBRANCH  16  20
BRANCH  18  22
HETATM   22  O1  UNL     1      16.490 127.388  -2.838  1.00  0.00    -0.356 OA
HETATM   23  C1  UNL     1      17.394 127.995  -1.926  1.00  0.00     0.210 C 
ENDBRANCH  18  22
ENDBRANCH  11  14
ENDBRANCH   1  10
BRANCH   8  24
HETATM   24  C16 UNL     1      18.282 138.089  -5.602  1.00  0.00     0.176 C 
HETATM   25  C17 UNL     1      19.153 139.305  -5.871  1.00  0.00     0.037 C 
HETATM   26  C18 UNL     1      20.081 138.781  -6.970  1.00  0.00     0.022 C 
HETATM   27  C19 UNL     1      19.268 137.684  -7.666  1.00  0.00     0.123 C 
HETATM   28  N3  UNL     1      18.151 137.551  -6.896  1.00  0.00    -0.374 N 
BRANCH  28  29
HETATM   29  C20 UNL     1      17.111 136.655  -7.155  1.00  0.00    -0.015 C 
HETATM   30  C21 UNL     1      15.787 137.264  -7.512  1.00  0.00     0.052 C 
HETATM   31  C22 UNL     1      15.831 138.251  -8.633  1.00  0.00     0.006 C 
HETATM   32  C23 UNL     1      16.205 137.654  -9.957  1.00  0.00     0.000 C 
HETATM   33  C24 UNL     1      16.118 136.157  -9.975  1.00  0.00     0.000 C 
HETATM   34  C25 UNL     1      17.391 135.597  -9.441  1.00  0.00     0.006 C 
HETATM   35  C26 UNL     1      17.473 135.457  -7.975  1.00  0.00     0.052 C 
ENDBRANCH  28  29
ENDBRANCH   8  24
TORSDOF 6
ENDMDL
MODEL 5
REMARK VINA RESULT: -8.584758598      1.246      1.429
REMARK  6 active torsions:
REMARK  status: ('A' for Active; 'I' for Inactive)
REMARK    1  A    between atoms: O1_2  and  C2_3 
REMARK    2  A    between atoms: C4_5  and  O2_6 
REMARK    3  A    between atoms: C7_9  and  C8_10 
REMARK       I    between atoms: C8_10  and  N1_12 
REMARK    4  A    between atoms: N1_12  and  C9_14 
REMARK       I    between atoms: N2_20  and  C15_21 
REMARK    5  A    between atoms: C15_21  and  C16_23 
REMARK    6  A    between atoms: N3_27  and  C20_28 
ROOT
HETATM    1  C9  UNL     1      18.919 130.627  -2.071  1.00  0.00     0.088 C 
HETATM    2  C10 UNL     1      19.112 131.043  -3.490  1.00  0.00     0.050 C 
HETATM    3  C11 UNL     1      18.833 129.934  -4.468  1.00  0.00     0.091 C 
HETATM    4  C12 UNL     1      19.874 128.846  -4.151  1.00  0.00     0.050 C 
HETATM    5  C13 UNL     1      18.813 128.418  -3.167  1.00  0.00     0.091 C 
HETATM    6  C14 UNL     1      18.919 129.148  -1.860  1.00  0.00     0.050 C 
HETATM    7  N2  UNL     1      17.826 129.001  -4.040  1.00  0.00    -0.341 N 
HETATM    8  C15 UNL     1      16.473 128.755  -4.327  1.00  0.00     0.243 C 
HETATM    9  O4  UNL     1      15.916 127.790  -3.721  1.00  0.00    -0.271 OA
ENDROOT
BRANCH   1  10
HETATM   10  N1  UNL     1      20.006 131.244  -1.306  1.00  0.00    -0.352 N 
HETATM   11  C8  UNL     1      19.810 131.836  -0.041  1.00  0.00     0.252 C 
HETATM   12  O3  UNL     1      18.655 131.841   0.449  1.00  0.00    -0.268 OA
ATOM     13  H1  UNL     1      20.945 131.244  -1.705  1.00  0.00     0.163 HD
BRANCH  11  14
HETATM   14  C7  UNL     1      20.921 132.422   0.668  1.00  0.00     0.037 A 
HETATM   15  C6  UNL     1      21.943 133.000  -0.038  1.00  0.00     0.054 A 
HETATM   16  C4  UNL     1      23.030 133.587   0.581  1.00  0.00     0.071 A 
HETATM   17  C3  UNL     1      23.054 133.571   1.958  1.00  0.00     0.073 A 
HETATM   18  C2  UNL     1      22.054 133.006   2.697  1.00  0.00     0.071 A 
HETATM   19  C27 UNL     1      20.966 132.418   2.034  1.00  0.00     0.054 A 
BRANCH  16  20
HETATM   20  O2  UNL     1      24.069 134.174  -0.111  1.00  0.00    -0.356 OA
HETATM   21  C5  UNL     1      24.972 133.451  -0.916  1.00  0.00     0.210 C 
ENDBRANCH  16  20
BRANCH  18  22
HETATM   22  O1  UNL     1      22.094 133.000   4.078  1.00  0.00    -0.356 OA
HETATM   23  C1  UNL     1      23.081 132.233   4.752  1.00  0.00     0.210 C 
ENDBRANCH  18  22
ENDBRANCH  11  14
ENDBRANCH   1  10
BRANCH   8  24
HETATM   24  C16 UNL     1      15.659 129.541  -5.277  1.00  0.00     0.176 C 
HETATM   25  C17 UNL     1      14.739 128.634  -6.078  1.00  0.00     0.037 C 
HETATM   26  C18 UNL     1      13.592 128.409  -5.089  1.00  0.00     0.022 C 
HETATM   27  C19 UNL     1      13.605 129.657  -4.199  1.00  0.00     0.123 C 
HETATM   28  N3  UNL     1      14.728 130.330  -4.577  1.00  0.00    -0.374 N 
BRANCH  28  29
HETATM   29  C20 UNL     1      15.146 131.545  -4.029  1.00  0.00    -0.015 C 
HETATM   30  C21 UNL     1      15.928 132.446  -4.938  1.00  0.00     0.052 C 
HETATM   31  C22 UNL     1      15.276 132.737  -6.250  1.00  0.00     0.006 C 
HETATM   32  C23 UNL     1      14.005 133.527  -6.136  1.00  0.00     0.000 C 
HETATM   33  C24 UNL     1      13.824 134.164  -4.790  1.00  0.00     0.000 C 
HETATM   34  C25 UNL     1      13.207 133.169  -3.869  1.00  0.00     0.006 C 
HETATM   35  C26 UNL     1      14.140 132.258  -3.181  1.00  0.00     0.052 C 
ENDBRANCH  28  29
ENDBRANCH   8  24
TORSDOF 6
ENDMDL
