MODEL 1
REMARK VINA RESULT: -9.132033865      0.000      0.000
REMARK  5 active torsions:
REMARK  status: ('A' for Active; 'I' for Inactive)
REMARK    1  A    between atoms: C5_5  and  N1_6 
REMARK    2  A    between atoms: C9_10  and  C10_11 
REMARK    3  A    between atoms: C10_11  and  N2_12 
REMARK    4  A    between atoms: N2_12  and  S1_14 
REMARK    5  A    between atoms: S1_14  and  O3_17 
ROOT
HETATM    1  C1  UNL     1      13.333 130.304  -3.506  1.00  0.00     0.019 C 
HETATM    2  C2  UNL     1      14.185 130.956  -4.316  1.00  0.00    -0.063 C 
HETATM    3  C3  UNL     1      15.217 130.181  -4.884  1.00  0.00     0.005 C 
HETATM    4  C4  UNL     1      16.501 129.917  -4.752  1.00  0.00     0.009 C 
HETATM    5  C5  UNL     1      17.497 130.427  -3.780  1.00  0.00     0.245 C 
HETATM    6  C8  UNL     1      18.507 131.382  -4.336  1.00  0.00     0.046 C 
HETATM    7  C9  UNL     1      18.966 132.511  -3.537  1.00  0.00     0.010 C 
HETATM    8  C12 UNL     1      18.450 133.904  -3.744  1.00  0.00     0.041 C 
HETATM    9  C13 UNL     1      17.812 134.212  -5.002  1.00  0.00    -0.073 C 
HETATM   10  C14 UNL     1      18.170 135.497  -5.761  1.00  0.00     0.038 C 
HETATM   11  C15 UNL     1      17.586 134.980  -7.113  1.00  0.00     0.047 C 
HETATM   12  C16 UNL     1      16.182 134.693  -6.628  1.00  0.00     0.082 C 
HETATM   13  C17 UNL     1      15.466 135.955  -6.862  1.00  0.00     0.051 C 
HETATM   14  O4  UNL     1      15.446 133.776  -7.360  1.00  0.00    -0.376 OA
HETATM   15  C18 UNL     1      14.545 133.063  -6.624  1.00  0.00     0.175 C 
HETATM   16  C19 UNL     1      14.203 133.409  -5.237  1.00  0.00     0.030 C 
HETATM   17  C20 UNL     1      13.716 132.335  -4.420  1.00  0.00     0.025 C 
HETATM   18  C21 UNL     1      13.819 132.915  -3.046  1.00  0.00     0.011 C 
HETATM   19  C22 UNL     1      15.172 133.568  -3.117  1.00  0.00     0.015 C 
HETATM   20  C23 UNL     1      15.251 134.222  -4.438  1.00  0.00    -0.011 C 
HETATM   21  C24 UNL     1      14.788 135.637  -4.146  1.00  0.00     0.021 C 
HETATM   22  C25 UNL     1      16.412 134.085  -5.300  1.00  0.00    -0.035 C 
ENDROOT
BRANCH   7  23
HETATM   23  C10 UNL     1      20.500 132.560  -3.649  1.00  0.00     0.139 C 
BRANCH  23  24
HETATM   24  N2  UNL     1      21.106 131.269  -3.609  1.00  0.00    -0.297 N 
ATOM     25  H2  UNL     1      20.624 130.373  -3.530  1.00  0.00     0.174 HD
BRANCH  24  26
HETATM   26  S1  UNL     1      22.819 131.512  -3.718  1.00  0.00     0.357 S 
HETATM   27  O1  UNL     1      23.056 132.962  -4.114  1.00  0.00    -0.176 OA
HETATM   28  O2  UNL     1      23.399 130.589  -4.751  1.00  0.00    -0.176 OA
BRANCH  26  29
HETATM   29  O3  UNL     1      23.499 131.185  -2.241  1.00  0.00    -0.265 OA
HETATM   30  C11 UNL     1      24.235 130.019  -2.219  1.00  0.00     0.227 C 
ENDBRANCH  26  29
ENDBRANCH  24  26
ENDBRANCH  23  24
ENDBRANCH   7  23
BRANCH   5  31
HETATM   31  N1  UNL     1      18.111 129.331  -3.041  1.00  0.00     0.088 N 
HETATM   32  C6  UNL     1      17.167 128.790  -2.082  1.00  0.00     0.310 C 
HETATM   33  C7  UNL     1      18.698 128.331  -3.868  1.00  0.00     0.310 C 
ENDBRANCH   5  31
TORSDOF 5
ENDMDL
MODEL 2
REMARK VINA RESULT: -9.130875993      4.187      7.241
REMARK  5 active torsions:
REMARK  status: ('A' for Active; 'I' for Inactive)
REMARK    1  A    between atoms: C5_5  and  N1_6 
REMARK    2  A    between atoms: C9_10  and  C10_11 
REMARK    3  A    between atoms: C10_11  and  N2_12 
REMARK    4  A    between atoms: N2_12  and  S1_14 
REMARK    5  A    between atoms: S1_14  and  O3_17 
ROOT
HETATM    1  C1  UNL     1      16.743 136.598  -1.988  1.00  0.00     0.019 C 
HETATM    2  C2  UNL     1      16.813 135.476  -2.725  1.00  0.00    -0.063 C 
HETATM    3  C3  UNL     1      17.849 135.423  -3.680  1.00  0.00     0.005 C 
HETATM    4  C4  UNL     1      18.068 135.559  -4.972  1.00  0.00     0.009 C 
HETATM    5  C5  UNL     1      17.139 135.880  -6.081  1.00  0.00     0.245 C 
HETATM    6  C8  UNL     1      16.826 134.744  -7.005  1.00  0.00     0.046 C 
HETATM    7  C9  UNL     1      15.485 134.596  -7.557  1.00  0.00     0.010 C 
HETATM    8  C12 UNL     1      14.496 133.609  -7.010  1.00  0.00     0.041 C 
HETATM    9  C13 UNL     1      14.999 132.514  -6.214  1.00  0.00    -0.073 C 
HETATM   10  C14 UNL     1      14.508 131.082  -6.463  1.00  0.00     0.038 C 
HETATM   11  C15 UNL     1      15.713 130.432  -5.713  1.00  0.00     0.047 C 
HETATM   12  C16 UNL     1      15.522 131.131  -4.385  1.00  0.00     0.082 C 
HETATM   13  C17 UNL     1      14.638 130.227  -3.637  1.00  0.00     0.051 C 
HETATM   14  O4  UNL     1      16.636 131.225  -3.567  1.00  0.00    -0.376 OA
HETATM   15  C18 UNL     1      16.658 132.334  -2.773  1.00  0.00     0.175 C 
HETATM   16  C19 UNL     1      15.493 133.215  -2.609  1.00  0.00     0.030 C 
HETATM   17  C20 UNL     1      15.774 134.572  -2.238  1.00  0.00     0.025 C 
HETATM   18  C21 UNL     1      14.470 135.249  -2.512  1.00  0.00     0.011 C 
HETATM   19  C22 UNL     1      14.112 134.642  -3.841  1.00  0.00     0.015 C 
HETATM   20  C23 UNL     1      14.442 133.206  -3.746  1.00  0.00    -0.011 C 
HETATM   21  C24 UNL     1      13.126 132.583  -3.315  1.00  0.00     0.021 C 
HETATM   22  C25 UNL     1      15.178 132.511  -4.787  1.00  0.00    -0.035 C 
ENDROOT
BRANCH   7  23
HETATM   23  C10 UNL     1      15.634 134.321  -9.063  1.00  0.00     0.139 C 
BRANCH  23  24
HETATM   24  N2  UNL     1      16.542 135.212  -9.708  1.00  0.00    -0.297 N 
ATOM     25  H2  UNL     1      17.558 135.119  -9.752  1.00  0.00     0.174 HD
BRANCH  24  26
HETATM   26  S1  UNL     1      15.592 136.484 -10.404  1.00  0.00     0.357 S 
HETATM   27  O1  UNL     1      16.286 136.936 -11.680  1.00  0.00    -0.176 OA
HETATM   28  O2  UNL     1      15.486 137.627  -9.437  1.00  0.00    -0.176 OA
BRANCH  26  29
HETATM   29  O3  UNL     1      14.076 135.898 -10.733  1.00  0.00    -0.265 OA
HETATM   30  C11 UNL     1      13.074 136.529 -10.026  1.00  0.00     0.227 C 
ENDBRANCH  26  29
ENDBRANCH  24  26
ENDBRANCH  23  24
ENDBRANCH   7  23
BRANCH   5  31
HETATM   31  N1  UNL     1      17.570 137.077  -6.792  1.00  0.00     0.088 N 
HETATM   32  C6  UNL     1      17.243 138.259  -6.017  1.00  0.00     0.310 C 
HETATM   33  C7  UNL     1      18.933 137.045  -7.209  1.00  0.00     0.310 C 
ENDBRANCH   5  31
TORSDOF 5
ENDMDL
MODEL 3
REMARK VINA RESULT: -8.986387819      0.674      1.013
REMARK  5 active torsions:
REMARK  status: ('A' for Active; 'I' for Inactive)
REMARK    1  A    between atoms: C5_5  and  N1_6 
REMARK    2  A    between atoms: C9_10  and  C10_11 
REMARK    3  A    between atoms: C10_11  and  N2_12 
REMARK    4  A    between atoms: N2_12  and  S1_14 
REMARK    5  A    between atoms: S1_14  and  O3_17 
ROOT
HETATM    1  C1  UNL     1      13.316 130.282  -3.513  1.00  0.00     0.019 C 
HETATM    2  C2  UNL     1      14.159 130.949  -4.322  1.00  0.00    -0.063 C 
HETATM    3  C3  UNL     1      15.191 130.187  -4.907  1.00  0.00     0.005 C 
HETATM    4  C4  UNL     1      16.477 129.928  -4.787  1.00  0.00     0.009 C 
HETATM    5  C5  UNL     1      17.478 130.431  -3.816  1.00  0.00     0.245 C 
HETATM    6  C8  UNL     1      18.478 131.399  -4.367  1.00  0.00     0.046 C 
HETATM    7  C9  UNL     1      18.938 132.519  -3.557  1.00  0.00     0.010 C 
HETATM    8  C12 UNL     1      18.413 133.912  -3.741  1.00  0.00     0.041 C 
HETATM    9  C13 UNL     1      17.764 134.233  -4.991  1.00  0.00    -0.073 C 
HETATM   10  C14 UNL     1      18.110 135.530  -5.735  1.00  0.00     0.038 C 
HETATM   11  C15 UNL     1      17.518 135.027  -7.089  1.00  0.00     0.047 C 
HETATM   12  C16 UNL     1      16.120 134.727  -6.598  1.00  0.00     0.082 C 
HETATM   13  C17 UNL     1      15.396 135.988  -6.811  1.00  0.00     0.051 C 
HETATM   14  O4  UNL     1      15.383 133.816  -7.337  1.00  0.00    -0.376 OA
HETATM   15  C18 UNL     1      14.492 133.088  -6.604  1.00  0.00     0.175 C 
HETATM   16  C19 UNL     1      14.158 133.414  -5.210  1.00  0.00     0.030 C 
HETATM   17  C20 UNL     1      13.682 132.327  -4.404  1.00  0.00     0.025 C 
HETATM   18  C21 UNL     1      13.792 132.890  -3.023  1.00  0.00     0.011 C 
HETATM   19  C22 UNL     1      15.141 133.550  -3.095  1.00  0.00     0.015 C 
HETATM   20  C23 UNL     1      15.207 134.222  -4.408  1.00  0.00    -0.011 C 
HETATM   21  C24 UNL     1      14.739 135.631  -4.094  1.00  0.00     0.021 C 
HETATM   22  C25 UNL     1      16.362 134.102  -5.280  1.00  0.00    -0.035 C 
ENDROOT
BRANCH   7  23
HETATM   23  C10 UNL     1      20.470 132.577  -3.679  1.00  0.00     0.139 C 
BRANCH  23  24
HETATM   24  N2  UNL     1      21.082 131.289  -3.679  1.00  0.00    -0.297 N 
ATOM     25  H2  UNL     1      20.602 130.388  -3.683  1.00  0.00     0.174 HD
BRANCH  24  26
HETATM   26  S1  UNL     1      22.796 131.544  -3.670  1.00  0.00     0.357 S 
HETATM   27  O1  UNL     1      23.394 130.717  -4.798  1.00  0.00    -0.176 OA
HETATM   28  O2  UNL     1      23.368 131.113  -2.350  1.00  0.00    -0.176 OA
BRANCH  26  29
HETATM   29  O3  UNL     1      23.096 133.159  -3.900  1.00  0.00    -0.265 OA
HETATM   30  C11 UNL     1      23.906 133.714  -2.931  1.00  0.00     0.227 C 
ENDBRANCH  26  29
ENDBRANCH  24  26
ENDBRANCH  23  24
ENDBRANCH   7  23
BRANCH   5  31
HETATM   31  N1  UNL     1      18.103 129.329  -3.096  1.00  0.00     0.088 N 
HETATM   32  C6  UNL     1      17.141 128.711  -2.203  1.00  0.00     0.310 C 
HETATM   33  C7  UNL     1      18.765 128.387  -3.937  1.00  0.00     0.310 C 
ENDBRANCH   5  31
TORSDOF 5
ENDMDL
MODEL 4
REMARK VINA RESULT: -8.852824512      4.121      6.942
REMARK  5 active torsions:
REMARK  status: ('A' for Active; 'I' for Inactive)
REMARK    1  A    between atoms: C5_5  and  N1_6 
REMARK    2  A    between atoms: C9_10  and  C10_11 
REMARK    3  A    between atoms: C10_11  and  N2_12 
REMARK    4  A    between atoms: N2_12  and  S1_14 
REMARK    5  A    between atoms: S1_14  and  O3_17 
ROOT
HETATM    1  C1  UNL     1      17.085 136.469  -1.521  1.00  0.00     0.019 C 
HETATM    2  C2  UNL     1      17.050 135.496  -2.449  1.00  0.00    -0.063 C 
HETATM    3  C3  UNL     1      17.897 135.669  -3.562  1.00  0.00     0.005 C 
HETATM    4  C4  UNL     1      17.876 136.038  -4.827  1.00  0.00     0.009 C 
HETATM    5  C5  UNL     1      16.754 136.490  -5.683  1.00  0.00     0.245 C 
HETATM    6  C8  UNL     1      16.309 135.515  -6.728  1.00  0.00     0.046 C 
HETATM    7  C9  UNL     1      14.896 135.387  -7.057  1.00  0.00     0.010 C 
HETATM    8  C12 UNL     1      14.048 134.265  -6.534  1.00  0.00     0.041 C 
HETATM    9  C13 UNL     1      14.715 133.080  -6.047  1.00  0.00    -0.073 C 
HETATM   10  C14 UNL     1      14.225 131.686  -6.461  1.00  0.00     0.038 C 
HETATM   11  C15 UNL     1      15.562 130.988  -6.060  1.00  0.00     0.047 C 
HETATM   12  C16 UNL     1      15.596 131.435  -4.616  1.00  0.00     0.082 C 
HETATM   13  C17 UNL     1      14.885 130.365  -3.901  1.00  0.00     0.051 C 
HETATM   14  O4  UNL     1      16.836 131.451  -3.999  1.00  0.00    -0.376 OA
HETATM   15  C18 UNL     1      16.972 132.406  -3.034  1.00  0.00     0.175 C 
HETATM   16  C19 UNL     1      15.832 133.177  -2.515  1.00  0.00     0.030 C 
HETATM   17  C20 UNL     1      16.140 134.463  -1.960  1.00  0.00     0.025 C 
HETATM   18  C21 UNL     1      14.790 135.100  -1.879  1.00  0.00     0.011 C 
HETATM   19  C22 UNL     1      14.215 134.712  -3.213  1.00  0.00     0.015 C 
HETATM   20  C23 UNL     1      14.594 133.302  -3.436  1.00  0.00    -0.011 C 
HETATM   21  C24 UNL     1      13.395 132.539  -2.904  1.00  0.00     0.021 C 
HETATM   22  C25 UNL     1      15.148 132.842  -4.697  1.00  0.00    -0.035 C 
ENDROOT
BRANCH   7  23
HETATM   23  C10 UNL     1      14.778 135.385  -8.590  1.00  0.00     0.139 C 
BRANCH  23  24
HETATM   24  N2  UNL     1      15.916 134.817  -9.239  1.00  0.00    -0.297 N 
ATOM     25  H2  UNL     1      16.323 133.899  -9.058  1.00  0.00     0.174 HD
BRANCH  24  26
HETATM   26  S1  UNL     1      16.473 135.984 -10.392  1.00  0.00     0.357 S 
HETATM   27  O1  UNL     1      17.250 137.051  -9.635  1.00  0.00    -0.176 OA
HETATM   28  O2  UNL     1      15.301 136.600 -11.100  1.00  0.00    -0.176 OA
BRANCH  26  29
HETATM   29  O3  UNL     1      17.445 135.220 -11.498  1.00  0.00    -0.265 OA
HETATM   30  C11 UNL     1      18.245 134.241 -10.946  1.00  0.00     0.227 C 
ENDBRANCH  26  29
ENDBRANCH  24  26
ENDBRANCH  23  24
ENDBRANCH   7  23
BRANCH   5  31
HETATM   31  N1  UNL     1      17.019 137.815  -6.230  1.00  0.00     0.088 N 
HETATM   32  C6  UNL     1      16.306 138.820  -5.464  1.00  0.00     0.310 C 
HETATM   33  C7  UNL     1      18.404 138.113  -6.385  1.00  0.00     0.310 C 
ENDBRANCH   5  31
TORSDOF 5
ENDMDL
MODEL 5
REMARK VINA RESULT: -8.848239005      2.183      4.519
REMARK  5 active torsions:
REMARK  status: ('A' for Active; 'I' for Inactive)
REMARK    1  A    between atoms: C5_5  and  N1_6 
REMARK    2  A    between atoms: C9_10  and  C10_11 
REMARK    3  A    between atoms: C10_11  and  N2_12 
REMARK    4  A    between atoms: N2_12  and  S1_14 
REMARK    5  A    between atoms: S1_14  and  O3_17 
ROOT
HETATM    1  C1  UNL     1      13.975 136.206  -3.723  1.00  0.00     0.019 C 
HETATM    2  C2  UNL     1      14.303 134.936  -3.429  1.00  0.00    -0.063 C 
HETATM    3  C3  UNL     1      15.070 134.749  -2.260  1.00  0.00     0.005 C 
HETATM    4  C4  UNL     1      16.305 134.519  -1.863  1.00  0.00     0.009 C 
HETATM    5  C5  UNL     1      17.555 134.352  -2.642  1.00  0.00     0.245 C 
HETATM    6  C8  UNL     1      18.099 132.958  -2.693  1.00  0.00     0.046 C 
HETATM    7  C9  UNL     1      18.720 132.458  -3.913  1.00  0.00     0.010 C 
HETATM    8  C12 UNL     1      18.002 131.550  -4.867  1.00  0.00     0.041 C 
HETATM    9  C13 UNL     1      16.848 130.831  -4.381  1.00  0.00    -0.073 C 
HETATM   10  C14 UNL     1      16.681 129.335  -4.679  1.00  0.00     0.038 C 
HETATM   11  C15 UNL     1      15.634 129.123  -3.542  1.00  0.00     0.047 C 
HETATM   12  C16 UNL     1      14.628 130.154  -4.001  1.00  0.00     0.082 C 
HETATM   13  C17 UNL     1      13.735 129.400  -4.892  1.00  0.00     0.051 C 
HETATM   14  O4  UNL     1      13.763 130.651  -3.040  1.00  0.00    -0.376 OA
HETATM   15  C18 UNL     1      13.366 131.939  -3.252  1.00  0.00     0.175 C 
HETATM   16  C19 UNL     1      13.623 132.650  -4.512  1.00  0.00     0.030 C 
HETATM   17  C20 UNL     1      13.673 134.081  -4.431  1.00  0.00     0.025 C 
HETATM   18  C21 UNL     1      14.293 134.448  -5.741  1.00  0.00     0.011 C 
HETATM   19  C22 UNL     1      15.390 133.424  -5.829  1.00  0.00     0.015 C 
HETATM   20  C23 UNL     1      14.807 132.146  -5.373  1.00  0.00    -0.011 C 
HETATM   21  C24 UNL     1      14.350 131.499  -6.668  1.00  0.00     0.021 C 
HETATM   22  C25 UNL     1      15.484 131.284  -4.421  1.00  0.00    -0.035 C 
ENDROOT
BRANCH   7  23
HETATM   23  C10 UNL     1      20.034 131.766  -3.510  1.00  0.00     0.139 C 
BRANCH  23  24
HETATM   24  N2  UNL     1      19.831 130.582  -2.741  1.00  0.00    -0.297 N 
ATOM     25  H2  UNL     1      19.217 130.481  -1.932  1.00  0.00     0.174 HD
BRANCH  24  26
HETATM   26  S1  UNL     1      20.825 129.348  -3.443  1.00  0.00     0.357 S 
HETATM   27  O1  UNL     1      20.054 128.734  -4.602  1.00  0.00    -0.176 OA
HETATM   28  O2  UNL     1      21.138 128.300  -2.413  1.00  0.00    -0.176 OA
BRANCH  26  29
HETATM   29  O3  UNL     1      22.237 130.038  -3.973  1.00  0.00    -0.265 OA
HETATM   30  C11 UNL     1      23.350 129.628  -3.271  1.00  0.00     0.227 C 
ENDBRANCH  26  29
ENDBRANCH  24  26
ENDBRANCH  23  24
ENDBRANCH   7  23
BRANCH   5  31
HETATM   31  N1  UNL     1      18.557 135.328  -2.232  1.00  0.00     0.088 N 
HETATM   32  C6  UNL     1      18.437 136.529  -3.037  1.00  0.00     0.310 C 
HETATM   33  C7  UNL     1      18.569 135.596  -0.832  1.00  0.00     0.310 C 
ENDBRANCH   5  31
TORSDOF 5
ENDMDL
