MODEL 1
REMARK VINA RESULT: -8.554871976      0.000      0.000
REMARK  9 active torsions:
REMARK  status: ('A' for Active; 'I' for Inactive)
REMARK    1  A    between atoms: C3_3  and  C4_4 
REMARK    2  A    between atoms: C11_11  and  O1_12 
REMARK    3  A    between atoms: O1_12  and  C12_13 
REMARK    4  A    between atoms: C20_22  and  O3_23 
REMARK    5  A    between atoms: O3_23  and  C21_24 
REMARK    6  A    between atoms: C21_24  and  C22_26 
REMARK    7  A    between atoms: C22_26  and  C23_27 
REMARK    8  A    between atoms: C22_26  and  N1_30 
REMARK    9  A    between atoms: C23_27  and  O5_28 
ROOT
HETATM    1  C1  UNL     1      27.197 134.402  -2.963  1.00  0.00     0.112 C 
HETATM    2  C2  UNL     1      26.157 133.376  -2.782  1.00  0.00    -0.106 C 
HETATM    3  C3  UNL     1      25.296 132.545  -2.616  1.00  0.00    -0.072 C 
ENDROOT
BRANCH   3   4
HETATM    4  C4  UNL     1      24.253 131.558  -2.394  1.00  0.00    -0.008 C 
HETATM    5  C5  UNL     1      24.310 130.347  -2.867  1.00  0.00    -0.010 C 
HETATM    6  C6  UNL     1      23.300 129.273  -2.696  1.00  0.00     0.033 C 
HETATM    7  C7  UNL     1      22.068 129.799  -2.061  1.00  0.00    -0.002 C 
HETATM    8  C8  UNL     1      21.888 131.279  -2.297  1.00  0.00    -0.003 C 
HETATM    9  C15 UNL     1      20.794 129.077  -2.469  1.00  0.00     0.002 C 
HETATM   10  C9  UNL     1      23.067 131.960  -1.588  1.00  0.00     0.053 C 
HETATM   11  C10 UNL     1      20.578 131.777  -1.792  1.00  0.00     0.038 C 
HETATM   12  C11 UNL     1      19.821 130.826  -0.931  1.00  0.00     0.141 C 
HETATM   13  C13 UNL     1      19.655 129.451  -1.545  1.00  0.00    -0.006 C 
HETATM   14  C14 UNL     1      19.809 128.481  -0.351  1.00  0.00     0.019 C 
HETATM   15  C28 UNL     1      18.308 129.187  -2.106  1.00  0.00    -0.030 C 
HETATM   16  C18 UNL     1      18.432 128.107  -3.168  1.00  0.00    -0.003 C 
HETATM   17  C27 UNL     1      17.599 130.330  -2.742  1.00  0.00     0.013 C 
HETATM   18  C29 UNL     1      17.383 128.597  -1.031  1.00  0.00     0.016 C 
HETATM   19  C17 UNL     1      19.255 128.564  -4.341  1.00  0.00     0.006 C 
HETATM   20  C19 UNL     1      17.119 127.615  -3.664  1.00  0.00     0.038 C 
HETATM   21  C16 UNL     1      20.496 129.315  -3.914  1.00  0.00     0.006 C 
HETATM   22  C20 UNL     1      16.263 128.741  -4.159  1.00  0.00     0.132 C 
HETATM   23  C26 UNL     1      16.241 129.937  -3.278  1.00  0.00     0.033 C 
BRANCH  12  24
HETATM   24  O1  UNL     1      20.473 130.780   0.340  1.00  0.00    -0.322 OA
BRANCH  24  25
HETATM   25  C12 UNL     1      20.437 131.780   1.276  1.00  0.00     0.398 C 
HETATM   26  O2  UNL     1      19.973 131.519   2.415  1.00  0.00    -0.276 OA
ENDBRANCH  24  25
ENDBRANCH  12  24
BRANCH  22  27
HETATM   27  O3  UNL     1      14.959 128.358  -4.490  1.00  0.00    -0.314 OA
BRANCH  27  28
HETATM   28  C21 UNL     1      13.965 129.209  -4.914  1.00  0.00     0.295 C 
HETATM   29  O4  UNL     1      13.327 129.789  -3.976  1.00  0.00    -0.263 OA
BRANCH  28  30
HETATM   30  C22 UNL     1      13.665 129.429  -6.342  1.00  0.00     0.343 C 
BRANCH  30  31
HETATM   31  C23 UNL     1      13.226 128.118  -6.990  1.00  0.00     0.210 C 
BRANCH  31  32
HETATM   32  O5  UNL     1      12.680 127.335  -5.961  1.00  0.00    -0.398 OA
ATOM     33  H5  UNL     1      12.978 126.446  -6.116  1.00  0.00     0.209 HD
ENDBRANCH  31  32
ENDBRANCH  30  31
BRANCH  30  34
HETATM   34  N1  UNL     1      14.733 130.069  -7.048  1.00  0.00     0.096 N 
HETATM   35  C24 UNL     1      14.699 129.920  -8.468  1.00  0.00     0.310 C 
HETATM   36  C25 UNL     1      14.787 131.483  -6.732  1.00  0.00     0.310 C 
ENDBRANCH  30  34
ENDBRANCH  28  30
ENDBRANCH  27  28
ENDBRANCH  22  27
ENDBRANCH   3   4
TORSDOF 9
ENDMDL
MODEL 2
REMARK VINA RESULT: -8.448828724      3.342      8.827
REMARK  9 active torsions:
REMARK  status: ('A' for Active; 'I' for Inactive)
REMARK    1  A    between atoms: C3_3  and  C4_4 
REMARK    2  A    between atoms: C11_11  and  O1_12 
REMARK    3  A    between atoms: O1_12  and  C12_13 
REMARK    4  A    between atoms: C20_22  and  O3_23 
REMARK    5  A    between atoms: O3_23  and  C21_24 
REMARK    6  A    between atoms: C21_24  and  C22_26 
REMARK    7  A    between atoms: C22_26  and  C23_27 
REMARK    8  A    between atoms: C22_26  and  N1_30 
REMARK    9  A    between atoms: C23_27  and  O5_28 
ROOT
HETATM    1  C1  UNL     1      12.886 136.355  -9.715  1.00  0.00     0.112 C 
HETATM    2  C2  UNL     1      13.434 135.681  -8.527  1.00  0.00    -0.106 C 
HETATM    3  C3  UNL     1      13.905 135.131  -7.559  1.00  0.00    -0.072 C 
ENDROOT
BRANCH   3   4
HETATM    4  C4  UNL     1      14.494 134.469  -6.408  1.00  0.00    -0.008 C 
HETATM    5  C5  UNL     1      15.039 135.117  -5.420  1.00  0.00    -0.010 C 
HETATM    6  C6  UNL     1      15.665 134.535  -4.207  1.00  0.00     0.033 C 
HETATM    7  C7  UNL     1      15.784 133.061  -4.326  1.00  0.00    -0.002 C 
HETATM    8  C8  UNL     1      15.832 132.605  -5.764  1.00  0.00    -0.003 C 
HETATM    9  C15 UNL     1      16.966 132.464  -3.580  1.00  0.00     0.002 C 
HETATM   10  C9  UNL     1      14.470 132.981  -6.366  1.00  0.00     0.053 C 
HETATM   11  C10 UNL     1      16.104 131.144  -5.884  1.00  0.00     0.038 C 
HETATM   12  C11 UNL     1      16.012 130.370  -4.616  1.00  0.00     0.141 C 
HETATM   13  C13 UNL     1      16.825 130.960  -3.483  1.00  0.00    -0.006 C 
HETATM   14  C14 UNL     1      15.943 130.748  -2.231  1.00  0.00     0.019 C 
HETATM   15  C28 UNL     1      18.097 130.250  -3.204  1.00  0.00    -0.030 C 
HETATM   16  C18 UNL     1      19.052 131.220  -2.527  1.00  0.00    -0.003 C 
HETATM   17  C27 UNL     1      18.826 129.675  -4.367  1.00  0.00     0.013 C 
HETATM   18  C29 UNL     1      17.871 129.123  -2.185  1.00  0.00     0.016 C 
HETATM   19  C17 UNL     1      19.437 132.355  -3.436  1.00  0.00     0.006 C 
HETATM   20  C19 UNL     1      20.289 130.569  -2.019  1.00  0.00     0.038 C 
HETATM   21  C16 UNL     1      18.253 132.908  -4.198  1.00  0.00     0.006 C 
HETATM   22  C20 UNL     1      20.994 129.809  -3.102  1.00  0.00     0.132 C 
HETATM   23  C26 UNL     1      20.104 128.982  -3.957  1.00  0.00     0.033 C 
BRANCH  12  24
HETATM   24  O1  UNL     1      14.627 130.246  -4.284  1.00  0.00    -0.322 OA
BRANCH  24  25
HETATM   25  C12 UNL     1      13.773 129.319  -4.822  1.00  0.00     0.398 C 
HETATM   26  O2  UNL     1      14.186 128.141  -4.978  1.00  0.00    -0.276 OA
ENDBRANCH  24  25
ENDBRANCH  12  24
BRANCH  22  27
HETATM   27  O3  UNL     1      22.076 129.048  -2.646  1.00  0.00    -0.314 OA
BRANCH  27  28
HETATM   28  C21 UNL     1      23.399 129.410  -2.751  1.00  0.00     0.295 C 
HETATM   29  O4  UNL     1      24.201 128.439  -2.937  1.00  0.00    -0.263 OA
BRANCH  28  30
HETATM   30  C22 UNL     1      23.848 130.812  -2.652  1.00  0.00     0.343 C 
BRANCH  30  31
HETATM   31  C23 UNL     1      24.259 131.326  -4.030  1.00  0.00     0.210 C 
BRANCH  31  32
HETATM   32  O5  UNL     1      23.802 130.376  -4.956  1.00  0.00    -0.398 OA
ATOM     33  H5  UNL     1      24.441 130.360  -5.659  1.00  0.00     0.209 HD
ENDBRANCH  31  32
ENDBRANCH  30  31
BRANCH  30  34
HETATM   34  N1  UNL     1      24.859 131.010  -1.659  1.00  0.00     0.096 N 
HETATM   35  C24 UNL     1      25.671 132.172  -1.839  1.00  0.00     0.310 C 
HETATM   36  C25 UNL     1      24.279 131.051  -0.331  1.00  0.00     0.310 C 
ENDBRANCH  30  34
ENDBRANCH  28  30
ENDBRANCH  27  28
ENDBRANCH  22  27
ENDBRANCH   3   4
TORSDOF 9
ENDMDL
MODEL 3
REMARK VINA RESULT: -8.337559508      3.167      8.979
REMARK  9 active torsions:
REMARK  status: ('A' for Active; 'I' for Inactive)
REMARK    1  A    between atoms: C3_3  and  C4_4 
REMARK    2  A    between atoms: C11_11  and  O1_12 
REMARK    3  A    between atoms: O1_12  and  C12_13 
REMARK    4  A    between atoms: C20_22  and  O3_23 
REMARK    5  A    between atoms: O3_23  and  C21_24 
REMARK    6  A    between atoms: C21_24  and  C22_26 
REMARK    7  A    between atoms: C22_26  and  C23_27 
REMARK    8  A    between atoms: C22_26  and  N1_30 
REMARK    9  A    between atoms: C23_27  and  O5_28 
ROOT
HETATM    1  C1  UNL     1      13.310 136.649 -10.195  1.00  0.00     0.112 C 
HETATM    2  C2  UNL     1      13.570 135.908  -8.949  1.00  0.00    -0.106 C 
HETATM    3  C3  UNL     1      13.801 135.313  -7.923  1.00  0.00    -0.072 C 
ENDROOT
BRANCH   3   4
HETATM    4  C4  UNL     1      14.101 134.611  -6.687  1.00  0.00    -0.008 C 
HETATM    5  C5  UNL     1      14.085 135.188  -5.521  1.00  0.00    -0.010 C 
HETATM    6  C6  UNL     1      14.376 134.560  -4.209  1.00  0.00     0.033 C 
HETATM    7  C7  UNL     1      14.900 133.184  -4.384  1.00  0.00    -0.002 C 
HETATM    8  C8  UNL     1      15.559 132.988  -5.727  1.00  0.00    -0.003 C 
HETATM    9  C15 UNL     1      15.860 132.734  -3.294  1.00  0.00     0.002 C 
HETATM   10  C9  UNL     1      14.444 133.164  -6.768  1.00  0.00     0.053 C 
HETATM   11  C10 UNL     1      16.218 131.657  -5.845  1.00  0.00     0.038 C 
HETATM   12  C11 UNL     1      15.891 130.684  -4.766  1.00  0.00     0.141 C 
HETATM   13  C13 UNL     1      16.082 131.238  -3.370  1.00  0.00    -0.006 C 
HETATM   14  C14 UNL     1      14.905 130.645  -2.562  1.00  0.00     0.019 C 
HETATM   15  C28 UNL     1      17.313 130.774  -2.686  1.00  0.00    -0.030 C 
HETATM   16  C18 UNL     1      17.693 131.799  -1.629  1.00  0.00    -0.003 C 
HETATM   17  C27 UNL     1      18.521 130.563  -3.528  1.00  0.00     0.013 C 
HETATM   18  C29 UNL     1      17.042 129.474  -1.914  1.00  0.00     0.016 C 
HETATM   19  C17 UNL     1      18.067 133.122  -2.239  1.00  0.00     0.006 C 
HETATM   20  C19 UNL     1      18.799 131.347  -0.742  1.00  0.00     0.038 C 
HETATM   21  C16 UNL     1      17.123 133.532  -3.347  1.00  0.00     0.006 C 
HETATM   22  C20 UNL     1      20.004 130.939  -1.533  1.00  0.00     0.132 C 
HETATM   23  C26 UNL     1      19.709 130.094  -2.720  1.00  0.00     0.033 C 
BRANCH  12  24
HETATM   24  O1  UNL     1      14.559 130.220  -4.990  1.00  0.00    -0.322 OA
BRANCH  24  25
HETATM   25  C12 UNL     1      14.169 129.435  -6.045  1.00  0.00     0.398 C 
HETATM   26  O2  UNL     1      14.816 128.384  -6.281  1.00  0.00    -0.276 OA
ENDBRANCH  24  25
ENDBRANCH  12  24
BRANCH  22  27
HETATM   27  O3  UNL     1      21.016 130.357  -0.762  1.00  0.00    -0.314 OA
BRANCH  27  28
HETATM   28  C21 UNL     1      22.300 130.837  -0.647  1.00  0.00     0.295 C 
HETATM   29  O4  UNL     1      22.841 130.639   0.489  1.00  0.00    -0.263 OA
BRANCH  28  30
HETATM   30  C22 UNL     1      22.991 131.528  -1.753  1.00  0.00     0.343 C 
BRANCH  30  31
HETATM   31  C23 UNL     1      23.604 130.503  -2.705  1.00  0.00     0.210 C 
BRANCH  31  32
HETATM   32  O5  UNL     1      23.253 129.240  -2.202  1.00  0.00    -0.398 OA
ATOM     33  H5  UNL     1      23.562 128.605  -2.837  1.00  0.00     0.209 HD
ENDBRANCH  31  32
ENDBRANCH  30  31
BRANCH  30  34
HETATM   34  N1  UNL     1      23.935 132.504  -1.304  1.00  0.00     0.096 N 
HETATM   35  C24 UNL     1      25.298 132.233  -1.638  1.00  0.00     0.310 C 
HETATM   36  C25 UNL     1      23.591 133.822  -1.799  1.00  0.00     0.310 C 
ENDBRANCH  30  34
ENDBRANCH  28  30
ENDBRANCH  27  28
ENDBRANCH  22  27
ENDBRANCH   3   4
TORSDOF 9
ENDMDL
MODEL 4
REMARK VINA RESULT: -8.107969875      3.958      9.549
REMARK  9 active torsions:
REMARK  status: ('A' for Active; 'I' for Inactive)
REMARK    1  A    between atoms: C3_3  and  C4_4 
REMARK    2  A    between atoms: C11_11  and  O1_12 
REMARK    3  A    between atoms: O1_12  and  C12_13 
REMARK    4  A    between atoms: C20_22  and  O3_23 
REMARK    5  A    between atoms: O3_23  and  C21_24 
REMARK    6  A    between atoms: C21_24  and  C22_26 
REMARK    7  A    between atoms: C22_26  and  C23_27 
REMARK    8  A    between atoms: C22_26  and  N1_30 
REMARK    9  A    between atoms: C23_27  and  O5_28 
ROOT
HETATM    1  C1  UNL     1      12.168 127.321  -6.267  1.00  0.00     0.112 C 
HETATM    2  C2  UNL     1      13.456 127.760  -5.704  1.00  0.00    -0.106 C 
HETATM    3  C3  UNL     1      14.504 128.140  -5.238  1.00  0.00    -0.072 C 
ENDROOT
BRANCH   3   4
HETATM    4  C4  UNL     1      15.753 128.622  -4.675  1.00  0.00    -0.008 C 
HETATM    5  C5  UNL     1      16.696 127.829  -4.258  1.00  0.00    -0.010 C 
HETATM    6  C6  UNL     1      18.001 128.222  -3.671  1.00  0.00     0.033 C 
HETATM    7  C7  UNL     1      18.050 129.683  -3.418  1.00  0.00    -0.002 C 
HETATM    8  C8  UNL     1      16.676 130.278  -3.231  1.00  0.00    -0.003 C 
HETATM    9  C15 UNL     1      18.926 130.088  -2.244  1.00  0.00     0.002 C 
HETATM   10  C9  UNL     1      15.956 130.094  -4.575  1.00  0.00     0.053 C 
HETATM   11  C10 UNL     1      16.732 131.712  -2.828  1.00  0.00     0.038 C 
HETATM   12  C11 UNL     1      18.069 132.357  -2.941  1.00  0.00     0.141 C 
HETATM   13  C13 UNL     1      19.178 131.580  -2.262  1.00  0.00    -0.006 C 
HETATM   14  C14 UNL     1      20.390 131.742  -3.207  1.00  0.00     0.019 C 
HETATM   15  C28 UNL     1      19.609 132.137  -0.957  1.00  0.00    -0.030 C 
HETATM   16  C18 UNL     1      20.231 131.019  -0.137  1.00  0.00    -0.003 C 
HETATM   17  C27 UNL     1      18.561 132.759  -0.102  1.00  0.00     0.013 C 
HETATM   18  C29 UNL     1      20.729 133.169  -1.156  1.00  0.00     0.016 C 
HETATM   19  C17 UNL     1      19.229 129.952   0.211  1.00  0.00     0.006 C 
HETATM   20  C19 UNL     1      20.881 131.496   1.113  1.00  0.00     0.038 C 
HETATM   21  C16 UNL     1      18.342 129.593  -0.959  1.00  0.00     0.006 C 
HETATM   22  C20 UNL     1      19.932 132.295   1.953  1.00  0.00     0.132 C 
HETATM   23  C26 UNL     1      19.120 133.285   1.200  1.00  0.00     0.033 C 
BRANCH  12  24
HETATM   24  O1  UNL     1      18.328 132.574  -4.329  1.00  0.00    -0.322 OA
BRANCH  24  25
HETATM   25  C12 UNL     1      17.618 133.424  -5.136  1.00  0.00     0.398 C 
HETATM   26  O2  UNL     1      17.171 132.984  -6.226  1.00  0.00    -0.276 OA
ENDBRANCH  24  25
ENDBRANCH  12  24
BRANCH  22  27
HETATM   27  O3  UNL     1      20.531 132.902   3.062  1.00  0.00    -0.314 OA
BRANCH  27  28
HETATM   28  C21 UNL     1      21.845 133.303   3.132  1.00  0.00     0.295 C 
HETATM   29  O4  UNL     1      22.101 134.394   2.527  1.00  0.00    -0.263 OA
BRANCH  28  30
HETATM   30  C22 UNL     1      22.874 132.527   3.852  1.00  0.00     0.343 C 
BRANCH  30  31
HETATM   31  C23 UNL     1      22.933 132.970   5.313  1.00  0.00     0.210 C 
BRANCH  31  32
HETATM   32  O5  UNL     1      21.810 133.786   5.522  1.00  0.00    -0.398 OA
ATOM     33  H5  UNL     1      22.137 134.675   5.589  1.00  0.00     0.209 HD
ENDBRANCH  31  32
ENDBRANCH  30  31
BRANCH  30  34
HETATM   34  N1  UNL     1      24.152 132.556   3.210  1.00  0.00     0.096 N 
HETATM   35  C24 UNL     1      25.224 133.062   4.008  1.00  0.00     0.310 C 
HETATM   36  C25 UNL     1      24.517 131.240   2.725  1.00  0.00     0.310 C 
ENDBRANCH  30  34
ENDBRANCH  28  30
ENDBRANCH  27  28
ENDBRANCH  22  27
ENDBRANCH   3   4
TORSDOF 9
ENDMDL
MODEL 5
REMARK VINA RESULT: -8.066061647      6.952     10.764
REMARK  9 active torsions:
REMARK  status: ('A' for Active; 'I' for Inactive)
REMARK    1  A    between atoms: C3_3  and  C4_4 
REMARK    2  A    between atoms: C11_11  and  O1_12 
REMARK    3  A    between atoms: O1_12  and  C12_13 
REMARK    4  A    between atoms: C20_22  and  O3_23 
REMARK    5  A    between atoms: O3_23  and  C21_24 
REMARK    6  A    between atoms: C21_24  and  C22_26 
REMARK    7  A    between atoms: C22_26  and  C23_27 
REMARK    8  A    between atoms: C22_26  and  N1_30 
REMARK    9  A    between atoms: C23_27  and  O5_28 
ROOT
HETATM    1  C1  UNL     1      12.349 127.131  -5.298  1.00  0.00     0.112 C 
HETATM    2  C2  UNL     1      13.151 128.349  -5.096  1.00  0.00    -0.106 C 
HETATM    3  C3  UNL     1      13.816 129.341  -4.909  1.00  0.00    -0.072 C 
ENDROOT
BRANCH   3   4
HETATM    4  C4  UNL     1      14.618 130.526  -4.660  1.00  0.00    -0.008 C 
HETATM    5  C5  UNL     1      15.745 130.496  -4.010  1.00  0.00    -0.010 C 
HETATM    6  C6  UNL     1      16.632 131.646  -3.706  1.00  0.00     0.033 C 
HETATM    7  C7  UNL     1      15.982 132.929  -4.070  1.00  0.00    -0.002 C 
HETATM    8  C8  UNL     1      14.476 132.829  -4.065  1.00  0.00    -0.003 C 
HETATM    9  C15 UNL     1      16.401 134.111  -3.211  1.00  0.00     0.002 C 
HETATM   10  C9  UNL     1      14.121 131.831  -5.177  1.00  0.00     0.053 C 
HETATM   11  C10 UNL     1      13.822 134.151  -4.281  1.00  0.00     0.038 C 
HETATM   12  C11 UNL     1      14.728 135.249  -4.720  1.00  0.00     0.141 C 
HETATM   13  C13 UNL     1      15.955 135.410  -3.846  1.00  0.00    -0.006 C 
HETATM   14  C14 UNL     1      17.088 135.747  -4.842  1.00  0.00     0.019 C 
HETATM   15  C28 UNL     1      15.893 136.555  -2.905  1.00  0.00    -0.030 C 
HETATM   16  C18 UNL     1      16.825 136.269  -1.738  1.00  0.00    -0.003 C 
HETATM   17  C27 UNL     1      14.566 136.884  -2.319  1.00  0.00     0.013 C 
HETATM   18  C29 UNL     1      16.446 137.826  -3.567  1.00  0.00     0.016 C 
HETATM   19  C17 UNL     1      16.370 135.083  -0.933  1.00  0.00     0.006 C 
HETATM   20  C19 UNL     1      17.000 137.432  -0.827  1.00  0.00     0.038 C 
HETATM   21  C16 UNL     1      15.920 133.934  -1.806  1.00  0.00     0.006 C 
HETATM   22  C20 UNL     1      15.682 137.944  -0.332  1.00  0.00     0.132 C 
HETATM   23  C26 UNL     1      14.632 138.063  -1.376  1.00  0.00     0.033 C 
BRANCH  12  24
HETATM   24  O1  UNL     1      15.062 135.013  -6.089  1.00  0.00    -0.322 OA
BRANCH  24  25
HETATM   25  C12 UNL     1      14.152 134.866  -7.104  1.00  0.00     0.398 C 
HETATM   26  O2  UNL     1      13.399 135.835  -7.378  1.00  0.00    -0.276 OA
ENDBRANCH  24  25
ENDBRANCH  12  24
BRANCH  22  27
HETATM   27  O3  UNL     1      15.775 139.132   0.401  1.00  0.00    -0.314 OA
BRANCH  27  28
HETATM   28  C21 UNL     1      15.349 139.299   1.698  1.00  0.00     0.295 C 
HETATM   29  O4  UNL     1      15.759 138.408   2.511  1.00  0.00    -0.263 OA
BRANCH  28  30
HETATM   30  C22 UNL     1      14.484 140.421   2.110  1.00  0.00     0.343 C 
BRANCH  30  31
HETATM   31  C23 UNL     1      13.016 140.046   1.915  1.00  0.00     0.210 C 
BRANCH  31  32
HETATM   32  O5  UNL     1      12.992 138.663   1.678  1.00  0.00    -0.398 OA
ATOM     33  H5  UNL     1      12.893 138.249   2.527  1.00  0.00     0.209 HD
ENDBRANCH  31  32
ENDBRANCH  30  31
BRANCH  30  34
HETATM   34  N1  UNL     1      14.830 141.658   1.481  1.00  0.00     0.096 N 
HETATM   35  C24 UNL     1      13.803 142.652   1.483  1.00  0.00     0.310 C 
HETATM   36  C25 UNL     1      16.024 142.225   2.077  1.00  0.00     0.310 C 
ENDBRANCH  30  34
ENDBRANCH  28  30
ENDBRANCH  27  28
ENDBRANCH  22  27
ENDBRANCH   3   4
TORSDOF 9
ENDMDL
