MODEL 1
REMARK VINA RESULT: -10.122433596      0.000      0.000
REMARK  6 active torsions:
REMARK  status: ('A' for Active; 'I' for Inactive)
REMARK    1  A    between atoms: S1_2  and  C1_4 
REMARK    2  A    between atoms: S1_2  and  N3_24 
REMARK    3  A    between atoms: C4_9  and  C5_10 
REMARK    4  A    between atoms: C5_10  and  N2_11 
REMARK    5  A    between atoms: N2_11  and  C6_13 
REMARK    6  A    between atoms: N4_27  and  C19_28 
ROOT
HETATM    1  C1  UNL     1      22.965 130.062  -1.827  1.00  0.00     0.095 A 
HETATM    2  C2  UNL     1      24.273 129.939  -2.191  1.00  0.00     0.112 A 
HETATM    3  N1  UNL     1      25.240 130.457  -1.378  1.00  0.00    -0.373 N 
ATOM      4  H1  UNL     1      26.221 130.370  -1.642  1.00  0.00     0.164 HD
HETATM    5  C3  UNL     1      24.912 131.082  -0.232  1.00  0.00     0.100 A 
HETATM    6  C4  UNL     1      23.593 131.225   0.168  1.00  0.00    -0.004 A 
HETATM    7  C16 UNL     1      22.626 130.715  -0.631  1.00  0.00     0.040 A 
ENDROOT
BRANCH   1   8
HETATM    8  S1  UNL     1      21.678 129.378  -2.801  1.00  0.00     0.262 S 
HETATM    9  O1  UNL     1      21.911 127.853  -2.855  1.00  0.00    -0.200 OA
HETATM   10  O2  UNL     1      21.979 129.864  -4.231  1.00  0.00    -0.200 OA
BRANCH   8  11
HETATM   11  N3  UNL     1      20.125 129.714  -2.319  1.00  0.00    -0.304 N 
HETATM   12  C17 UNL     1      19.351 130.544  -3.128  1.00  0.00     0.154 C 
HETATM   13  C18 UNL     1      18.371 129.618  -3.891  1.00  0.00     0.137 C 
HETATM   14  N4  UNL     1      17.620 128.880  -2.946  1.00  0.00    -0.405 N 
HETATM   15  C25 UNL     1      17.907 129.053  -1.571  1.00  0.00     0.137 C 
HETATM   16  C26 UNL     1      19.440 128.876  -1.429  1.00  0.00     0.154 C 
BRANCH  14  17
HETATM   17  C19 UNL     1      16.255 128.756  -3.320  1.00  0.00     0.079 C 
HETATM   18  C20 UNL     1      16.048 128.047  -4.641  1.00  0.00     0.025 C 
HETATM   19  C21 UNL     1      14.562 127.963  -4.892  1.00  0.00     0.002 C 
HETATM   20  C22 UNL     1      14.039 129.369  -5.093  1.00  0.00     0.000 C 
HETATM   21  C23 UNL     1      14.241 130.167  -3.847  1.00  0.00     0.002 C 
HETATM   22  C24 UNL     1      15.636 130.127  -3.314  1.00  0.00     0.025 C 
ENDBRANCH  14  17
ENDBRANCH   8  11
ENDBRANCH   1   8
BRANCH   6  23
HETATM   23  C5  UNL     1      23.271 131.876   1.452  1.00  0.00     0.096 C 
BRANCH  23  24
HETATM   24  N2  UNL     1      24.402 132.328   2.127  1.00  0.00    -0.389 N 
ATOM     25  H2  UNL     1      25.111 132.871   1.635  1.00  0.00     0.159 HD
BRANCH  24  26
HETATM   26  C6  UNL     1      24.558 132.028   3.500  1.00  0.00     0.030 C 
HETATM   27  C7  UNL     1      25.366 133.035   4.290  1.00  0.00     0.035 C 
HETATM   28  C8  UNL     1      25.351 132.665   5.742  1.00  0.00    -0.012 C 
HETATM   29  C9  UNL     1      23.985 132.542   6.337  1.00  0.00     0.009 C 
HETATM   30  C13 UNL     1      26.138 131.363   5.891  1.00  0.00     0.009 C 
HETATM   31  C10 UNL     1      23.241 131.476   5.569  1.00  0.00    -0.012 C 
HETATM   32  C11 UNL     1      23.972 130.147   5.612  1.00  0.00     0.009 C 
HETATM   33  C15 UNL     1      23.190 131.922   4.134  1.00  0.00     0.035 C 
HETATM   34  C12 UNL     1      25.387 130.328   5.114  1.00  0.00    -0.012 C 
HETATM   35  C14 UNL     1      25.339 130.712   3.661  1.00  0.00     0.035 C 
ENDBRANCH  24  26
ENDBRANCH  23  24
ENDBRANCH   6  23
TORSDOF 6
ENDMDL
MODEL 2
REMARK VINA RESULT: -10.081491683      4.975      8.751
REMARK  6 active torsions:
REMARK  status: ('A' for Active; 'I' for Inactive)
REMARK    1  A    between atoms: S1_2  and  C1_4 
REMARK    2  A    between atoms: S1_2  and  N3_24 
REMARK    3  A    between atoms: C4_9  and  C5_10 
REMARK    4  A    between atoms: C5_10  and  N2_11 
REMARK    5  A    between atoms: N2_11  and  C6_13 
REMARK    6  A    between atoms: N4_27  and  C19_28 
ROOT
HETATM    1  C1  UNL     1      19.066 131.238  -1.503  1.00  0.00     0.095 A 
HETATM    2  C2  UNL     1      19.348 131.299  -0.170  1.00  0.00     0.112 A 
HETATM    3  N1  UNL     1      18.947 132.391   0.543  1.00  0.00    -0.373 N 
ATOM      4  H1  UNL     1      19.154 132.446   1.541  1.00  0.00     0.164 HD
HETATM    5  C3  UNL     1      18.280 133.396  -0.054  1.00  0.00     0.100 A 
HETATM    6  C4  UNL     1      17.976 133.366  -1.405  1.00  0.00    -0.004 A 
HETATM    7  C16 UNL     1      18.370 132.288  -2.124  1.00  0.00     0.040 A 
ENDROOT
BRANCH   1   8
HETATM    8  S1  UNL     1      19.511 129.844  -2.467  1.00  0.00     0.262 S 
HETATM    9  O1  UNL     1      20.628 129.101  -1.704  1.00  0.00    -0.200 OA
HETATM   10  O2  UNL     1      20.218 130.438  -3.699  1.00  0.00    -0.200 OA
BRANCH   8  11
HETATM   11  N3  UNL     1      18.285 128.798  -2.868  1.00  0.00    -0.304 N 
HETATM   12  C17 UNL     1      17.066 128.929  -2.205  1.00  0.00     0.154 C 
HETATM   13  C18 UNL     1      16.104 129.631  -3.196  1.00  0.00     0.137 C 
HETATM   14  N4  UNL     1      16.031 128.857  -4.378  1.00  0.00    -0.405 N 
HETATM   15  C25 UNL     1      16.830 127.693  -4.474  1.00  0.00     0.137 C 
HETATM   16  C26 UNL     1      18.269 128.131  -4.101  1.00  0.00     0.154 C 
BRANCH  14  17
HETATM   17  C19 UNL     1      14.710 128.789  -4.897  1.00  0.00     0.079 C 
HETATM   18  C20 UNL     1      14.063 127.430  -4.738  1.00  0.00     0.025 C 
HETATM   19  C21 UNL     1      12.665 127.516  -5.302  1.00  0.00     0.002 C 
HETATM   20  C22 UNL     1      12.774 127.748  -6.793  1.00  0.00     0.000 C 
HETATM   21  C23 UNL     1      13.445 129.057  -7.054  1.00  0.00     0.002 C 
HETATM   22  C24 UNL     1      14.742 129.233  -6.334  1.00  0.00     0.025 C 
ENDBRANCH  14  17
ENDBRANCH   8  11
ENDBRANCH   1   8
BRANCH   6  23
HETATM   23  C5  UNL     1      17.204 134.464  -2.019  1.00  0.00     0.096 C 
BRANCH  23  24
HETATM   24  N2  UNL     1      17.144 134.370  -3.407  1.00  0.00    -0.389 N 
ATOM     25  H2  UNL     1      17.996 134.424  -3.964  1.00  0.00     0.159 HD
BRANCH  24  26
HETATM   26  C6  UNL     1      15.890 134.198  -4.038  1.00  0.00     0.030 C 
HETATM   27  C7  UNL     1      15.453 135.346  -4.922  1.00  0.00     0.035 C 
HETATM   28  C8  UNL     1      14.177 134.986  -5.621  1.00  0.00    -0.012 C 
HETATM   29  C9  UNL     1      14.245 133.729  -6.428  1.00  0.00     0.009 C 
HETATM   30  C13 UNL     1      13.081 134.901  -4.559  1.00  0.00     0.009 C 
HETATM   31  C10 UNL     1      14.608 132.600  -5.495  1.00  0.00    -0.012 C 
HETATM   32  C11 UNL     1      13.603 132.464  -4.366  1.00  0.00     0.009 C 
HETATM   33  C15 UNL     1      15.937 132.946  -4.882  1.00  0.00     0.035 C 
HETATM   34  C12 UNL     1      13.470 133.784  -3.643  1.00  0.00    -0.012 C 
HETATM   35  C14 UNL     1      14.780 134.099  -2.975  1.00  0.00     0.035 C 
ENDBRANCH  24  26
ENDBRANCH  23  24
ENDBRANCH   6  23
TORSDOF 6
ENDMDL
MODEL 3
REMARK VINA RESULT: -10.075638235      0.126      1.314
REMARK  6 active torsions:
REMARK  status: ('A' for Active; 'I' for Inactive)
REMARK    1  A    between atoms: S1_2  and  C1_4 
REMARK    2  A    between atoms: S1_2  and  N3_24 
REMARK    3  A    between atoms: C4_9  and  C5_10 
REMARK    4  A    between atoms: C5_10  and  N2_11 
REMARK    5  A    between atoms: N2_11  and  C6_13 
REMARK    6  A    between atoms: N4_27  and  C19_28 
ROOT
HETATM    1  C1  UNL     1      22.965 130.077  -1.832  1.00  0.00     0.095 A 
HETATM    2  C2  UNL     1      24.275 129.957  -2.190  1.00  0.00     0.112 A 
HETATM    3  N1  UNL     1      25.235 130.487  -1.378  1.00  0.00    -0.373 N 
ATOM      4  H1  UNL     1      26.218 130.403  -1.638  1.00  0.00     0.164 HD
HETATM    5  C3  UNL     1      24.900 131.118  -0.237  1.00  0.00     0.100 A 
HETATM    6  C4  UNL     1      23.580 131.256   0.158  1.00  0.00    -0.004 A 
HETATM    7  C16 UNL     1      22.618 130.736  -0.641  1.00  0.00     0.040 A 
ENDROOT
BRANCH   1   8
HETATM    8  S1  UNL     1      21.685 129.379  -2.805  1.00  0.00     0.262 S 
HETATM    9  O1  UNL     1      21.934 127.856  -2.859  1.00  0.00    -0.200 OA
HETATM   10  O2  UNL     1      21.980 129.867  -4.235  1.00  0.00    -0.200 OA
BRANCH   8  11
HETATM   11  N3  UNL     1      20.128 129.698  -2.322  1.00  0.00    -0.304 N 
HETATM   12  C17 UNL     1      19.352 130.538  -3.118  1.00  0.00     0.154 C 
HETATM   13  C18 UNL     1      18.380 129.622  -3.901  1.00  0.00     0.137 C 
HETATM   14  N4  UNL     1      17.630 128.862  -2.973  1.00  0.00    -0.405 N 
HETATM   15  C25 UNL     1      17.911 129.012  -1.594  1.00  0.00     0.137 C 
HETATM   16  C26 UNL     1      19.445 128.840  -1.450  1.00  0.00     0.154 C 
BRANCH  14  17
HETATM   17  C19 UNL     1      16.267 128.739  -3.354  1.00  0.00     0.079 C 
HETATM   18  C20 UNL     1      16.070 128.084  -4.704  1.00  0.00     0.025 C 
HETATM   19  C21 UNL     1      14.584 127.993  -4.960  1.00  0.00     0.002 C 
HETATM   20  C22 UNL     1      14.046 129.399  -5.102  1.00  0.00     0.000 C 
HETATM   21  C23 UNL     1      14.237 130.147  -3.823  1.00  0.00     0.002 C 
HETATM   22  C24 UNL     1      15.632 130.101  -3.291  1.00  0.00     0.025 C 
ENDBRANCH  14  17
ENDBRANCH   8  11
ENDBRANCH   1   8
BRANCH   6  23
HETATM   23  C5  UNL     1      23.250 131.914   1.437  1.00  0.00     0.096 C 
BRANCH  23  24
HETATM   24  N2  UNL     1      24.380 132.276   2.165  1.00  0.00    -0.389 N 
ATOM     25  H2  UNL     1      25.170 132.723   1.700  1.00  0.00     0.159 HD
BRANCH  24  26
HETATM   26  C6  UNL     1      24.423 132.018   3.555  1.00  0.00     0.030 C 
HETATM   27  C7  UNL     1      23.073 131.868   4.222  1.00  0.00     0.035 C 
HETATM   28  C8  UNL     1      23.261 131.478   5.657  1.00  0.00    -0.012 C 
HETATM   29  C9  UNL     1      24.063 130.233   5.862  1.00  0.00     0.009 C 
HETATM   30  C13 UNL     1      23.896 132.669   6.375  1.00  0.00     0.009 C 
HETATM   31  C10 UNL     1      25.425 130.455   5.249  1.00  0.00    -0.012 C 
HETATM   32  C11 UNL     1      26.123 131.655   5.861  1.00  0.00     0.009 C 
HETATM   33  C15 UNL     1      25.208 130.749   3.790  1.00  0.00     0.035 C 
HETATM   34  C12 UNL     1      25.237 132.874   5.743  1.00  0.00    -0.012 C 
HETATM   35  C14 UNL     1      25.072 133.207   4.286  1.00  0.00     0.035 C 
ENDBRANCH  24  26
ENDBRANCH  23  24
ENDBRANCH   6  23
TORSDOF 6
ENDMDL
MODEL 4
REMARK VINA RESULT: -9.860536380      4.615      8.787
REMARK  6 active torsions:
REMARK  status: ('A' for Active; 'I' for Inactive)
REMARK    1  A    between atoms: S1_2  and  C1_4 
REMARK    2  A    between atoms: S1_2  and  N3_24 
REMARK    3  A    between atoms: C4_9  and  C5_10 
REMARK    4  A    between atoms: C5_10  and  N2_11 
REMARK    5  A    between atoms: N2_11  and  C6_13 
REMARK    6  A    between atoms: N4_27  and  C19_28 
ROOT
HETATM    1  C1  UNL     1      19.459 132.218  -0.352  1.00  0.00     0.095 A 
HETATM    2  C2  UNL     1      20.469 133.104  -0.120  1.00  0.00     0.112 A 
HETATM    3  N1  UNL     1      20.224 134.440  -0.257  1.00  0.00    -0.373 N 
ATOM      4  H1  UNL     1      20.974 135.110  -0.086  1.00  0.00     0.164 HD
HETATM    5  C3  UNL     1      19.004 134.883  -0.613  1.00  0.00     0.100 A 
HETATM    6  C4  UNL     1      17.955 134.011  -0.854  1.00  0.00    -0.004 A 
HETATM    7  C16 UNL     1      18.187 132.683  -0.723  1.00  0.00     0.040 A 
ENDROOT
BRANCH   1   8
HETATM    8  S1  UNL     1      19.693 130.493  -0.149  1.00  0.00     0.262 S 
HETATM    9  O1  UNL     1      19.027 130.098   1.186  1.00  0.00    -0.200 OA
HETATM   10  O2  UNL     1      21.203 130.339   0.114  1.00  0.00    -0.200 OA
BRANCH   8  11
HETATM   11  N3  UNL     1      19.150 129.521  -1.381  1.00  0.00    -0.304 N 
HETATM   12  C17 UNL     1      17.929 128.870  -1.214  1.00  0.00     0.154 C 
HETATM   13  C18 UNL     1      16.897 129.654  -2.062  1.00  0.00     0.137 C 
HETATM   14  N4  UNL     1      17.347 129.688  -3.403  1.00  0.00    -0.405 N 
HETATM   15  C25 UNL     1      18.596 129.098  -3.711  1.00  0.00     0.137 C 
HETATM   16  C26 UNL     1      19.608 129.684  -2.695  1.00  0.00     0.154 C 
BRANCH  14  17
HETATM   17  C19 UNL     1      16.289 129.505  -4.332  1.00  0.00     0.079 C 
HETATM   18  C20 UNL     1      15.126 130.451  -4.123  1.00  0.00     0.025 C 
HETATM   19  C21 UNL     1      14.099 130.163  -5.193  1.00  0.00     0.002 C 
HETATM   20  C22 UNL     1      13.549 128.775  -4.953  1.00  0.00     0.000 C 
HETATM   21  C23 UNL     1      14.641 127.766  -5.094  1.00  0.00     0.002 C 
HETATM   22  C24 UNL     1      15.858 128.065  -4.283  1.00  0.00     0.025 C 
ENDBRANCH  14  17
ENDBRANCH   8  11
ENDBRANCH   1   8
BRANCH   6  23
HETATM   23  C5  UNL     1      16.618 134.532  -1.199  1.00  0.00     0.096 C 
BRANCH  23  24
HETATM   24  N2  UNL     1      15.943 133.724  -2.110  1.00  0.00    -0.389 N 
ATOM     25  H2  UNL     1      15.913 132.714  -1.979  1.00  0.00     0.159 HD
BRANCH  24  26
HETATM   26  C6  UNL     1      15.300 134.318  -3.221  1.00  0.00     0.030 C 
HETATM   27  C7  UNL     1      15.084 135.812  -3.115  1.00  0.00     0.035 C 
HETATM   28  C8  UNL     1      14.509 136.330  -4.399  1.00  0.00    -0.012 C 
HETATM   29  C9  UNL     1      15.328 136.027  -5.613  1.00  0.00     0.009 C 
HETATM   30  C13 UNL     1      13.096 135.762  -4.530  1.00  0.00     0.009 C 
HETATM   31  C10 UNL     1      15.454 134.526  -5.721  1.00  0.00    -0.012 C 
HETATM   32  C11 UNL     1      14.095 133.857  -5.805  1.00  0.00     0.009 C 
HETATM   33  C15 UNL     1      16.120 134.048  -4.461  1.00  0.00     0.035 C 
HETATM   34  C12 UNL     1      13.248 134.277  -4.625  1.00  0.00    -0.012 C 
HETATM   35  C14 UNL     1      13.879 133.743  -3.369  1.00  0.00     0.035 C 
ENDBRANCH  24  26
ENDBRANCH  23  24
ENDBRANCH   6  23
TORSDOF 6
ENDMDL
MODEL 5
REMARK VINA RESULT: -9.860075255      4.584     10.393
REMARK  6 active torsions:
REMARK  status: ('A' for Active; 'I' for Inactive)
REMARK    1  A    between atoms: S1_2  and  C1_4 
REMARK    2  A    between atoms: S1_2  and  N3_24 
REMARK    3  A    between atoms: C4_9  and  C5_10 
REMARK    4  A    between atoms: C5_10  and  N2_11 
REMARK    5  A    between atoms: N2_11  and  C6_13 
REMARK    6  A    between atoms: N4_27  and  C19_28 
ROOT
HETATM    1  C1  UNL     1      16.920 129.129  -2.601  1.00  0.00     0.095 A 
HETATM    2  C2  UNL     1      17.028 127.816  -2.953  1.00  0.00     0.112 A 
HETATM    3  N1  UNL     1      16.157 127.301  -3.869  1.00  0.00    -0.373 N 
ATOM      4  H1  UNL     1      16.230 126.320  -4.138  1.00  0.00     0.164 HD
HETATM    5  C3  UNL     1      15.204 128.074  -4.422  1.00  0.00     0.100 A 
HETATM    6  C4  UNL     1      15.067 129.411  -4.089  1.00  0.00    -0.004 A 
HETATM    7  C16 UNL     1      15.925 129.933  -3.180  1.00  0.00     0.040 A 
ENDROOT
BRANCH   1   8
HETATM    8  S1  UNL     1      18.035 129.864  -1.466  1.00  0.00     0.262 S 
HETATM    9  O1  UNL     1      17.824 129.168  -0.105  1.00  0.00    -0.200 OA
HETATM   10  O2  UNL     1      17.488 131.289  -1.258  1.00  0.00    -0.200 OA
BRANCH   8  11
HETATM   11  N3  UNL     1      19.642 129.845  -1.888  1.00  0.00    -0.304 N 
HETATM   12  C17 UNL     1      19.980 130.163  -3.202  1.00  0.00     0.154 C 
HETATM   13  C18 UNL     1      20.530 131.611  -3.172  1.00  0.00     0.137 C 
HETATM   14  N4  UNL     1      21.621 131.661  -2.274  1.00  0.00    -0.405 N 
HETATM   15  C25 UNL     1      21.965 130.486  -1.564  1.00  0.00     0.137 C 
HETATM   16  C26 UNL     1      20.650 129.974  -0.924  1.00  0.00     0.154 C 
BRANCH  14  17
HETATM   17  C19 UNL     1      22.684 132.467  -2.761  1.00  0.00     0.079 C 
HETATM   18  C20 UNL     1      24.054 131.860  -2.549  1.00  0.00     0.025 C 
HETATM   19  C21 UNL     1      25.074 132.805  -3.138  1.00  0.00     0.002 C 
HETATM   20  C22 UNL     1      25.058 134.080  -2.325  1.00  0.00     0.000 C 
HETATM   21  C23 UNL     1      23.721 134.735  -2.436  1.00  0.00     0.002 C 
HETATM   22  C24 UNL     1      22.571 133.831  -2.137  1.00  0.00     0.025 C 
ENDBRANCH  14  17
ENDBRANCH   8  11
ENDBRANCH   1   8
BRANCH   6  23
HETATM   23  C5  UNL     1      14.041 130.242  -4.748  1.00  0.00     0.096 C 
BRANCH  23  24
HETATM   24  N2  UNL     1      14.580 131.141  -5.664  1.00  0.00    -0.389 N 
ATOM     25  H2  UNL     1      14.966 130.806  -6.547  1.00  0.00     0.159 HD
BRANCH  24  26
HETATM   26  C6  UNL     1      14.588 132.522  -5.361  1.00  0.00     0.030 C 
HETATM   27  C7  UNL     1      14.176 133.432  -6.498  1.00  0.00     0.035 C 
HETATM   28  C8  UNL     1      14.108 134.848  -6.010  1.00  0.00    -0.012 C 
HETATM   29  C9  UNL     1      13.198 135.060  -4.844  1.00  0.00     0.009 C 
HETATM   30  C13 UNL     1      15.535 135.288  -5.685  1.00  0.00     0.009 C 
HETATM   31  C10 UNL     1      13.690 134.192  -3.710  1.00  0.00    -0.012 C 
HETATM   32  C11 UNL     1      15.125 134.517  -3.343  1.00  0.00     0.009 C 
HETATM   33  C15 UNL     1      13.655 132.770  -4.198  1.00  0.00     0.035 C 
HETATM   34  C12 UNL     1      16.002 134.408  -4.569  1.00  0.00    -0.012 C 
HETATM   35  C14 UNL     1      16.019 132.973  -5.019  1.00  0.00     0.035 C 
ENDBRANCH  24  26
ENDBRANCH  23  24
ENDBRANCH   6  23
TORSDOF 6
ENDMDL
