MODEL 1
REMARK VINA RESULT: -7.893423286      0.000      0.000
REMARK  9 active torsions:
REMARK  status: ('A' for Active; 'I' for Inactive)
REMARK    1  A    between atoms: C2_2  and  C3_3 
REMARK    2  A    between atoms: C13_13  and  O1_14 
REMARK    3  A    between atoms: O1_14  and  C14_15 
REMARK    4  A    between atoms: C17_19  and  O3_20 
REMARK    5  A    between atoms: C22_26  and  C23_27 
REMARK    6  A    between atoms: C23_27  and  O5_29 
REMARK    7  A    between atoms: O5_29  and  C24_30 
REMARK    8  A    between atoms: C24_30  and  C25_31 
REMARK    9  A    between atoms: C25_31  and  N1_32 
ROOT
HETATM    1  C3  UNL     1      16.712 132.961  -3.018  1.00  0.00    -0.007 C 
HETATM    2  C4  UNL     1      18.202 133.220  -3.126  1.00  0.00     0.021 C 
HETATM    3  C5  UNL     1      16.259 133.693  -1.805  1.00  0.00     0.017 C 
HETATM    4  C6  UNL     1      17.417 133.774  -0.766  1.00  0.00     0.015 C 
HETATM    5  C7  UNL     1      15.649 135.001  -1.814  1.00  0.00    -0.014 C 
HETATM    6  C8  UNL     1      14.797 135.575  -2.852  1.00  0.00    -0.062 C 
HETATM    7  C9  UNL     1      14.468 136.818  -2.500  1.00  0.00     0.019 C 
HETATM    8  C10 UNL     1      14.108 135.317  -4.153  1.00  0.00    -0.007 C 
HETATM    9  C11 UNL     1      12.893 136.193  -4.384  1.00  0.00     0.021 C 
HETATM   10  C12 UNL     1      13.443 133.982  -3.860  1.00  0.00     0.048 C 
HETATM   11  C13 UNL     1      14.498 132.954  -3.808  1.00  0.00     0.146 C 
HETATM   12  C16 UNL     1      15.898 133.233  -4.244  1.00  0.00     0.037 C 
HETATM   13  C17 UNL     1      16.007 132.303  -5.410  1.00  0.00     0.131 C 
HETATM   14  C18 UNL     1      15.054 132.798  -6.483  1.00  0.00     0.033 C 
HETATM   15  C19 UNL     1      14.491 134.146  -6.373  1.00  0.00     0.014 C 
HETATM   16  C20 UNL     1      14.951 135.117  -5.342  1.00  0.00    -0.019 C 
HETATM   17  C21 UNL     1      15.277 136.474  -5.984  1.00  0.00     0.017 C 
HETATM   18  C22 UNL     1      16.275 134.540  -4.795  1.00  0.00     0.109 C 
ENDROOT
BRANCH  18  19
HETATM   19  C23 UNL     1      17.274 134.665  -5.881  1.00  0.00     0.264 C 
HETATM   20  O4  UNL     1      18.488 135.016  -5.723  1.00  0.00    -0.265 OA
BRANCH  19  21
HETATM   21  O5  UNL     1      17.145 134.450  -7.223  1.00  0.00    -0.319 OA
BRANCH  21  22
HETATM   22  C24 UNL     1      17.539 135.131  -8.337  1.00  0.00     0.206 C 
BRANCH  22  23
HETATM   23  C25 UNL     1      16.474 135.115  -9.401  1.00  0.00     0.262 C 
BRANCH  23  24
HETATM   24  N1  UNL     1      15.996 136.466  -9.684  1.00  0.00    -0.077 N 
HETATM   25  C26 UNL     1      16.903 137.419  -9.073  1.00  0.00     0.271 C 
HETATM   26  C27 UNL     1      14.641 136.664  -9.239  1.00  0.00     0.271 C 
HETATM   27  C28 UNL     1      16.051 136.656 -11.101  1.00  0.00     0.271 C 
ENDBRANCH  23  24
ENDBRANCH  22  23
ENDBRANCH  21  22
ENDBRANCH  19  21
ENDBRANCH  18  19
BRANCH   1  28
HETATM   28  C2  UNL     1      16.693 131.479  -2.834  1.00  0.00    -0.026 C 
HETATM   29  C1  UNL     1      17.647 130.656  -2.579  1.00  0.00     0.008 C 
ENDBRANCH   1  28
BRANCH  11  30
HETATM   30  O1  UNL     1      13.858 131.835  -4.408  1.00  0.00    -0.315 OA
BRANCH  30  31
HETATM   31  C14 UNL     1      13.514 130.689  -3.820  1.00  0.00     0.255 C 
HETATM   32  C15 UNL     1      13.898 129.328  -4.338  1.00  0.00     0.126 C 
HETATM   33  O2  UNL     1      12.829 130.706  -2.767  1.00  0.00    -0.266 OA
ENDBRANCH  30  31
ENDBRANCH  11  30
BRANCH  13  34
HETATM   34  O3  UNL     1      17.254 131.989  -5.870  1.00  0.00    -0.395 OA
ATOM     35  H3  UNL     1      17.336 131.670  -6.761  1.00  0.00     0.210 HD
ENDBRANCH  13  34
TORSDOF 9
ENDMDL
MODEL 2
REMARK VINA RESULT: -7.862237154      2.417      6.448
REMARK  9 active torsions:
REMARK  status: ('A' for Active; 'I' for Inactive)
REMARK    1  A    between atoms: C2_2  and  C3_3 
REMARK    2  A    between atoms: C13_13  and  O1_14 
REMARK    3  A    between atoms: O1_14  and  C14_15 
REMARK    4  A    between atoms: C17_19  and  O3_20 
REMARK    5  A    between atoms: C22_26  and  C23_27 
REMARK    6  A    between atoms: C23_27  and  O5_29 
REMARK    7  A    between atoms: O5_29  and  C24_30 
REMARK    8  A    between atoms: C24_30  and  C25_31 
REMARK    9  A    between atoms: C25_31  and  N1_32 
ROOT
HETATM    1  C3  UNL     1      16.637 136.088  -8.593  1.00  0.00    -0.007 C 
HETATM    2  C4  UNL     1      15.514 135.343  -9.287  1.00  0.00     0.021 C 
HETATM    3  C5  UNL     1      16.527 137.501  -9.045  1.00  0.00     0.017 C 
HETATM    4  C6  UNL     1      15.920 137.557 -10.479  1.00  0.00     0.015 C 
HETATM    5  C7  UNL     1      15.875 138.554  -8.304  1.00  0.00    -0.014 C 
HETATM    6  C8  UNL     1      15.786 138.691  -6.852  1.00  0.00    -0.062 C 
HETATM    7  C9  UNL     1      15.070 139.779  -6.567  1.00  0.00     0.019 C 
HETATM    8  C10 UNL     1      16.205 138.115  -5.539  1.00  0.00    -0.007 C 
HETATM    9  C11 UNL     1      16.224 139.124  -4.408  1.00  0.00     0.021 C 
HETATM   10  C12 UNL     1      17.695 137.928  -5.776  1.00  0.00     0.048 C 
HETATM   11  C13 UNL     1      17.864 136.811  -6.723  1.00  0.00     0.146 C 
HETATM   12  C16 UNL     1      16.730 135.921  -7.108  1.00  0.00     0.037 C 
HETATM   13  C17 UNL     1      17.210 134.618  -6.553  1.00  0.00     0.131 C 
HETATM   14  C18 UNL     1      17.238 134.746  -5.041  1.00  0.00     0.033 C 
HETATM   15  C19 UNL     1      16.545 135.869  -4.405  1.00  0.00     0.014 C 
HETATM   16  C20 UNL     1      15.667 136.796  -5.171  1.00  0.00    -0.019 C 
HETATM   17  C21 UNL     1      14.312 136.965  -4.466  1.00  0.00     0.017 C 
HETATM   18  C22 UNL     1      15.397 136.090  -6.517  1.00  0.00     0.109 C 
ENDROOT
BRANCH  18  19
HETATM   19  C23 UNL     1      14.527 134.929  -6.221  1.00  0.00     0.264 C 
HETATM   20  O4  UNL     1      13.690 134.415  -7.033  1.00  0.00    -0.265 OA
BRANCH  19  21
HETATM   21  O5  UNL     1      14.417 134.179  -5.086  1.00  0.00    -0.319 OA
BRANCH  21  22
HETATM   22  C24 UNL     1      13.843 132.978  -4.792  1.00  0.00     0.206 C 
BRANCH  22  23
HETATM   23  C25 UNL     1      14.838 132.022  -4.190  1.00  0.00     0.262 C 
BRANCH  23  24
HETATM   24  N1  UNL     1      14.844 130.751  -4.909  1.00  0.00    -0.077 N 
HETATM   25  C26 UNL     1      16.176 130.179  -4.833  1.00  0.00     0.271 C 
HETATM   26  C27 UNL     1      14.408 130.899  -6.273  1.00  0.00     0.271 C 
HETATM   27  C28 UNL     1      13.950 129.864  -4.229  1.00  0.00     0.271 C 
ENDBRANCH  23  24
ENDBRANCH  22  23
ENDBRANCH  21  22
ENDBRANCH  19  21
ENDBRANCH  18  19
BRANCH   1  28
HETATM   28  C2  UNL     1      17.832 135.395  -9.159  1.00  0.00    -0.026 C 
HETATM   29  C1  UNL     1      17.945 134.624 -10.181  1.00  0.00     0.008 C 
ENDBRANCH   1  28
BRANCH  11  30
HETATM   30  O1  UNL     1      19.033 136.171  -6.227  1.00  0.00    -0.315 OA
BRANCH  30  31
HETATM   31  C14 UNL     1      20.149 136.753  -5.787  1.00  0.00     0.255 C 
HETATM   32  C15 UNL     1      20.719 136.546  -4.408  1.00  0.00     0.126 C 
HETATM   33  O2  UNL     1      20.792 137.525  -6.540  1.00  0.00    -0.266 OA
ENDBRANCH  30  31
ENDBRANCH  11  30
BRANCH  13  34
HETATM   34  O3  UNL     1      16.627 133.469  -7.007  1.00  0.00    -0.395 OA
ATOM     35  H3  UNL     1      16.538 132.742  -6.402  1.00  0.00     0.210 HD
ENDBRANCH  13  34
TORSDOF 9
ENDMDL
MODEL 3
REMARK VINA RESULT: -7.590244311      3.075      6.144
REMARK  9 active torsions:
REMARK  status: ('A' for Active; 'I' for Inactive)
REMARK    1  A    between atoms: C2_2  and  C3_3 
REMARK    2  A    between atoms: C13_13  and  O1_14 
REMARK    3  A    between atoms: O1_14  and  C14_15 
REMARK    4  A    between atoms: C17_19  and  O3_20 
REMARK    5  A    between atoms: C22_26  and  C23_27 
REMARK    6  A    between atoms: C23_27  and  O5_29 
REMARK    7  A    between atoms: O5_29  and  C24_30 
REMARK    8  A    between atoms: C24_30  and  C25_31 
REMARK    9  A    between atoms: C25_31  and  N1_32 
ROOT
HETATM    1  C3  UNL     1      15.042 131.834  -3.782  1.00  0.00    -0.007 C 
HETATM    2  C4  UNL     1      14.782 130.644  -2.878  1.00  0.00     0.021 C 
HETATM    3  C5  UNL     1      14.036 132.861  -3.400  1.00  0.00     0.017 C 
HETATM    4  C6  UNL     1      12.744 132.172  -2.868  1.00  0.00     0.015 C 
HETATM    5  C7  UNL     1      14.288 133.965  -2.504  1.00  0.00    -0.014 C 
HETATM    6  C8  UNL     1      15.545 134.683  -2.314  1.00  0.00    -0.062 C 
HETATM    7  C9  UNL     1      15.372 135.610  -1.371  1.00  0.00     0.019 C 
HETATM    8  C10 UNL     1      16.958 134.824  -2.777  1.00  0.00    -0.007 C 
HETATM    9  C11 UNL     1      17.550 136.196  -2.526  1.00  0.00     0.021 C 
HETATM   10  C12 UNL     1      16.757 134.874  -4.284  1.00  0.00     0.048 C 
HETATM   11  C13 UNL     1      16.369 133.525  -4.733  1.00  0.00     0.146 C 
HETATM   12  C16 UNL     1      16.451 132.337  -3.833  1.00  0.00     0.037 C 
HETATM   13  C17 UNL     1      17.486 131.528  -4.548  1.00  0.00     0.131 C 
HETATM   14  C18 UNL     1      18.796 132.289  -4.471  1.00  0.00     0.033 C 
HETATM   15  C19 UNL     1      18.924 133.402  -3.526  1.00  0.00     0.014 C 
HETATM   16  C20 UNL     1      17.877 133.705  -2.512  1.00  0.00    -0.019 C 
HETATM   17  C21 UNL     1      18.503 133.866  -1.118  1.00  0.00     0.017 C 
HETATM   18  C22 UNL     1      16.973 132.454  -2.465  1.00  0.00     0.109 C 
ENDROOT
BRANCH  18  19
HETATM   19  C23 UNL     1      17.774 131.374  -1.846  1.00  0.00     0.264 C 
HETATM   20  O4  UNL     1      17.295 130.391  -1.191  1.00  0.00    -0.265 OA
BRANCH  19  21
HETATM   21  O5  UNL     1      19.125 131.181  -1.826  1.00  0.00    -0.319 OA
BRANCH  21  22
HETATM   22  C24 UNL     1      19.933 130.150  -1.448  1.00  0.00     0.206 C 
BRANCH  22  23
HETATM   23  C25 UNL     1      20.797 129.679  -2.587  1.00  0.00     0.262 C 
BRANCH  23  24
HETATM   24  N1  UNL     1      22.175 130.132  -2.423  1.00  0.00    -0.077 N 
HETATM   25  C26 UNL     1      23.069 129.060  -2.817  1.00  0.00     0.271 C 
HETATM   26  C27 UNL     1      22.441 130.577  -1.079  1.00  0.00     0.271 C 
HETATM   27  C28 UNL     1      22.381 131.227  -3.322  1.00  0.00     0.271 C 
ENDBRANCH  23  24
ENDBRANCH  22  23
ENDBRANCH  21  22
ENDBRANCH  19  21
ENDBRANCH  18  19
BRANCH   1  28
HETATM   28  C2  UNL     1      14.771 131.237  -5.124  1.00  0.00    -0.026 C 
HETATM   29  C1  UNL     1      14.302 130.085  -5.447  1.00  0.00     0.008 C 
ENDBRANCH   1  28
BRANCH  11  30
HETATM   30  O1  UNL     1      17.037 133.420  -5.984  1.00  0.00    -0.315 OA
BRANCH  30  31
HETATM   31  C14 UNL     1      16.717 134.031  -7.124  1.00  0.00     0.255 C 
HETATM   32  C15 UNL     1      15.305 134.223  -7.611  1.00  0.00     0.126 C 
HETATM   33  O2  UNL     1      17.623 134.491  -7.863  1.00  0.00    -0.266 OA
ENDBRANCH  30  31
ENDBRANCH  11  30
BRANCH  13  34
HETATM   34  O3  UNL     1      17.590 130.201  -4.244  1.00  0.00    -0.395 OA
ATOM     35  H3  UNL     1      17.301 129.913  -3.386  1.00  0.00     0.210 HD
ENDBRANCH  13  34
TORSDOF 9
ENDMDL
MODEL 4
REMARK VINA RESULT: -7.524934246      2.870      5.822
REMARK  9 active torsions:
REMARK  status: ('A' for Active; 'I' for Inactive)
REMARK    1  A    between atoms: C2_2  and  C3_3 
REMARK    2  A    between atoms: C13_13  and  O1_14 
REMARK    3  A    between atoms: O1_14  and  C14_15 
REMARK    4  A    between atoms: C17_19  and  O3_20 
REMARK    5  A    between atoms: C22_26  and  C23_27 
REMARK    6  A    between atoms: C23_27  and  O5_29 
REMARK    7  A    between atoms: O5_29  and  C24_30 
REMARK    8  A    between atoms: C24_30  and  C25_31 
REMARK    9  A    between atoms: C25_31  and  N1_32 
ROOT
HETATM    1  C3  UNL     1      14.814 131.840  -3.758  1.00  0.00    -0.007 C 
HETATM    2  C4  UNL     1      14.884 130.699  -2.763  1.00  0.00     0.021 C 
HETATM    3  C5  UNL     1      13.699 132.711  -3.300  1.00  0.00     0.017 C 
HETATM    4  C6  UNL     1      12.626 131.859  -2.559  1.00  0.00     0.015 C 
HETATM    5  C7  UNL     1      13.861 133.908  -2.509  1.00  0.00    -0.014 C 
HETATM    6  C8  UNL     1      14.986 134.840  -2.534  1.00  0.00    -0.062 C 
HETATM    7  C9  UNL     1      14.771 135.795  -1.629  1.00  0.00     0.019 C 
HETATM    8  C10 UNL     1      16.282 135.179  -3.193  1.00  0.00    -0.007 C 
HETATM    9  C11 UNL     1      16.649 136.647  -3.102  1.00  0.00     0.021 C 
HETATM   10  C12 UNL     1      15.888 135.076  -4.658  1.00  0.00     0.048 C 
HETATM   11  C13 UNL     1      15.692 133.650  -4.974  1.00  0.00     0.146 C 
HETATM   12  C16 UNL     1      16.094 132.567  -4.030  1.00  0.00     0.037 C 
HETATM   13  C17 UNL     1      17.158 131.890  -4.833  1.00  0.00     0.131 C 
HETATM   14  C18 UNL     1      18.313 132.864  -4.979  1.00  0.00     0.033 C 
HETATM   15  C19 UNL     1      18.359 134.052  -4.124  1.00  0.00     0.014 C 
HETATM   16  C20 UNL     1      17.410 134.255  -2.995  1.00  0.00    -0.019 C 
HETATM   17  C21 UNL     1      18.167 134.627  -1.710  1.00  0.00     0.017 C 
HETATM   18  C22 UNL     1      16.754 132.877  -2.755  1.00  0.00     0.109 C 
ENDROOT
BRANCH  18  19
HETATM   19  C23 UNL     1      17.805 131.998  -2.192  1.00  0.00     0.264 C 
HETATM   20  O4  UNL     1      17.599 131.039  -1.379  1.00  0.00    -0.265 OA
BRANCH  19  21
HETATM   21  O5  UNL     1      19.155 132.003  -2.392  1.00  0.00    -0.319 OA
BRANCH  21  22
HETATM   22  C24 UNL     1      20.179 131.199  -1.985  1.00  0.00     0.206 C 
BRANCH  22  23
HETATM   23  C25 UNL     1      20.815 130.483  -3.147  1.00  0.00     0.262 C 
BRANCH  23  24
HETATM   24  N1  UNL     1      20.840 129.040  -2.924  1.00  0.00    -0.077 N 
HETATM   25  C26 UNL     1      20.173 128.386  -4.034  1.00  0.00     0.271 C 
HETATM   26  C27 UNL     1      20.249 128.678  -1.662  1.00  0.00     0.271 C 
HETATM   27  C28 UNL     1      22.210 128.625  -2.931  1.00  0.00     0.271 C 
ENDBRANCH  23  24
ENDBRANCH  22  23
ENDBRANCH  21  22
ENDBRANCH  19  21
ENDBRANCH  18  19
BRANCH   1  28
HETATM   28  C2  UNL     1      14.488 131.103  -5.015  1.00  0.00    -0.026 C 
HETATM   29  C1  UNL     1      14.157 129.875  -5.202  1.00  0.00     0.008 C 
ENDBRANCH   1  28
BRANCH  11  30
HETATM   30  O1  UNL     1      16.206 133.561  -6.297  1.00  0.00    -0.315 OA
BRANCH  30  31
HETATM   31  C14 UNL     1      15.678 134.080  -7.406  1.00  0.00     0.255 C 
HETATM   32  C15 UNL     1      14.271 134.608  -7.503  1.00  0.00     0.126 C 
HETATM   33  O2  UNL     1      16.368 134.151  -8.453  1.00  0.00    -0.266 OA
ENDBRANCH  30  31
ENDBRANCH  11  30
BRANCH  13  34
HETATM   34  O3  UNL     1      17.533 130.627  -4.473  1.00  0.00    -0.395 OA
ATOM     35  H3  UNL     1      18.157 130.170  -5.025  1.00  0.00     0.210 HD
ENDBRANCH  13  34
TORSDOF 9
ENDMDL
MODEL 5
REMARK VINA RESULT: -7.519135678      1.370      1.984
REMARK  9 active torsions:
REMARK  status: ('A' for Active; 'I' for Inactive)
REMARK    1  A    between atoms: C2_2  and  C3_3 
REMARK    2  A    between atoms: C13_13  and  O1_14 
REMARK    3  A    between atoms: O1_14  and  C14_15 
REMARK    4  A    between atoms: C17_19  and  O3_20 
REMARK    5  A    between atoms: C22_26  and  C23_27 
REMARK    6  A    between atoms: C23_27  and  O5_29 
REMARK    7  A    between atoms: O5_29  and  C24_30 
REMARK    8  A    between atoms: C24_30  and  C25_31 
REMARK    9  A    between atoms: C25_31  and  N1_32 
ROOT
HETATM    1  C3  UNL     1      16.952 132.896  -3.830  1.00  0.00    -0.007 C 
HETATM    2  C4  UNL     1      18.162 133.050  -4.730  1.00  0.00     0.021 C 
HETATM    3  C5  UNL     1      17.473 132.936  -2.437  1.00  0.00     0.017 C 
HETATM    4  C6  UNL     1      18.927 132.377  -2.395  1.00  0.00     0.015 C 
HETATM    5  C7  UNL     1      17.481 134.108  -1.596  1.00  0.00    -0.014 C 
HETATM    6  C8  UNL     1      16.512 135.201  -1.590  1.00  0.00    -0.062 C 
HETATM    7  C9  UNL     1      16.894 136.110  -0.692  1.00  0.00     0.019 C 
HETATM    8  C10 UNL     1      15.230 135.706  -2.168  1.00  0.00    -0.007 C 
HETATM    9  C11 UNL     1      14.491 136.673  -1.265  1.00  0.00     0.021 C 
HETATM   10  C12 UNL     1      14.355 134.469  -2.036  1.00  0.00     0.048 C 
HETATM   11  C13 UNL     1      14.823 133.477  -3.021  1.00  0.00     0.146 C 
HETATM   12  C16 UNL     1      15.807 133.825  -4.088  1.00  0.00     0.037 C 
HETATM   13  C17 UNL     1      14.965 133.620  -5.307  1.00  0.00     0.131 C 
HETATM   14  C18 UNL     1      13.871 134.671  -5.291  1.00  0.00     0.033 C 
HETATM   15  C19 UNL     1      13.989 135.813  -4.381  1.00  0.00     0.014 C 
HETATM   16  C20 UNL     1      15.224 136.075  -3.593  1.00  0.00    -0.019 C 
HETATM   17  C21 UNL     1      15.669 137.538  -3.753  1.00  0.00     0.017 C 
HETATM   18  C22 UNL     1      16.318 135.193  -4.234  1.00  0.00     0.109 C 
ENDROOT
BRANCH  18  19
HETATM   19  C23 UNL     1      16.606 135.775  -5.565  1.00  0.00     0.264 C 
HETATM   20  O4  UNL     1      17.709 135.655  -6.193  1.00  0.00    -0.265 OA
BRANCH  19  21
HETATM   21  O5  UNL     1      15.818 136.529  -6.385  1.00  0.00    -0.319 OA
BRANCH  21  22
HETATM   22  C24 UNL     1      15.912 136.937  -7.683  1.00  0.00     0.206 C 
BRANCH  22  23
HETATM   23  C25 UNL     1      14.967 136.173  -8.573  1.00  0.00     0.262 C 
BRANCH  23  24
HETATM   24  N1  UNL     1      14.751 136.876  -9.834  1.00  0.00    -0.077 N 
HETATM   25  C26 UNL     1      14.692 138.302  -9.568  1.00  0.00     0.271 C 
HETATM   26  C27 UNL     1      13.569 136.415 -10.514  1.00  0.00     0.271 C 
HETATM   27  C28 UNL     1      15.890 136.633 -10.666  1.00  0.00     0.271 C 
ENDBRANCH  23  24
ENDBRANCH  22  23
ENDBRANCH  21  22
ENDBRANCH  19  21
ENDBRANCH  18  19
BRANCH   1  28
HETATM   28  C2  UNL     1      16.474 131.537  -4.225  1.00  0.00    -0.026 C 
HETATM   29  C1  UNL     1      17.064 130.601  -4.878  1.00  0.00     0.008 C 
ENDBRANCH   1  28
BRANCH  11  30
HETATM   30  O1  UNL     1      13.605 132.882  -3.450  1.00  0.00    -0.315 OA
BRANCH  30  31
HETATM   31  C14 UNL     1      13.066 131.742  -3.018  1.00  0.00     0.255 C 
HETATM   32  C15 UNL     1      13.411 130.384  -3.570  1.00  0.00     0.126 C 
HETATM   33  O2  UNL     1      12.215 131.762  -2.094  1.00  0.00    -0.266 OA
ENDBRANCH  30  31
ENDBRANCH  11  30
BRANCH  13  34
HETATM   34  O3  UNL     1      15.596 133.485  -6.511  1.00  0.00    -0.395 OA
ATOM     35  H3  UNL     1      16.167 132.736  -6.637  1.00  0.00     0.210 HD
ENDBRANCH  13  34
TORSDOF 9
ENDMDL
