MODEL 1
REMARK VINA RESULT: -10.583909276      0.000      0.000
REMARK  2 active torsions:
REMARK  status: ('A' for Active; 'I' for Inactive)
REMARK    1  A    between atoms: C5_14  and  C6_15 
REMARK    2  A    between atoms: N5_19  and  C10_20 
ROOT
HETATM    1  N1  UNL     1       6.560  73.616  48.096  1.00  0.00    -0.383 N 
ATOM      2  H11 UNL     1       6.469  73.312  49.065  1.00  0.00     0.157 HD
ATOM      3  H12 UNL     1       6.486  72.917  47.358  1.00  0.00     0.157 HD
HETATM    4  C1  UNL     1       6.764  74.838  47.764  1.00  0.00     0.131 A 
HETATM    5  N2  UNL     1       6.883  75.235  46.497  1.00  0.00    -0.337 N 
ATOM      6  H2  UNL     1       6.811  74.545  45.750  1.00  0.00     0.168 HD
HETATM    7  C2  UNL     1       7.095  76.520  46.182  1.00  0.00     0.183 A 
HETATM    8  N3  UNL     1       7.184  77.389  47.175  1.00  0.00    -0.336 N 
ATOM      9  H3  UNL     1       7.347  78.363  46.920  1.00  0.00     0.168 HD
HETATM   10  C3  UNL     1       7.081  77.118  48.489  1.00  0.00     0.141 A 
HETATM   11  C4  UNL     1       6.864  75.790  48.769  1.00  0.00     0.122 A 
HETATM   12  N4  UNL     1       6.792  75.724  50.099  1.00  0.00    -0.339 N 
ATOM     13  H4  UNL     1       6.637  74.868  50.631  1.00  0.00     0.167 HD
HETATM   14  C5  UNL     1       6.959  76.976  50.653  1.00  0.00     0.090 A 
HETATM   15  N5  UNL     1       7.137  77.836  49.658  1.00  0.00    -0.310 N 
ENDROOT
BRANCH  15  16
HETATM   16  C10 UNL     1       7.375  79.254  49.612  1.00  0.00     0.041 C 
HETATM   17  C11 UNL     1       8.884  79.419  49.730  1.00  0.00     0.036 C 
HETATM   18  C12 UNL     1       9.391  80.823  49.690  1.00  0.00    -0.012 C 
HETATM   19  C13 UNL     1       9.543  81.412  48.335  1.00  0.00     0.005 C 
HETATM   20  C18 UNL     1       8.714  81.726  50.692  1.00  0.00     0.009 C 
HETATM   21  C14 UNL     1       8.350  81.639  47.536  1.00  0.00     0.005 C 
HETATM   22  C15 UNL     1       7.029  81.289  48.138  1.00  0.00    -0.012 C 
HETATM   23  C16 UNL     1       6.686  82.128  49.320  1.00  0.00     0.009 C 
HETATM   24  C20 UNL     1       6.831  79.808  48.337  1.00  0.00     0.036 C 
HETATM   25  C17 UNL     1       7.257  81.527  50.560  1.00  0.00    -0.012 C 
HETATM   26  C19 UNL     1       6.813  80.064  50.722  1.00  0.00     0.036 C 
ENDBRANCH  15  16
BRANCH  14  27
HETATM   27  C6  UNL     1       6.936  77.197  52.099  1.00  0.00     0.054 C 
HETATM   28  C7  UNL     1       6.390  75.918  52.792  1.00  0.00     0.012 C 
HETATM   29  C8  UNL     1       7.381  76.227  53.912  1.00  0.00     0.002 C 
HETATM   30  C9  UNL     1       8.245  76.812  52.803  1.00  0.00     0.012 C 
ENDBRANCH  14  27
TORSDOF 2
ENDMDL
MODEL 2
REMARK VINA RESULT: -9.701356241      0.441      1.526
REMARK  2 active torsions:
REMARK  status: ('A' for Active; 'I' for Inactive)
REMARK    1  A    between atoms: C5_14  and  C6_15 
REMARK    2  A    between atoms: N5_19  and  C10_20 
ROOT
HETATM    1  N1  UNL     1       6.585  73.599  48.285  1.00  0.00    -0.383 N 
ATOM      2  H11 UNL     1       6.546  73.402  49.285  1.00  0.00     0.157 HD
ATOM      3  H12 UNL     1       6.466  72.826  47.632  1.00  0.00     0.157 HD
HETATM    4  C1  UNL     1       6.779  74.776  47.813  1.00  0.00     0.131 A 
HETATM    5  N2  UNL     1       6.830  75.034  46.506  1.00  0.00    -0.337 N 
ATOM      6  H2  UNL     1       6.712  74.269  45.843  1.00  0.00     0.168 HD
HETATM    7  C2  UNL     1       7.033  76.275  46.044  1.00  0.00     0.183 A 
HETATM    8  N3  UNL     1       7.183  77.244  46.932  1.00  0.00    -0.336 N 
ATOM      9  H3  UNL     1       7.338  78.183  46.565  1.00  0.00     0.168 HD
HETATM   10  C3  UNL     1       7.151  77.116  48.271  1.00  0.00     0.141 A 
HETATM   11  C4  UNL     1       6.941  75.829  48.703  1.00  0.00     0.122 A 
HETATM   12  N4  UNL     1       6.943  75.907  50.034  1.00  0.00    -0.339 N 
ATOM     13  H4  UNL     1       6.811  75.114  50.663  1.00  0.00     0.167 HD
HETATM   14  C5  UNL     1       7.148  77.209  50.441  1.00  0.00     0.090 A 
HETATM   15  N5  UNL     1       7.277  77.954  49.351  1.00  0.00    -0.310 N 
ENDROOT
BRANCH  15  16
HETATM   16  C10 UNL     1       7.522  79.356  49.140  1.00  0.00     0.041 C 
HETATM   17  C11 UNL     1       7.231  80.027  50.475  1.00  0.00     0.036 C 
HETATM   18  C12 UNL     1       7.430  81.506  50.517  1.00  0.00    -0.012 C 
HETATM   19  C13 UNL     1       8.830  81.960  50.720  1.00  0.00     0.005 C 
HETATM   20  C18 UNL     1       6.689  82.237  49.424  1.00  0.00     0.009 C 
HETATM   21  C14 UNL     1       9.809  81.686  49.680  1.00  0.00     0.005 C 
HETATM   22  C15 UNL     1       9.341  80.983  48.448  1.00  0.00    -0.012 C 
HETATM   23  C16 UNL     1       8.367  81.784  47.654  1.00  0.00     0.009 C 
HETATM   24  C20 UNL     1       8.931  79.552  48.688  1.00  0.00     0.036 C 
HETATM   25  C17 UNL     1       6.981  81.549  48.150  1.00  0.00    -0.012 C 
HETATM   26  C19 UNL     1       6.644  80.049  48.163  1.00  0.00     0.036 C 
ENDBRANCH  15  16
BRANCH  14  27
HETATM   27  C6  UNL     1       7.208  77.583  51.854  1.00  0.00     0.054 C 
HETATM   28  C7  UNL     1       6.494  76.486  52.692  1.00  0.00     0.012 C 
HETATM   29  C8  UNL     1       7.556  76.753  53.755  1.00  0.00     0.002 C 
HETATM   30  C9  UNL     1       8.464  77.075  52.576  1.00  0.00     0.012 C 
ENDBRANCH  14  27
TORSDOF 2
ENDMDL
MODEL 3
REMARK VINA RESULT: -8.719761885      1.902      3.426
REMARK  2 active torsions:
REMARK  status: ('A' for Active; 'I' for Inactive)
REMARK    1  A    between atoms: C5_14  and  C6_15 
REMARK    2  A    between atoms: N5_19  and  C10_20 
ROOT
HETATM    1  N1  UNL     1       6.664  74.860  49.749  1.00  0.00    -0.383 N 
ATOM      2  H11 UNL     1       6.717  75.321  50.657  1.00  0.00     0.157 HD
ATOM      3  H12 UNL     1       6.485  73.857  49.722  1.00  0.00     0.157 HD
HETATM    4  C1  UNL     1       6.814  75.486  48.640  1.00  0.00     0.131 A 
HETATM    5  N2  UNL     1       6.745  74.885  47.452  1.00  0.00    -0.337 N 
ATOM      6  H2  UNL     1       6.567  73.881  47.412  1.00  0.00     0.168 HD
HETATM    7  C2  UNL     1       6.904  75.567  46.310  1.00  0.00     0.183 A 
HETATM    8  N3  UNL     1       7.135  76.866  46.398  1.00  0.00    -0.336 N 
ATOM      9  H3  UNL     1       7.257  77.371  45.520  1.00  0.00     0.168 HD
HETATM   10  C3  UNL     1       7.227  77.589  47.529  1.00  0.00     0.141 A 
HETATM   11  C4  UNL     1       7.057  76.853  48.676  1.00  0.00     0.122 A 
HETATM   12  N4  UNL     1       7.181  77.730  49.672  1.00  0.00    -0.339 N 
ATOM     13  H4  UNL     1       7.108  77.500  50.663  1.00  0.00     0.167 HD
HETATM   14  C5  UNL     1       7.423  78.994  49.173  1.00  0.00     0.090 A 
HETATM   15  N5  UNL     1       7.452  78.905  47.850  1.00  0.00    -0.310 N 
ENDROOT
BRANCH  15  16
HETATM   16  C10 UNL     1       7.676  79.865  46.802  1.00  0.00     0.041 C 
HETATM   17  C11 UNL     1       8.833  80.730  47.283  1.00  0.00     0.036 C 
HETATM   18  C12 UNL     1       9.271  81.809  46.348  1.00  0.00    -0.012 C 
HETATM   19  C13 UNL     1      10.188  81.381  45.260  1.00  0.00     0.005 C 
HETATM   20  C18 UNL     1       8.139  82.700  45.897  1.00  0.00     0.009 C 
HETATM   21  C14 UNL     1       9.686  80.469  44.244  1.00  0.00     0.005 C 
HETATM   22  C15 UNL     1       8.261  80.033  44.340  1.00  0.00    -0.012 C 
HETATM   23  C16 UNL     1       7.295  81.151  44.153  1.00  0.00     0.009 C 
HETATM   24  C20 UNL     1       7.979  79.149  45.529  1.00  0.00     0.036 C 
HETATM   25  C17 UNL     1       7.032  81.828  45.456  1.00  0.00    -0.012 C 
HETATM   26  C19 UNL     1       6.574  80.819  46.522  1.00  0.00     0.036 C 
ENDBRANCH  15  16
BRANCH  14  27
HETATM   27  C6  UNL     1       7.612  80.152  50.047  1.00  0.00     0.054 C 
HETATM   28  C7  UNL     1       6.318  81.012  50.025  1.00  0.00     0.012 C 
HETATM   29  C8  UNL     1       6.603  81.292  51.499  1.00  0.00     0.002 C 
HETATM   30  C9  UNL     1       7.214  79.897  51.507  1.00  0.00     0.012 C 
ENDBRANCH  14  27
TORSDOF 2
ENDMDL
MODEL 4
REMARK VINA RESULT: -8.604335950      1.175      3.683
REMARK  2 active torsions:
REMARK  status: ('A' for Active; 'I' for Inactive)
REMARK    1  A    between atoms: C5_14  and  C6_15 
REMARK    2  A    between atoms: N5_19  and  C10_20 
ROOT
HETATM    1  N1  UNL     1       6.750  73.795  51.623  1.00  0.00    -0.383 N 
ATOM      2  H11 UNL     1       6.516  73.455  50.691  1.00  0.00     0.157 HD
ATOM      3  H12 UNL     1       6.774  73.127  52.393  1.00  0.00     0.157 HD
HETATM    4  C1  UNL     1       7.016  75.025  51.871  1.00  0.00     0.131 A 
HETATM    5  N2  UNL     1       7.323  75.470  53.090  1.00  0.00    -0.337 N 
ATOM      6  H2  UNL     1       7.349  74.811  53.868  1.00  0.00     0.168 HD
HETATM    7  C2  UNL     1       7.598  76.761  53.316  1.00  0.00     0.183 A 
HETATM    8  N3  UNL     1       7.553  77.588  52.285  1.00  0.00    -0.336 N 
ATOM      9  H3  UNL     1       7.763  78.568  52.474  1.00  0.00     0.168 HD
HETATM   10  C3  UNL     1       7.260  77.267  51.012  1.00  0.00     0.141 A 
HETATM   11  C4  UNL     1       6.985  75.935  50.822  1.00  0.00     0.122 A 
HETATM   12  N4  UNL     1       6.723  75.817  49.521  1.00  0.00    -0.339 N 
ATOM     13  H4  UNL     1       6.478  74.944  49.053  1.00  0.00     0.167 HD
HETATM   14  C5  UNL     1       6.827  77.043  48.896  1.00  0.00     0.090 A 
HETATM   15  N5  UNL     1       7.159  77.937  49.818  1.00  0.00    -0.310 N 
ENDROOT
BRANCH  15  16
HETATM   16  C10 UNL     1       7.388  79.357  49.776  1.00  0.00     0.041 C 
HETATM   17  C11 UNL     1       8.900  79.525  49.715  1.00  0.00     0.036 C 
HETATM   18  C12 UNL     1       9.397  80.931  49.648  1.00  0.00    -0.012 C 
HETATM   19  C13 UNL     1       9.384  81.552  48.298  1.00  0.00     0.005 C 
HETATM   20  C18 UNL     1       8.845  81.809  50.745  1.00  0.00     0.009 C 
HETATM   21  C14 UNL     1       8.102  81.793  47.654  1.00  0.00     0.005 C 
HETATM   22  C15 UNL     1       6.864  81.424  48.403  1.00  0.00    -0.012 C 
HETATM   23  C16 UNL     1       6.666  82.234  49.638  1.00  0.00     0.009 C 
HETATM   24  C20 UNL     1       6.693  79.938  48.591  1.00  0.00     0.036 C 
HETATM   25  C17 UNL     1       7.383  81.606  50.785  1.00  0.00    -0.012 C 
HETATM   26  C19 UNL     1       6.963  80.138  50.965  1.00  0.00     0.036 C 
ENDBRANCH  15  16
BRANCH  14  27
HETATM   27  C6  UNL     1       6.581  77.209  47.463  1.00  0.00     0.054 C 
HETATM   28  C7  UNL     1       7.913  77.606  46.769  1.00  0.00     0.012 C 
HETATM   29  C8  UNL     1       7.429  76.763  45.591  1.00  0.00     0.002 C 
HETATM   30  C9  UNL     1       6.742  75.915  46.653  1.00  0.00     0.012 C 
ENDBRANCH  14  27
TORSDOF 2
ENDMDL
MODEL 5
REMARK VINA RESULT: -8.591788085      2.456      4.317
REMARK  2 active torsions:
REMARK  status: ('A' for Active; 'I' for Inactive)
REMARK    1  A    between atoms: C5_14  and  C6_15 
REMARK    2  A    between atoms: N5_19  and  C10_20 
ROOT
HETATM    1  N1  UNL     1       8.921  77.299  42.618  1.00  0.00    -0.383 N 
ATOM      2  H11 UNL     1       8.377  76.478  42.884  1.00  0.00     0.157 HD
ATOM      3  H12 UNL     1       9.342  77.323  41.689  1.00  0.00     0.157 HD
HETATM    4  C1  UNL     1       9.101  78.301  43.398  1.00  0.00     0.131 A 
HETATM    5  N2  UNL     1       9.812  79.373  43.050  1.00  0.00    -0.337 N 
ATOM      6  H2  UNL     1      10.238  79.409  42.123  1.00  0.00     0.168 HD
HETATM    7  C2  UNL     1       9.981  80.405  43.887  1.00  0.00     0.183 A 
HETATM    8  N3  UNL     1       9.416  80.325  45.080  1.00  0.00    -0.336 N 
ATOM      9  H3  UNL     1       9.556  81.118  45.707  1.00  0.00     0.168 HD
HETATM   10  C3  UNL     1       8.677  79.305  45.551  1.00  0.00     0.141 A 
HETATM   11  C4  UNL     1       8.528  78.268  44.662  1.00  0.00     0.122 A 
HETATM   12  N4  UNL     1       7.779  77.369  45.301  1.00  0.00    -0.339 N 
ATOM     13  H4  UNL     1       7.485  76.474  44.910  1.00  0.00     0.167 HD
HETATM   14  C5  UNL     1       7.458  77.820  46.564  1.00  0.00     0.090 A 
HETATM   15  N5  UNL     1       8.013  79.015  46.717  1.00  0.00    -0.310 N 
ENDROOT
BRANCH  15  16
HETATM   16  C10 UNL     1       8.045  79.955  47.807  1.00  0.00     0.041 C 
HETATM   17  C11 UNL     1       6.590  80.181  48.193  1.00  0.00     0.036 C 
HETATM   18  C12 UNL     1       6.356  81.121  49.329  1.00  0.00    -0.012 C 
HETATM   19  C13 UNL     1       6.511  80.537  50.687  1.00  0.00     0.005 C 
HETATM   20  C18 UNL     1       7.033  82.458  49.143  1.00  0.00     0.009 C 
HETATM   21  C14 UNL     1       7.829  80.088  51.106  1.00  0.00     0.005 C 
HETATM   22  C15 UNL     1       8.963  80.264  50.151  1.00  0.00    -0.012 C 
HETATM   23  C16 UNL     1       9.277  81.694  49.874  1.00  0.00     0.009 C 
HETATM   24  C20 UNL     1       8.860  79.394  48.924  1.00  0.00     0.036 C 
HETATM   25  C17 UNL     1       8.433  82.198  48.753  1.00  0.00    -0.012 C 
HETATM   26  C19 UNL     1       8.577  81.308  47.507  1.00  0.00     0.036 C 
ENDBRANCH  15  16
BRANCH  14  27
HETATM   27  C6  UNL     1       6.650  77.028  47.492  1.00  0.00     0.054 C 
HETATM   28  C7  UNL     1       6.813  75.524  47.138  1.00  0.00     0.012 C 
HETATM   29  C8  UNL     1       6.727  75.268  48.641  1.00  0.00     0.002 C 
HETATM   30  C9  UNL     1       7.393  76.631  48.775  1.00  0.00     0.012 C 
ENDBRANCH  14  27
TORSDOF 2
ENDMDL
