MODEL 1
REMARK VINA RESULT: -8.306390520      0.000      0.000
REMARK  4 active torsions:
REMARK  status: ('A' for Active; 'I' for Inactive)
REMARK    1  A    between atoms: C5_5  and  O1_6 
REMARK    2  A    between atoms: C5_5  and  C6_8 
REMARK    3  A    between atoms: C6_8  and  N1_9 
REMARK    4  A    between atoms: N2_23  and  O2_25 
ROOT
HETATM    1  C1  UNL     1       6.260  80.769  50.409  1.00  0.00     0.021 C 
HETATM    2  C2  UNL     1       7.346  80.340  49.391  1.00  0.00    -0.011 C 
HETATM    3  C3  UNL     1       8.650  80.142  50.175  1.00  0.00     0.017 C 
HETATM    4  C4  UNL     1       8.850  78.745  50.642  1.00  0.00     0.041 C 
HETATM    5  C5  UNL     1       7.638  77.946  50.963  1.00  0.00     0.088 C 
HETATM    6  C11 UNL     1       6.635  77.944  49.827  1.00  0.00     0.074 C 
HETATM    7  C12 UNL     1       7.031  79.013  48.859  1.00  0.00    -0.072 C 
HETATM    8  C13 UNL     1       7.095  78.705  47.600  1.00  0.00    -0.023 C 
HETATM    9  C14 UNL     1       7.506  79.712  46.598  1.00  0.00     0.033 C 
HETATM   10  C15 UNL     1       7.102  81.081  47.000  1.00  0.00    -0.000 C 
HETATM   11  C16 UNL     1       7.547  82.073  45.989  1.00  0.00     0.006 C 
HETATM   12  C17 UNL     1       8.876  82.691  46.140  1.00  0.00     0.006 C 
HETATM   13  C18 UNL     1       9.626  82.160  47.320  1.00  0.00     0.055 C 
HETATM   14  C19 UNL     1       8.730  82.208  48.484  1.00  0.00     0.015 C 
HETATM   15  N2  UNL     1       9.024  82.872  49.520  1.00  0.00    -0.277 N 
ATOM     16  H2  UNL     1       8.385  82.889  50.314  1.00  0.00     0.193 HD
HETATM   17  C20 UNL     1       7.449  81.458  48.411  1.00  0.00     0.050 C 
ENDROOT
BRANCH   5  18
HETATM   18  O1  UNL     1       7.038  78.317  52.172  1.00  0.00    -0.388 OA
ATOM     19  H1  UNL     1       6.881  77.582  52.752  1.00  0.00     0.210 HD
ENDBRANCH   5  18
BRANCH   5  20
HETATM   20  C6  UNL     1       8.090  76.510  51.142  1.00  0.00     0.310 C 
BRANCH  20  21
HETATM   21  N1  UNL     1       7.080  75.547  50.718  1.00  0.00     0.091 N 
HETATM   22  C7  UNL     1       7.439  74.243  51.300  1.00  0.00     0.272 C 
HETATM   23  C8  UNL     1       6.584  73.278  50.498  1.00  0.00     0.032 C 
HETATM   24  C9  UNL     1       6.763  73.824  49.092  1.00  0.00     0.032 C 
HETATM   25  C10 UNL     1       7.134  75.264  49.312  1.00  0.00     0.272 C 
ENDBRANCH  20  21
ENDBRANCH   5  20
BRANCH  15  26
HETATM   26  O2  UNL     1      10.199  83.567  49.572  1.00  0.00    -0.290 OA
ATOM     27  H2  UNL     1      10.506  83.916  50.400  1.00  0.00     0.244 HD
ENDBRANCH  15  26
TORSDOF 4
ENDMDL
MODEL 2
REMARK VINA RESULT: -8.235038648      2.480      3.769
REMARK  4 active torsions:
REMARK  status: ('A' for Active; 'I' for Inactive)
REMARK    1  A    between atoms: C5_5  and  O1_6 
REMARK    2  A    between atoms: C5_5  and  C6_8 
REMARK    3  A    between atoms: C6_8  and  N1_9 
REMARK    4  A    between atoms: N2_23  and  O2_25 
ROOT
HETATM    1  C1  UNL     1       6.159  82.062  46.624  1.00  0.00     0.021 C 
HETATM    2  C2  UNL     1       7.505  81.381  46.274  1.00  0.00    -0.011 C 
HETATM    3  C3  UNL     1       8.606  82.138  47.030  1.00  0.00     0.017 C 
HETATM    4  C4  UNL     1       8.912  81.556  48.363  1.00  0.00     0.041 C 
HETATM    5  C5  UNL     1       7.802  80.891  49.096  1.00  0.00     0.088 C 
HETATM    6  C11 UNL     1       7.103  79.844  48.252  1.00  0.00     0.074 C 
HETATM    7  C12 UNL     1       7.539  80.029  46.833  1.00  0.00    -0.072 C 
HETATM    8  C13 UNL     1       7.942  78.985  46.176  1.00  0.00    -0.023 C 
HETATM    9  C14 UNL     1       8.410  79.108  44.778  1.00  0.00     0.033 C 
HETATM   10  C15 UNL     1       7.710  80.203  44.062  1.00  0.00    -0.000 C 
HETATM   11  C16 UNL     1       8.214  80.319  42.670  1.00  0.00     0.006 C 
HETATM   12  C17 UNL     1       9.356  81.212  42.403  1.00  0.00     0.006 C 
HETATM   13  C18 UNL     1       9.886  81.855  43.645  1.00  0.00     0.055 C 
HETATM   14  C19 UNL     1       8.748  82.427  44.378  1.00  0.00     0.015 C 
HETATM   15  N2  UNL     1       8.683  83.662  44.644  1.00  0.00    -0.277 N 
ATOM     16  H2  UNL     1       7.882  84.034  45.154  1.00  0.00     0.193 HD
HETATM   17  C20 UNL     1       7.654  81.510  44.797  1.00  0.00     0.050 C 
ENDROOT
BRANCH   5  18
HETATM   18  O1  UNL     1       6.885  81.796  49.645  1.00  0.00    -0.388 OA
ATOM     19  H1  UNL     1       6.070  81.387  49.909  1.00  0.00     0.210 HD
ENDBRANCH   5  18
BRANCH   5  20
HETATM   20  C6  UNL     1       8.422  80.158  50.268  1.00  0.00     0.310 C 
BRANCH  20  21
HETATM   21  N1  UNL     1       7.771  78.882  50.539  1.00  0.00     0.091 N 
HETATM   22  C7  UNL     1       7.128  78.983  51.860  1.00  0.00     0.272 C 
HETATM   23  C8  UNL     1       6.840  77.532  52.199  1.00  0.00     0.032 C 
HETATM   24  C9  UNL     1       8.137  76.866  51.772  1.00  0.00     0.032 C 
HETATM   25  C10 UNL     1       8.705  77.812  50.751  1.00  0.00     0.272 C 
ENDBRANCH  20  21
ENDBRANCH   5  20
BRANCH  15  26
HETATM   26  O2  UNL     1       9.688  84.497  44.245  1.00  0.00    -0.290 OA
ATOM     27  H2  UNL     1       9.481  85.369  43.928  1.00  0.00     0.244 HD
ENDBRANCH  15  26
TORSDOF 4
ENDMDL
MODEL 3
REMARK VINA RESULT: -8.040139343      1.640      6.650
REMARK  4 active torsions:
REMARK  status: ('A' for Active; 'I' for Inactive)
REMARK    1  A    between atoms: C5_5  and  O1_6 
REMARK    2  A    between atoms: C5_5  and  C6_8 
REMARK    3  A    between atoms: C6_8  and  N1_9 
REMARK    4  A    between atoms: N2_23  and  O2_25 
ROOT
HETATM    1  C1  UNL     1       9.857  77.770  50.431  1.00  0.00     0.021 C 
HETATM    2  C2  UNL     1       8.330  77.518  50.391  1.00  0.00    -0.011 C 
HETATM    3  C3  UNL     1       7.669  78.593  51.265  1.00  0.00     0.017 C 
HETATM    4  C4  UNL     1       7.267  79.805  50.504  1.00  0.00     0.041 C 
HETATM    5  C5  UNL     1       8.086  80.180  49.321  1.00  0.00     0.088 C 
HETATM    6  C11 UNL     1       8.257  79.027  48.353  1.00  0.00     0.074 C 
HETATM    7  C12 UNL     1       7.819  77.775  49.043  1.00  0.00    -0.072 C 
HETATM    8  C13 UNL     1       6.993  76.990  48.421  1.00  0.00    -0.023 C 
HETATM    9  C14 UNL     1       6.504  75.750  49.063  1.00  0.00     0.033 C 
HETATM   10  C15 UNL     1       7.515  75.175  49.983  1.00  0.00    -0.000 C 
HETATM   11  C16 UNL     1       6.989  73.946  50.630  1.00  0.00     0.006 C 
HETATM   12  C17 UNL     1       6.264  74.072  51.907  1.00  0.00     0.006 C 
HETATM   13  C18 UNL     1       6.123  75.494  52.349  1.00  0.00     0.055 C 
HETATM   14  C19 UNL     1       7.446  76.127  52.265  1.00  0.00     0.015 C 
HETATM   15  N2  UNL     1       8.004  76.633  53.282  1.00  0.00    -0.277 N 
ATOM     16  H2  UNL     1       8.924  77.067  53.197  1.00  0.00     0.193 HD
HETATM   17  C20 UNL     1       8.128  76.149  50.945  1.00  0.00     0.050 C 
ENDROOT
BRANCH   5  18
HETATM   18  O1  UNL     1       9.320  80.745  49.663  1.00  0.00    -0.388 OA
ATOM     19  H1  UNL     1       9.285  81.269  50.454  1.00  0.00     0.210 HD
ENDBRANCH   5  18
BRANCH   5  20
HETATM   20  C6  UNL     1       7.322  81.258  48.578  1.00  0.00     0.310 C 
BRANCH  20  21
HETATM   21  N1  UNL     1       7.541  81.209  47.137  1.00  0.00     0.091 N 
HETATM   22  C7  UNL     1       8.451  82.312  46.788  1.00  0.00     0.272 C 
HETATM   23  C8  UNL     1       8.293  82.407  45.282  1.00  0.00     0.032 C 
HETATM   24  C9  UNL     1       6.787  82.275  45.135  1.00  0.00     0.032 C 
HETATM   25  C10 UNL     1       6.368  81.549  46.383  1.00  0.00     0.272 C 
ENDBRANCH  20  21
ENDBRANCH   5  20
BRANCH  15  26
HETATM   26  O2  UNL     1       7.373  76.598  54.493  1.00  0.00    -0.290 OA
ATOM     27  H2  UNL     1       7.754  77.048  55.238  1.00  0.00     0.244 HD
ENDBRANCH  15  26
TORSDOF 4
ENDMDL
MODEL 4
REMARK VINA RESULT: -7.883639475      1.473      1.788
REMARK  4 active torsions:
REMARK  status: ('A' for Active; 'I' for Inactive)
REMARK    1  A    between atoms: C5_5  and  O1_6 
REMARK    2  A    between atoms: C5_5  and  C6_8 
REMARK    3  A    between atoms: C6_8  and  N1_9 
REMARK    4  A    between atoms: N2_23  and  O2_25 
ROOT
HETATM    1  C1  UNL     1       6.827  81.318  49.008  1.00  0.00     0.021 C 
HETATM    2  C2  UNL     1       7.862  80.467  48.232  1.00  0.00    -0.011 C 
HETATM    3  C3  UNL     1       9.147  80.439  49.070  1.00  0.00     0.017 C 
HETATM    4  C4  UNL     1       9.220  79.281  50.000  1.00  0.00     0.041 C 
HETATM    5  C5  UNL     1       7.941  78.755  50.546  1.00  0.00     0.088 C 
HETATM    6  C11 UNL     1       6.935  78.446  49.455  1.00  0.00     0.074 C 
HETATM    7  C12 UNL     1       7.423  79.071  48.187  1.00  0.00    -0.072 C 
HETATM    8  C13 UNL     1       7.450  78.339  47.116  1.00  0.00    -0.023 C 
HETATM    9  C14 UNL     1       7.947  78.893  45.837  1.00  0.00     0.033 C 
HETATM   10  C15 UNL     1       7.673  80.346  45.728  1.00  0.00    -0.000 C 
HETATM   11  C16 UNL     1       8.202  80.880  44.447  1.00  0.00     0.006 C 
HETATM   12  C17 UNL     1       9.584  81.391  44.409  1.00  0.00     0.006 C 
HETATM   13  C18 UNL     1      10.289  81.240  45.719  1.00  0.00     0.055 C 
HETATM   14  C19 UNL     1       9.408  81.770  46.769  1.00  0.00     0.015 C 
HETATM   15  N2  UNL     1       9.769  82.725  47.517  1.00  0.00    -0.277 N 
ATOM     16  H2  UNL     1       9.139  83.075  48.239  1.00  0.00     0.193 HD
HETATM   17  C20 UNL     1       8.062  81.159  46.928  1.00  0.00     0.050 C 
ENDROOT
BRANCH   5  18
HETATM   18  O1  UNL     1       7.385  79.576  51.534  1.00  0.00    -0.388 OA
ATOM     19  H1  UNL     1       6.957  80.347  51.181  1.00  0.00     0.210 HD
ENDBRANCH   5  18
BRANCH   5  20
HETATM   20  C6  UNL     1       8.259  77.437  51.224  1.00  0.00     0.310 C 
BRANCH  20  21
HETATM   21  N1  UNL     1       7.067  76.637  51.482  1.00  0.00     0.091 N 
HETATM   22  C7  UNL     1       7.000  76.395  52.932  1.00  0.00     0.272 C 
HETATM   23  C8  UNL     1       5.992  75.265  53.032  1.00  0.00     0.032 C 
HETATM   24  C9  UNL     1       6.442  74.367  51.893  1.00  0.00     0.032 C 
HETATM   25  C10 UNL     1       7.171  75.300  50.968  1.00  0.00     0.272 C 
ENDBRANCH  20  21
ENDBRANCH   5  20
BRANCH  15  26
HETATM   26  O2  UNL     1      11.004  83.286  47.356  1.00  0.00    -0.290 OA
ATOM     27  H2  UNL     1      11.145  83.931  46.672  1.00  0.00     0.244 HD
ENDBRANCH  15  26
TORSDOF 4
ENDMDL
MODEL 5
REMARK VINA RESULT: -7.839590978      2.725      7.230
REMARK  4 active torsions:
REMARK  status: ('A' for Active; 'I' for Inactive)
REMARK    1  A    between atoms: C5_5  and  O1_6 
REMARK    2  A    between atoms: C5_5  and  C6_8 
REMARK    3  A    between atoms: C6_8  and  N1_9 
REMARK    4  A    between atoms: N2_23  and  O2_25 
ROOT
HETATM    1  C1  UNL     1       5.983  80.330  47.161  1.00  0.00     0.021 C 
HETATM    2  C2  UNL     1       7.263  80.085  47.998  1.00  0.00    -0.011 C 
HETATM    3  C3  UNL     1       8.205  79.226  47.145  1.00  0.00     0.017 C 
HETATM    4  C4  UNL     1       9.157  80.026  46.330  1.00  0.00     0.041 C 
HETATM    5  C5  UNL     1       8.706  81.362  45.858  1.00  0.00     0.088 C 
HETATM    6  C11 UNL     1       8.185  82.224  46.990  1.00  0.00     0.074 C 
HETATM    7  C12 UNL     1       7.984  81.346  48.184  1.00  0.00    -0.072 C 
HETATM    8  C13 UNL     1       8.475  81.737  49.320  1.00  0.00    -0.023 C 
HETATM    9  C14 UNL     1       8.332  80.899  50.531  1.00  0.00     0.033 C 
HETATM   10  C15 UNL     1       7.076  80.111  50.505  1.00  0.00    -0.000 C 
HETATM   11  C16 UNL     1       6.969  79.264  51.720  1.00  0.00     0.006 C 
HETATM   12  C17 UNL     1       7.531  77.901  51.685  1.00  0.00     0.006 C 
HETATM   13  C18 UNL     1       8.197  77.587  50.384  1.00  0.00     0.055 C 
HETATM   14  C19 UNL     1       7.273  77.958  49.303  1.00  0.00     0.015 C 
HETATM   15  N2  UNL     1       6.863  77.107  48.460  1.00  0.00    -0.277 N 
ATOM     16  H2  UNL     1       6.221  77.389  47.719  1.00  0.00     0.193 HD
HETATM   17  C20 UNL     1       6.816  79.370  49.227  1.00  0.00     0.050 C 
ENDROOT
BRANCH   5  18
HETATM   18  O1  UNL     1       7.786  81.292  44.805  1.00  0.00    -0.388 OA
ATOM     19  H1  UNL     1       6.883  81.286  45.099  1.00  0.00     0.210 HD
ENDBRANCH   5  18
BRANCH   5  20
HETATM   20  C6  UNL     1       9.926  82.070  45.304  1.00  0.00     0.310 C 
BRANCH  20  21
HETATM   21  N1  UNL     1       9.741  82.511  43.926  1.00  0.00     0.091 N 
HETATM   22  C7  UNL     1      10.726  81.798  43.096  1.00  0.00     0.272 C 
HETATM   23  C8  UNL     1      10.713  82.599  41.807  1.00  0.00     0.032 C 
HETATM   24  C9  UNL     1      10.706  84.020  42.343  1.00  0.00     0.032 C 
HETATM   25  C10 UNL     1      10.124  83.879  43.722  1.00  0.00     0.272 C 
ENDBRANCH  20  21
ENDBRANCH   5  20
BRANCH  15  26
HETATM   26  O2  UNL     1       7.281  75.809  48.546  1.00  0.00    -0.290 OA
ATOM     27  H2  UNL     1       6.772  75.120  48.135  1.00  0.00     0.244 HD
ENDBRANCH  15  26
TORSDOF 4
ENDMDL
