MODEL 1
REMARK VINA RESULT: -7.821744502      0.000      0.000
REMARK  4 active torsions:
REMARK  status: ('A' for Active; 'I' for Inactive)
REMARK    1  A    between atoms: C2_2  and  O1_3 
REMARK    2  A    between atoms: O1_3  and  C3_4 
REMARK    3  A    between atoms: C3_4  and  C4_6 
REMARK    4  A    between atoms: C4_6  and  O3_7 
ROOT
HETATM    1  C4  UNL     1       8.500  80.101  46.974  1.00  0.00     0.153 C 
HETATM    2  C5  UNL     1       8.271  81.589  46.901  1.00  0.00     0.049 C 
HETATM    3  C6  UNL     1       7.794  82.232  48.135  1.00  0.00     0.004 C 
HETATM    4  C7  UNL     1       7.029  81.434  49.120  1.00  0.00     0.010 C 
HETATM    5  C8  UNL     1       7.717  80.122  49.344  1.00  0.00    -0.029 C 
HETATM    6  C9  UNL     1       9.109  80.370  49.786  1.00  0.00     0.016 C 
HETATM    7  C10 UNL     1       6.998  79.179  50.232  1.00  0.00    -0.001 C 
HETATM    8  C11 UNL     1       7.486  79.136  51.660  1.00  0.00     0.006 C 
HETATM    9  C12 UNL     1       6.771  78.062  52.433  1.00  0.00     0.001 C 
HETATM   10  C13 UNL     1       6.529  76.812  51.652  1.00  0.00     0.009 C 
HETATM   11  C14 UNL     1       7.415  76.705  50.408  1.00  0.00    -0.044 C 
HETATM   12  C15 UNL     1       8.802  76.499  50.838  1.00  0.00     0.015 C 
HETATM   13  C16 UNL     1       6.931  75.432  49.695  1.00  0.00     0.015 C 
HETATM   14  C17 UNL     1       7.100  77.847  49.546  1.00  0.00    -0.001 C 
HETATM   15  C18 UNL     1       8.014  78.049  48.351  1.00  0.00     0.019 C 
HETATM   16  C19 UNL     1       7.618  79.435  47.964  1.00  0.00     0.005 C 
HETATM   17  C20 UNL     1       6.200  79.541  47.491  1.00  0.00     0.020 C 
ENDROOT
BRANCH   1  18
HETATM   18  C3  UNL     1       8.255  79.542  45.632  1.00  0.00     0.294 C 
HETATM   19  O2  UNL     1       8.879  78.495  45.246  1.00  0.00    -0.262 OA
BRANCH  18  20
HETATM   20  O1  UNL     1       7.378  80.051  44.688  1.00  0.00    -0.319 OA
BRANCH  20  21
HETATM   21  C2  UNL     1       7.716  80.300  43.355  1.00  0.00     0.174 C 
HETATM   22  C1  UNL     1       8.736  81.385  43.222  1.00  0.00     0.034 C 
ENDBRANCH  20  21
ENDBRANCH  18  20
ENDBRANCH   1  18
BRANCH   1  23
HETATM   23  O3  UNL     1       9.870  79.822  47.248  1.00  0.00    -0.379 OA
ATOM     24  H3  UNL     1      10.115  80.432  47.933  1.00  0.00     0.211 HD
ENDBRANCH   1  23
TORSDOF 4
ENDMDL
MODEL 2
REMARK VINA RESULT: -7.677935202      0.902      1.273
REMARK  4 active torsions:
REMARK  status: ('A' for Active; 'I' for Inactive)
REMARK    1  A    between atoms: C2_2  and  O1_3 
REMARK    2  A    between atoms: O1_3  and  C3_4 
REMARK    3  A    between atoms: C3_4  and  C4_6 
REMARK    4  A    between atoms: C4_6  and  O3_7 
ROOT
HETATM    1  C4  UNL     1       8.483  80.105  46.851  1.00  0.00     0.153 C 
HETATM    2  C5  UNL     1       8.244  81.588  46.730  1.00  0.00     0.049 C 
HETATM    3  C6  UNL     1       7.776  82.270  47.947  1.00  0.00     0.004 C 
HETATM    4  C7  UNL     1       7.027  81.501  48.967  1.00  0.00     0.010 C 
HETATM    5  C8  UNL     1       7.725  80.202  49.228  1.00  0.00    -0.029 C 
HETATM    6  C9  UNL     1       9.121  80.472  49.646  1.00  0.00     0.016 C 
HETATM    7  C10 UNL     1       7.022  79.286  50.155  1.00  0.00    -0.001 C 
HETATM    8  C11 UNL     1       7.526  79.294  51.578  1.00  0.00     0.006 C 
HETATM    9  C12 UNL     1       6.825  78.242  52.395  1.00  0.00     0.001 C 
HETATM   10  C13 UNL     1       6.582  76.965  51.660  1.00  0.00     0.009 C 
HETATM   11  C14 UNL     1       7.456  76.821  50.410  1.00  0.00    -0.044 C 
HETATM   12  C15 UNL     1       8.849  76.638  50.831  1.00  0.00     0.015 C 
HETATM   13  C16 UNL     1       6.971  75.523  49.746  1.00  0.00     0.015 C 
HETATM   14  C17 UNL     1       7.124  77.931  49.513  1.00  0.00    -0.001 C 
HETATM   15  C18 UNL     1       8.024  78.098  48.303  1.00  0.00     0.019 C 
HETATM   16  C19 UNL     1       7.616  79.468  47.873  1.00  0.00     0.005 C 
HETATM   17  C20 UNL     1       6.191  79.549  47.412  1.00  0.00     0.020 C 
ENDROOT
BRANCH   1  18
HETATM   18  C3  UNL     1       8.226  79.499  45.532  1.00  0.00     0.294 C 
HETATM   19  O2  UNL     1       7.486  80.099  44.680  1.00  0.00    -0.262 OA
BRANCH  18  20
HETATM   20  O1  UNL     1       8.720  78.284  45.087  1.00  0.00    -0.319 OA
BRANCH  20  21
HETATM   21  C2  UNL     1       9.236  78.066  43.806  1.00  0.00     0.174 C 
HETATM   22  C1  UNL     1       8.512  76.978  43.080  1.00  0.00     0.034 C 
ENDBRANCH  20  21
ENDBRANCH  18  20
ENDBRANCH   1  18
BRANCH   1  23
HETATM   23  O3  UNL     1       9.857  79.843  47.119  1.00  0.00    -0.379 OA
ATOM     24  H3  UNL     1      10.268  80.698  47.164  1.00  0.00     0.211 HD
ENDBRANCH   1  23
TORSDOF 4
ENDMDL
MODEL 3
REMARK VINA RESULT: -7.235318096      2.306      4.232
REMARK  4 active torsions:
REMARK  status: ('A' for Active; 'I' for Inactive)
REMARK    1  A    between atoms: C2_2  and  O1_3 
REMARK    2  A    between atoms: O1_3  and  C3_4 
REMARK    3  A    between atoms: C3_4  and  C4_6 
REMARK    4  A    between atoms: C4_6  and  O3_7 
ROOT
HETATM    1  C4  UNL     1       8.631  81.432  49.203  1.00  0.00     0.153 C 
HETATM    2  C5  UNL     1       8.850  81.758  47.748  1.00  0.00     0.049 C 
HETATM    3  C6  UNL     1       8.529  80.689  46.789  1.00  0.00     0.004 C 
HETATM    4  C7  UNL     1       8.596  79.277  47.228  1.00  0.00     0.010 C 
HETATM    5  C8  UNL     1       7.914  79.131  48.553  1.00  0.00    -0.029 C 
HETATM    6  C9  UNL     1       6.517  79.615  48.440  1.00  0.00     0.016 C 
HETATM    7  C10 UNL     1       8.000  77.782  49.159  1.00  0.00    -0.001 C 
HETATM    8  C11 UNL     1       6.781  76.910  48.973  1.00  0.00     0.006 C 
HETATM    9  C12 UNL     1       6.932  75.619  49.731  1.00  0.00     0.001 C 
HETATM   10  C13 UNL     1       7.587  75.772  51.064  1.00  0.00     0.009 C 
HETATM   11  C14 UNL     1       7.575  77.216  51.573  1.00  0.00    -0.044 C 
HETATM   12  C15 UNL     1       6.194  77.586  51.899  1.00  0.00     0.015 C 
HETATM   13  C16 UNL     1       8.390  77.175  52.875  1.00  0.00     0.015 C 
HETATM   14  C17 UNL     1       8.320  78.027  50.607  1.00  0.00    -0.001 C 
HETATM   15  C18 UNL     1       8.254  79.529  50.811  1.00  0.00     0.019 C 
HETATM   16  C19 UNL     1       8.790  79.985  49.494  1.00  0.00     0.005 C 
HETATM   17  C20 UNL     1      10.224  79.605  49.270  1.00  0.00     0.020 C 
ENDROOT
BRANCH   1  18
HETATM   18  C3  UNL     1       9.606  82.209  49.990  1.00  0.00     0.294 C 
HETATM   19  O2  UNL     1       9.335  82.557  51.189  1.00  0.00    -0.262 OA
BRANCH  18  20
HETATM   20  O1  UNL     1      10.851  82.632  49.552  1.00  0.00    -0.319 OA
BRANCH  20  21
HETATM   21  C2  UNL     1      11.411  83.874  49.857  1.00  0.00     0.174 C 
HETATM   22  C1  UNL     1      12.573  83.759  50.792  1.00  0.00     0.034 C 
ENDBRANCH  20  21
ENDBRANCH  18  20
ENDBRANCH   1  18
BRANCH   1  23
HETATM   23  O3  UNL     1       7.354  81.896  49.630  1.00  0.00    -0.379 OA
ATOM     24  H3  UNL     1       7.514  82.757  49.999  1.00  0.00     0.211 HD
ENDBRANCH   1  23
TORSDOF 4
ENDMDL
MODEL 4
REMARK VINA RESULT: -6.704331605      2.111      5.548
REMARK  4 active torsions:
REMARK  status: ('A' for Active; 'I' for Inactive)
REMARK    1  A    between atoms: C2_2  and  O1_3 
REMARK    2  A    between atoms: O1_3  and  C3_4 
REMARK    3  A    between atoms: C3_4  and  C4_6 
REMARK    4  A    between atoms: C4_6  and  O3_7 
ROOT
HETATM    1  C4  UNL     1       7.316  80.067  49.422  1.00  0.00     0.153 C 
HETATM    2  C5  UNL     1       7.752  80.867  50.623  1.00  0.00     0.049 C 
HETATM    3  C6  UNL     1       8.660  81.994  50.356  1.00  0.00     0.004 C 
HETATM    4  C7  UNL     1       9.535  81.953  49.162  1.00  0.00     0.010 C 
HETATM    5  C8  UNL     1       8.738  81.519  47.971  1.00  0.00    -0.029 C 
HETATM    6  C9  UNL     1       7.589  82.438  47.790  1.00  0.00     0.016 C 
HETATM    7  C10 UNL     1       9.518  81.334  46.725  1.00  0.00    -0.001 C 
HETATM    8  C11 UNL     1       9.458  82.483  45.748  1.00  0.00     0.006 C 
HETATM    9  C12 UNL     1      10.182  82.135  44.475  1.00  0.00     0.001 C 
HETATM   10  C13 UNL     1       9.985  80.723  44.033  1.00  0.00     0.009 C 
HETATM   11  C14 UNL     1       8.774  80.054  44.691  1.00  0.00    -0.044 C 
HETATM   12  C15 UNL     1       7.554  80.681  44.172  1.00  0.00     0.015 C 
HETATM   13  C16 UNL     1       8.822  78.598  44.203  1.00  0.00     0.015 C 
HETATM   14  C17 UNL     1       9.010  80.048  46.137  1.00  0.00    -0.001 C 
HETATM   15  C18 UNL     1       7.838  79.617  46.999  1.00  0.00     0.019 C 
HETATM   16  C19 UNL     1       8.325  80.076  48.334  1.00  0.00     0.005 C 
HETATM   17  C20 UNL     1       9.547  79.346  48.806  1.00  0.00     0.020 C 
ENDROOT
BRANCH   1  18
HETATM   18  C3  UNL     1       7.074  78.683  49.867  1.00  0.00     0.294 C 
HETATM   19  O2  UNL     1       7.197  78.372  51.100  1.00  0.00    -0.262 OA
BRANCH  18  20
HETATM   20  O1  UNL     1       6.711  77.621  49.055  1.00  0.00    -0.319 OA
BRANCH  20  21
HETATM   21  C2  UNL     1       7.035  76.287  49.315  1.00  0.00     0.174 C 
HETATM   22  C1  UNL     1       6.768  75.399  48.141  1.00  0.00     0.034 C 
ENDBRANCH  20  21
ENDBRANCH  18  20
ENDBRANCH   1  18
BRANCH   1  23
HETATM   23  O3  UNL     1       6.056  80.531  48.947  1.00  0.00    -0.379 OA
ATOM     24  H3  UNL     1       6.162  81.468  48.836  1.00  0.00     0.211 HD
ENDBRANCH   1  23
TORSDOF 4
ENDMDL
MODEL 5
REMARK VINA RESULT: -6.608842606      1.962      5.925
REMARK  4 active torsions:
REMARK  status: ('A' for Active; 'I' for Inactive)
REMARK    1  A    between atoms: C2_2  and  O1_3 
REMARK    2  A    between atoms: O1_3  and  C3_4 
REMARK    3  A    between atoms: C3_4  and  C4_6 
REMARK    4  A    between atoms: C4_6  and  O3_7 
ROOT
HETATM    1  C4  UNL     1       7.813  79.073  49.675  1.00  0.00     0.153 C 
HETATM    2  C5  UNL     1       6.970  79.572  50.821  1.00  0.00     0.049 C 
HETATM    3  C6  UNL     1       6.283  80.855  50.609  1.00  0.00     0.004 C 
HETATM    4  C7  UNL     1       6.852  81.834  49.655  1.00  0.00     0.010 C 
HETATM    5  C8  UNL     1       7.237  81.134  48.389  1.00  0.00    -0.029 C 
HETATM    6  C9  UNL     1       6.051  80.438  47.835  1.00  0.00     0.016 C 
HETATM    7  C10 UNL     1       7.919  81.982  47.383  1.00  0.00    -0.001 C 
HETATM    8  C11 UNL     1       7.041  82.497  46.269  1.00  0.00     0.006 C 
HETATM    9  C12 UNL     1       7.860  83.238  45.247  1.00  0.00     0.001 C 
HETATM   10  C13 UNL     1       9.190  82.618  44.971  1.00  0.00     0.009 C 
HETATM   11  C14 UNL     1       9.275  81.159  45.430  1.00  0.00    -0.044 C 
HETATM   12  C15 UNL     1       8.405  80.347  44.574  1.00  0.00     0.015 C 
HETATM   13  C16 UNL     1      10.734  80.755  45.169  1.00  0.00     0.015 C 
HETATM   14  C17 UNL     1       9.060  81.144  46.880  1.00  0.00    -0.001 C 
HETATM   15  C18 UNL     1       8.897  79.774  47.512  1.00  0.00     0.019 C 
HETATM   16  C19 UNL     1       8.359  80.176  48.846  1.00  0.00     0.005 C 
HETATM   17  C20 UNL     1       9.334  80.960  49.672  1.00  0.00     0.020 C 
ENDROOT
BRANCH   1  18
HETATM   18  C3  UNL     1       8.918  78.280  50.241  1.00  0.00     0.294 C 
HETATM   19  O2  UNL     1       9.983  78.081  49.563  1.00  0.00    -0.262 OA
BRANCH  18  20
HETATM   20  O1  UNL     1       8.935  77.689  51.495  1.00  0.00    -0.319 OA
BRANCH  20  21
HETATM   21  C2  UNL     1       8.213  76.542  51.832  1.00  0.00     0.174 C 
HETATM   22  C1  UNL     1       7.462  76.701  53.116  1.00  0.00     0.034 C 
ENDBRANCH  20  21
ENDBRANCH  18  20
ENDBRANCH   1  18
BRANCH   1  23
HETATM   23  O3  UNL     1       7.071  78.158  48.874  1.00  0.00    -0.379 OA
ATOM     24  H3  UNL     1       6.159  78.358  49.050  1.00  0.00     0.211 HD
ENDBRANCH   1  23
TORSDOF 4
ENDMDL
