MODEL 1
REMARK VINA RESULT: -8.625864359      0.000      0.000
REMARK  5 active torsions:
REMARK  status: ('A' for Active; 'I' for Inactive)
REMARK    1  A    between atoms: C2_2  and  O2_4 
REMARK    2  A    between atoms: O2_4  and  C3_5 
REMARK    3  A    between atoms: C3_5  and  C4_6 
REMARK    4  A    between atoms: C6_8  and  O3_10 
REMARK    5  A    between atoms: C18_22  and  O4_23 
ROOT
HETATM    1  C4  UNL     1       7.211  79.646  47.993  1.00  0.00     0.014 C 
HETATM    2  C5  UNL     1       8.534  80.401  47.938  1.00  0.00     0.052 C 
HETATM    3  C6  UNL     1       9.557  79.995  48.912  1.00  0.00     0.056 C 
HETATM    4  C7  UNL     1      10.512  81.201  49.055  1.00  0.00     0.045 C 
HETATM    5  C8  UNL     1       9.068  79.696  50.277  1.00  0.00     0.046 C 
HETATM    6  C9  UNL     1       7.739  78.979  50.363  1.00  0.00    -0.037 C 
HETATM    7  C10 UNL     1       7.286  79.245  51.803  1.00  0.00     0.015 C 
HETATM    8  C11 UNL     1       8.013  77.473  50.353  1.00  0.00     0.013 C 
HETATM    9  C12 UNL     1       6.808  76.634  50.540  1.00  0.00     0.028 C 
HETATM   10  C13 UNL     1       6.740  75.360  49.804  1.00  0.00    -0.024 C 
HETATM   11  C14 UNL     1       6.925  75.076  48.540  1.00  0.00    -0.087 C 
HETATM   12  C15 UNL     1       6.776  73.617  48.083  1.00  0.00     0.043 C 
HETATM   13  C16 UNL     1       7.277  75.982  47.426  1.00  0.00     0.036 C 
HETATM   14  C17 UNL     1       6.470  77.274  47.381  1.00  0.00     0.037 C 
HETATM   15  C18 UNL     1       7.373  78.425  47.188  1.00  0.00     0.129 C 
HETATM   16  C19 UNL     1       6.735  79.459  49.405  1.00  0.00     0.003 C 
HETATM   17  C20 UNL     1       6.198  80.814  49.919  1.00  0.00     0.011 C 
ENDROOT
BRANCH   1  18
HETATM   18  C3  UNL     1       6.213  80.595  47.336  1.00  0.00     0.191 C 
BRANCH  18  19
HETATM   19  O2  UNL     1       6.832  81.592  46.550  1.00  0.00    -0.321 OA
BRANCH  19  20
HETATM   20  C2  UNL     1       6.474  82.889  46.749  1.00  0.00     0.254 C 
HETATM   21  C1  UNL     1       5.964  83.709  45.602  1.00  0.00     0.126 C 
HETATM   22  O1  UNL     1       6.543  83.468  47.866  1.00  0.00    -0.266 OA
ENDBRANCH  19  20
ENDBRANCH  18  19
ENDBRANCH   1  18
BRANCH  15  23
HETATM   23  O4  UNL     1       7.467  78.785  45.820  1.00  0.00    -0.395 OA
ATOM     24  H4  UNL     1       7.933  79.610  45.749  1.00  0.00     0.210 HD
ENDBRANCH  15  23
BRANCH   3  25
HETATM   25  O3  UNL     1      10.398  78.960  48.511  1.00  0.00    -0.390 OA
ATOM     26  H3  UNL     1      11.275  78.975  48.877  1.00  0.00     0.210 HD
ENDBRANCH   3  25
TORSDOF 5
ENDMDL
MODEL 2
REMARK VINA RESULT: -8.469203527      1.568      1.994
REMARK  5 active torsions:
REMARK  status: ('A' for Active; 'I' for Inactive)
REMARK    1  A    between atoms: C2_2  and  O2_4 
REMARK    2  A    between atoms: O2_4  and  C3_5 
REMARK    3  A    between atoms: C3_5  and  C4_6 
REMARK    4  A    between atoms: C6_8  and  O3_10 
REMARK    5  A    between atoms: C18_22  and  O4_23 
ROOT
HETATM    1  C4  UNL     1       7.537  79.486  47.908  1.00  0.00     0.014 C 
HETATM    2  C5  UNL     1       8.901  80.056  47.538  1.00  0.00     0.052 C 
HETATM    3  C6  UNL     1       9.847  80.253  48.646  1.00  0.00     0.056 C 
HETATM    4  C7  UNL     1      10.860  81.313  48.159  1.00  0.00     0.045 C 
HETATM    5  C8  UNL     1       9.270  80.785  49.901  1.00  0.00     0.046 C 
HETATM    6  C9  UNL     1       7.900  80.265  50.275  1.00  0.00    -0.037 C 
HETATM    7  C10 UNL     1       7.388  81.306  51.276  1.00  0.00     0.015 C 
HETATM    8  C11 UNL     1       8.088  79.012  51.133  1.00  0.00     0.013 C 
HETATM    9  C12 UNL     1       6.829  78.446  51.668  1.00  0.00     0.028 C 
HETATM   10  C13 UNL     1       6.728  76.980  51.773  1.00  0.00    -0.024 C 
HETATM   11  C14 UNL     1       6.964  76.029  50.905  1.00  0.00    -0.087 C 
HETATM   12  C15 UNL     1       6.756  74.569  51.337  1.00  0.00     0.043 C 
HETATM   13  C16 UNL     1       7.424  76.142  49.505  1.00  0.00     0.036 C 
HETATM   14  C17 UNL     1       6.696  77.196  48.681  1.00  0.00     0.037 C 
HETATM   15  C18 UNL     1       7.672  78.022  47.943  1.00  0.00     0.129 C 
HETATM   16  C19 UNL     1       6.977  80.138  49.140  1.00  0.00     0.003 C 
HETATM   17  C20 UNL     1       6.491  81.555  48.762  1.00  0.00     0.011 C 
ENDROOT
BRANCH   1  18
HETATM   18  C3  UNL     1       6.630  79.915  46.758  1.00  0.00     0.191 C 
BRANCH  18  19
HETATM   19  O2  UNL     1       7.295  79.947  45.512  1.00  0.00    -0.321 OA
BRANCH  19  20
HETATM   20  C2  UNL     1       7.100  81.020  44.700  1.00  0.00     0.254 C 
HETATM   21  C1  UNL     1       6.859  82.375  45.296  1.00  0.00     0.126 C 
HETATM   22  O1  UNL     1       7.109  80.954  43.442  1.00  0.00    -0.266 OA
ENDBRANCH  19  20
ENDBRANCH  18  19
ENDBRANCH   1  18
BRANCH  15  23
HETATM   23  O4  UNL     1       7.859  77.544  46.621  1.00  0.00    -0.395 OA
ATOM     24  H4  UNL     1       8.736  77.190  46.542  1.00  0.00     0.210 HD
ENDBRANCH  15  23
BRANCH   3  25
HETATM   25  O3  UNL     1      10.648  79.159  48.961  1.00  0.00    -0.390 OA
ATOM     26  H3  UNL     1      11.310  78.932  48.318  1.00  0.00     0.210 HD
ENDBRANCH   3  25
TORSDOF 5
ENDMDL
MODEL 3
REMARK VINA RESULT: -7.976033487      1.203      1.466
REMARK  5 active torsions:
REMARK  status: ('A' for Active; 'I' for Inactive)
REMARK    1  A    between atoms: C2_2  and  O2_4 
REMARK    2  A    between atoms: O2_4  and  C3_5 
REMARK    3  A    between atoms: C3_5  and  C4_6 
REMARK    4  A    between atoms: C6_8  and  O3_10 
REMARK    5  A    between atoms: C18_22  and  O4_23 
ROOT
HETATM    1  C4  UNL     1       7.501  80.341  47.548  1.00  0.00     0.014 C 
HETATM    2  C5  UNL     1       8.848  80.948  47.173  1.00  0.00     0.052 C 
HETATM    3  C6  UNL     1       9.919  80.822  48.171  1.00  0.00     0.056 C 
HETATM    4  C7  UNL     1      10.934  81.942  47.851  1.00  0.00     0.045 C 
HETATM    5  C8  UNL     1       9.517  81.024  49.581  1.00  0.00     0.046 C 
HETATM    6  C9  UNL     1       8.168  80.465  49.973  1.00  0.00    -0.037 C 
HETATM    7  C10 UNL     1       7.831  81.223  51.262  1.00  0.00     0.015 C 
HETATM    8  C11 UNL     1       8.374  79.027  50.453  1.00  0.00     0.013 C 
HETATM    9  C12 UNL     1       7.150  78.378  50.974  1.00  0.00     0.028 C 
HETATM   10  C13 UNL     1       6.974  76.939  50.713  1.00  0.00    -0.024 C 
HETATM   11  C14 UNL     1       7.056  76.240  49.609  1.00  0.00    -0.087 C 
HETATM   12  C15 UNL     1       6.811  74.725  49.676  1.00  0.00     0.043 C 
HETATM   13  C16 UNL     1       7.366  76.700  48.239  1.00  0.00     0.036 C 
HETATM   14  C17 UNL     1       6.616  77.954  47.806  1.00  0.00     0.037 C 
HETATM   15  C18 UNL     1       7.552  78.915  47.191  1.00  0.00     0.129 C 
HETATM   16  C19 UNL     1       7.120  80.665  48.964  1.00  0.00     0.003 C 
HETATM   17  C20 UNL     1       6.681  82.145  49.022  1.00  0.00     0.011 C 
ENDROOT
BRANCH   1  18
HETATM   18  C3  UNL     1       6.501  81.081  46.665  1.00  0.00     0.191 C 
BRANCH  18  19
HETATM   19  O2  UNL     1       7.101  81.693  45.542  1.00  0.00    -0.321 OA
BRANCH  19  20
HETATM   20  C2  UNL     1       7.126  83.051  45.480  1.00  0.00     0.254 C 
HETATM   21  C1  UNL     1       5.877  83.837  45.745  1.00  0.00     0.126 C 
HETATM   22  O1  UNL     1       8.161  83.717  45.207  1.00  0.00    -0.266 OA
ENDBRANCH  19  20
ENDBRANCH  18  19
ENDBRANCH   1  18
BRANCH  15  23
HETATM   23  O4  UNL     1       7.563  78.794  45.779  1.00  0.00    -0.395 OA
ATOM     24  H4  UNL     1       6.905  78.160  45.518  1.00  0.00     0.210 HD
ENDBRANCH  15  23
BRANCH   3  25
HETATM   25  O3  UNL     1      10.684  79.660  48.096  1.00  0.00    -0.390 OA
ATOM     26  H3  UNL     1      10.465  79.067  47.387  1.00  0.00     0.210 HD
ENDBRANCH   3  25
TORSDOF 5
ENDMDL
MODEL 4
REMARK VINA RESULT: -7.723721016      2.097      4.425
REMARK  5 active torsions:
REMARK  status: ('A' for Active; 'I' for Inactive)
REMARK    1  A    between atoms: C2_2  and  O2_4 
REMARK    2  A    between atoms: O2_4  and  C3_5 
REMARK    3  A    between atoms: C3_5  and  C4_6 
REMARK    4  A    between atoms: C6_8  and  O3_10 
REMARK    5  A    between atoms: C18_22  and  O4_23 
ROOT
HETATM    1  C4  UNL     1       8.928  80.885  48.638  1.00  0.00     0.014 C 
HETATM    2  C5  UNL     1       8.102  82.017  48.040  1.00  0.00     0.052 C 
HETATM    3  C6  UNL     1       6.879  81.624  47.327  1.00  0.00     0.056 C 
HETATM    4  C7  UNL     1       6.549  82.791  46.369  1.00  0.00     0.045 C 
HETATM    5  C8  UNL     1       6.984  80.416  46.478  1.00  0.00     0.046 C 
HETATM    6  C9  UNL     1       7.829  79.289  47.030  1.00  0.00    -0.037 C 
HETATM    7  C10 UNL     1       8.144  78.443  45.792  1.00  0.00     0.015 C 
HETATM    8  C11 UNL     1       6.920  78.378  47.857  1.00  0.00     0.013 C 
HETATM    9  C12 UNL     1       7.586  77.163  48.378  1.00  0.00     0.028 C 
HETATM   10  C13 UNL     1       7.184  76.680  49.710  1.00  0.00    -0.024 C 
HETATM   11  C14 UNL     1       7.073  77.296  50.860  1.00  0.00    -0.087 C 
HETATM   12  C15 UNL     1       6.621  76.488  52.087  1.00  0.00     0.043 C 
HETATM   13  C16 UNL     1       7.323  78.717  51.182  1.00  0.00     0.036 C 
HETATM   14  C17 UNL     1       8.616  79.279  50.607  1.00  0.00     0.037 C 
HETATM   15  C18 UNL     1       8.357  80.579  49.959  1.00  0.00     0.129 C 
HETATM   16  C19 UNL     1       9.066  79.733  47.685  1.00  0.00     0.003 C 
HETATM   17  C20 UNL     1      10.070  80.134  46.581  1.00  0.00     0.011 C 
ENDROOT
BRANCH   1  18
HETATM   18  C3  UNL     1      10.326  81.480  48.782  1.00  0.00     0.191 C 
BRANCH  18  19
HETATM   19  O2  UNL     1      10.321  82.891  48.858  1.00  0.00    -0.321 OA
BRANCH  19  20
HETATM   20  C2  UNL     1      11.109  83.491  49.790  1.00  0.00     0.254 C 
HETATM   21  C1  UNL     1      12.348  84.221  49.366  1.00  0.00     0.126 C 
HETATM   22  O1  UNL     1      10.861  83.478  51.026  1.00  0.00    -0.266 OA
ENDBRANCH  19  20
ENDBRANCH  18  19
ENDBRANCH   1  18
BRANCH  15  23
HETATM   23  O4  UNL     1       8.627  81.658  50.838  1.00  0.00    -0.395 OA
ATOM     24  H4  UNL     1       7.824  81.901  51.285  1.00  0.00     0.210 HD
ENDBRANCH  15  23
BRANCH   3  25
HETATM   25  O3  UNL     1       5.731  81.511  48.108  1.00  0.00    -0.390 OA
ATOM     26  H3  UNL     1       4.907  81.650  47.655  1.00  0.00     0.210 HD
ENDBRANCH   3  25
TORSDOF 5
ENDMDL
MODEL 5
REMARK VINA RESULT: -7.643965794      2.173      4.631
REMARK  5 active torsions:
REMARK  status: ('A' for Active; 'I' for Inactive)
REMARK    1  A    between atoms: C2_2  and  O2_4 
REMARK    2  A    between atoms: O2_4  and  C3_5 
REMARK    3  A    between atoms: C3_5  and  C4_6 
REMARK    4  A    between atoms: C6_8  and  O3_10 
REMARK    5  A    between atoms: C18_22  and  O4_23 
ROOT
HETATM    1  C4  UNL     1       9.034  81.321  47.965  1.00  0.00     0.014 C 
HETATM    2  C5  UNL     1       8.204  82.321  47.170  1.00  0.00     0.052 C 
HETATM    3  C6  UNL     1       6.967  81.806  46.565  1.00  0.00     0.056 C 
HETATM    4  C7  UNL     1       6.628  82.765  45.403  1.00  0.00     0.045 C 
HETATM    5  C8  UNL     1       7.054  80.454  45.968  1.00  0.00     0.046 C 
HETATM    6  C9  UNL     1       7.902  79.451  46.717  1.00  0.00    -0.037 C 
HETATM    7  C10 UNL     1       8.193  78.377  45.663  1.00  0.00     0.015 C 
HETATM    8  C11 UNL     1       7.002  78.726  47.720  1.00  0.00     0.013 C 
HETATM    9  C12 UNL     1       7.671  77.632  48.458  1.00  0.00     0.028 C 
HETATM   10  C13 UNL     1       7.288  77.421  49.865  1.00  0.00    -0.024 C 
HETATM   11  C14 UNL     1       7.199  78.251  50.874  1.00  0.00    -0.087 C 
HETATM   12  C15 UNL     1       6.764  77.702  52.242  1.00  0.00     0.043 C 
HETATM   13  C16 UNL     1       7.460  79.705  50.908  1.00  0.00     0.036 C 
HETATM   14  C17 UNL     1       8.747  80.134  50.214  1.00  0.00     0.037 C 
HETATM   15  C18 UNL     1       8.483  81.285  49.328  1.00  0.00     0.129 C 
HETATM   16  C19 UNL     1       9.152  80.005  47.254  1.00  0.00     0.003 C 
HETATM   17  C20 UNL     1      10.140  80.174  46.078  1.00  0.00     0.011 C 
ENDROOT
BRANCH   1  18
HETATM   18  C3  UNL     1      10.437  81.922  47.968  1.00  0.00     0.191 C 
BRANCH  18  19
HETATM   19  O2  UNL     1      10.466  83.262  47.522  1.00  0.00    -0.321 OA
BRANCH  19  20
HETATM   20  C2  UNL     1      11.402  84.099  48.045  1.00  0.00     0.254 C 
HETATM   21  C1  UNL     1      11.910  83.878  49.438  1.00  0.00     0.126 C 
HETATM   22  O1  UNL     1      11.887  85.080  47.419  1.00  0.00    -0.266 OA
ENDBRANCH  19  20
ENDBRANCH  18  19
ENDBRANCH   1  18
BRANCH  15  23
HETATM   23  O4  UNL     1       8.773  82.513  49.976  1.00  0.00    -0.395 OA
ATOM     24  H4  UNL     1       7.959  82.908  50.266  1.00  0.00     0.210 HD
ENDBRANCH  15  23
BRANCH   3  25
HETATM   25  O3  UNL     1       5.833  81.856  47.371  1.00  0.00    -0.390 OA
ATOM     26  H3  UNL     1       5.891  82.421  48.133  1.00  0.00     0.210 HD
ENDBRANCH   3  25
TORSDOF 5
ENDMDL
