MODEL 1
REMARK VINA RESULT: -7.533379950      0.000      0.000
REMARK  3 active torsions:
REMARK  status: ('A' for Active; 'I' for Inactive)
REMARK    1  A    between atoms: N1_4  and  C3_5 
REMARK    2  A    between atoms: C9_13  and  S2_14 
REMARK    3  A    between atoms: S2_14  and  C10_15 
ROOT
HETATM    1  C1  UNL     1       8.825  80.322  44.077  1.00  0.00     0.037 C 
HETATM    2  C2  UNL     1       8.130  79.708  44.956  1.00  0.00     0.056 C 
HETATM    3  S1  UNL     1       7.024  80.593  46.120  1.00  0.00    -0.007 SA
HETATM    4  N1  UNL     1       7.390  79.672  47.638  1.00  0.00    -0.292 N 
HETATM    5  C9  UNL     1       7.443  78.268  47.518  1.00  0.00     0.155 C 
HETATM    6  N3  UNL     1       7.770  77.677  46.399  1.00  0.00    -0.322 N 
ATOM      7  H3  UNL     1       7.785  76.658  46.423  1.00  0.00     0.169 HD
HETATM    8  C16 UNL     1       8.102  78.261  45.182  1.00  0.00     0.118 C 
HETATM    9  N4  UNL     1       8.415  77.524  44.142  1.00  0.00    -0.384 N 
ATOM     10  H41 UNL     1       8.396  76.516  44.299  1.00  0.00     0.157 HD
ATOM     11  H42 UNL     1       8.659  77.953  43.249  1.00  0.00     0.157 HD
ENDROOT
BRANCH   4  12
HETATM   12  C3  UNL     1       7.662  80.450  48.798  1.00  0.00     0.104 C 
HETATM   13  C4  UNL     1       6.350  80.774  49.502  1.00  0.00     0.028 C 
HETATM   14  C5  UNL     1       6.531  81.729  50.624  1.00  0.00     0.022 C 
HETATM   15  C6  UNL     1       7.861  81.628  51.296  1.00  0.00     0.118 C 
HETATM   16  N2  UNL     1       8.878  82.426  50.731  1.00  0.00    -0.402 N 
HETATM   17  C7  UNL     1       9.350  82.132  49.438  1.00  0.00     0.057 C 
ATOM     18  H2  UNL     1       9.268  83.209  51.255  1.00  0.00     0.158 HD
HETATM   19  C8  UNL     1       8.374  81.732  48.402  1.00  0.00     0.070 C 
ENDBRANCH   4  12
BRANCH   5  20
HETATM   20  S2  UNL     1       6.986  77.211  48.823  1.00  0.00    -0.088 SA
BRANCH  20  21
HETATM   21  C10 UNL     1       7.796  77.222  50.362  1.00  0.00     0.055 C 
HETATM   22  C11 UNL     1       7.865  75.732  50.843  1.00  0.00     0.015 C 
HETATM   23  C12 UNL     1       6.557  75.361  51.493  1.00  0.00     0.001 C 
HETATM   24  C13 UNL     1       6.603  75.928  52.909  1.00  0.00     0.000 C 
HETATM   25  C14 UNL     1       7.318  77.258  52.797  1.00  0.00     0.001 C 
HETATM   26  C15 UNL     1       7.054  77.931  51.477  1.00  0.00     0.015 C 
ENDBRANCH  20  21
ENDBRANCH   5  20
TORSDOF 3
ENDMDL
MODEL 2
REMARK VINA RESULT: -6.807486322      2.385      5.113
REMARK  3 active torsions:
REMARK  status: ('A' for Active; 'I' for Inactive)
REMARK    1  A    between atoms: N1_4  and  C3_5 
REMARK    2  A    between atoms: C9_13  and  S2_14 
REMARK    3  A    between atoms: S2_14  and  C10_15 
ROOT
HETATM    1  C1  UNL     1      11.988  84.590  47.788  1.00  0.00     0.037 C 
HETATM    2  C2  UNL     1      11.449  83.481  48.121  1.00  0.00     0.056 C 
HETATM    3  S1  UNL     1      11.487  82.009  47.029  1.00  0.00    -0.007 SA
HETATM    4  N1  UNL     1       9.788  81.421  47.259  1.00  0.00    -0.292 N 
HETATM    5  C9  UNL     1       9.310  81.404  48.586  1.00  0.00     0.155 C 
HETATM    6  N3  UNL     1       9.758  82.223  49.499  1.00  0.00    -0.322 N 
ATOM      7  H3  UNL     1       9.339  82.131  50.424  1.00  0.00     0.169 HD
HETATM    8  C16 UNL     1      10.733  83.206  49.370  1.00  0.00     0.118 C 
HETATM    9  N4  UNL     1      11.074  83.959  50.389  1.00  0.00    -0.384 N 
ATOM     10  H41 UNL     1      10.576  83.767  51.259  1.00  0.00     0.157 HD
ATOM     11  H42 UNL     1      11.789  84.680  50.294  1.00  0.00     0.157 HD
ENDROOT
BRANCH   4  12
HETATM   12  C3  UNL     1       9.065  81.100  46.077  1.00  0.00     0.104 C 
HETATM   13  C4  UNL     1      10.033  80.560  45.030  1.00  0.00     0.028 C 
HETATM   14  C5  UNL     1       9.385  80.366  43.709  1.00  0.00     0.022 C 
HETATM   15  C6  UNL     1       7.934  80.023  43.790  1.00  0.00     0.118 C 
HETATM   16  N2  UNL     1       7.059  81.130  43.819  1.00  0.00    -0.402 N 
HETATM   17  C7  UNL     1       7.065  81.987  44.936  1.00  0.00     0.057 C 
ATOM     18  H2  UNL     1       6.428  81.308  43.039  1.00  0.00     0.158 HD
HETATM   19  C8  UNL     1       8.364  82.339  45.551  1.00  0.00     0.070 C 
ENDBRANCH   4  12
BRANCH   5  20
HETATM   20  S2  UNL     1       8.150  80.226  49.134  1.00  0.00    -0.088 SA
BRANCH  20  21
HETATM   21  C10 UNL     1       8.264  79.456  50.690  1.00  0.00     0.055 C 
HETATM   22  C11 UNL     1       8.756  77.991  50.429  1.00  0.00     0.015 C 
HETATM   23  C12 UNL     1       7.576  77.133  50.050  1.00  0.00     0.001 C 
HETATM   24  C13 UNL     1       6.868  76.774  51.352  1.00  0.00     0.000 C 
HETATM   25  C14 UNL     1       6.963  78.006  52.227  1.00  0.00     0.001 C 
HETATM   26  C15 UNL     1       6.948  79.275  51.418  1.00  0.00     0.015 C 
ENDBRANCH  20  21
ENDBRANCH   5  20
TORSDOF 3
ENDMDL
MODEL 3
REMARK VINA RESULT: -6.709589746      2.034      5.683
REMARK  3 active torsions:
REMARK  status: ('A' for Active; 'I' for Inactive)
REMARK    1  A    between atoms: N1_4  and  C3_5 
REMARK    2  A    between atoms: C9_13  and  S2_14 
REMARK    3  A    between atoms: S2_14  and  C10_15 
ROOT
HETATM    1  C1  UNL     1       7.126  75.355  52.526  1.00  0.00     0.037 C 
HETATM    2  C2  UNL     1       7.437  75.745  51.350  1.00  0.00     0.056 C 
HETATM    3  S1  UNL     1       8.616  77.117  51.056  1.00  0.00    -0.007 SA
HETATM    4  N1  UNL     1       7.751  77.972  49.712  1.00  0.00    -0.292 N 
HETATM    5  C9  UNL     1       7.225  77.155  48.690  1.00  0.00     0.155 C 
HETATM    6  N3  UNL     1       6.864  75.918  48.905  1.00  0.00    -0.322 N 
ATOM      7  H3  UNL     1       6.489  75.417  48.099  1.00  0.00     0.169 HD
HETATM    8  C16 UNL     1       6.925  75.197  50.092  1.00  0.00     0.118 C 
HETATM    9  N4  UNL     1       6.515  73.951  50.148  1.00  0.00    -0.384 N 
ATOM     10  H41 UNL     1       6.159  73.569  49.272  1.00  0.00     0.157 HD
ATOM     11  H42 UNL     1       6.560  73.422  51.019  1.00  0.00     0.157 HD
ENDROOT
BRANCH   4  12
HETATM   12  C3  UNL     1       7.616  79.383  49.845  1.00  0.00     0.104 C 
HETATM   13  C4  UNL     1       9.001  80.012  49.932  1.00  0.00     0.028 C 
HETATM   14  C5  UNL     1       8.945  81.461  50.247  1.00  0.00     0.022 C 
HETATM   15  C6  UNL     1       7.724  82.147  49.727  1.00  0.00     0.118 C 
HETATM   16  N2  UNL     1       6.612  82.131  50.596  1.00  0.00    -0.402 N 
HETATM   17  C7  UNL     1       5.977  80.908  50.882  1.00  0.00     0.057 C 
ATOM     18  H2  UNL     1       6.273  82.997  51.013  1.00  0.00     0.158 HD
HETATM   19  C8  UNL     1       6.814  79.707  51.093  1.00  0.00     0.070 C 
ENDBRANCH   4  12
BRANCH   5  20
HETATM   20  S2  UNL     1       7.102  77.701  47.042  1.00  0.00    -0.088 SA
BRANCH  20  21
HETATM   21  C10 UNL     1       8.372  78.591  46.255  1.00  0.00     0.055 C 
HETATM   22  C11 UNL     1       8.109  80.106  46.554  1.00  0.00     0.015 C 
HETATM   23  C12 UNL     1       7.086  80.633  45.580  1.00  0.00     0.001 C 
HETATM   24  C13 UNL     1       7.834  80.914  44.280  1.00  0.00     0.000 C 
HETATM   25  C14 UNL     1       8.860  79.808  44.147  1.00  0.00     0.001 C 
HETATM   26  C15 UNL     1       8.373  78.513  44.742  1.00  0.00     0.015 C 
ENDBRANCH  20  21
ENDBRANCH   5  20
TORSDOF 3
ENDMDL
MODEL 4
REMARK VINA RESULT: -6.505654636      1.531      1.785
REMARK  3 active torsions:
REMARK  status: ('A' for Active; 'I' for Inactive)
REMARK    1  A    between atoms: N1_4  and  C3_5 
REMARK    2  A    between atoms: C9_13  and  S2_14 
REMARK    3  A    between atoms: S2_14  and  C10_15 
ROOT
HETATM    1  C1  UNL     1       8.489  77.789  44.369  1.00  0.00     0.037 C 
HETATM    2  C2  UNL     1       7.881  78.067  45.457  1.00  0.00     0.056 C 
HETATM    3  S1  UNL     1       7.555  79.794  45.979  1.00  0.00    -0.007 SA
HETATM    4  N1  UNL     1       7.943  79.651  47.744  1.00  0.00    -0.292 N 
HETATM    5  C9  UNL     1       7.427  78.518  48.406  1.00  0.00     0.155 C 
HETATM    6  N3  UNL     1       7.188  77.396  47.783  1.00  0.00    -0.322 N 
ATOM      7  H3  UNL     1       6.822  76.637  48.357  1.00  0.00     0.169 HD
HETATM    8  C16 UNL     1       7.371  77.104  46.436  1.00  0.00     0.118 C 
HETATM    9  N4  UNL     1       7.086  75.915  45.957  1.00  0.00    -0.384 N 
ATOM     10  H41 UNL     1       6.730  75.244  46.638  1.00  0.00     0.157 HD
ATOM     11  H42 UNL     1       7.220  75.701  44.968  1.00  0.00     0.157 HD
ENDROOT
BRANCH   4  12
HETATM   12  C3  UNL     1       8.795  80.655  48.286  1.00  0.00     0.104 C 
HETATM   13  C4  UNL     1       8.025  81.451  49.334  1.00  0.00     0.028 C 
HETATM   14  C5  UNL     1       8.787  82.627  49.822  1.00  0.00     0.022 C 
HETATM   15  C6  UNL     1      10.268  82.437  49.808  1.00  0.00     0.118 C 
HETATM   16  N2  UNL     1      10.906  82.792  48.600  1.00  0.00    -0.402 N 
HETATM   17  C7  UNL     1      10.655  82.036  47.439  1.00  0.00     0.057 C 
ATOM     18  H2  UNL     1      11.542  83.588  48.568  1.00  0.00     0.158 HD
HETATM   19  C8  UNL     1       9.274  81.575  47.178  1.00  0.00     0.070 C 
ENDBRANCH   4  12
BRANCH   5  20
HETATM   20  S2  UNL     1       6.978  78.556  50.088  1.00  0.00    -0.088 SA
BRANCH  20  21
HETATM   21  C10 UNL     1       7.919  77.772  51.324  1.00  0.00     0.055 C 
HETATM   22  C11 UNL     1       7.864  76.236  51.021  1.00  0.00     0.015 C 
HETATM   23  C12 UNL     1       6.585  75.666  51.580  1.00  0.00     0.001 C 
HETATM   24  C13 UNL     1       6.819  75.467  53.075  1.00  0.00     0.000 C 
HETATM   25  C14 UNL     1       7.665  76.642  53.519  1.00  0.00     0.001 C 
HETATM   26  C15 UNL     1       7.362  77.887  52.729  1.00  0.00     0.015 C 
ENDBRANCH  20  21
ENDBRANCH   5  20
TORSDOF 3
ENDMDL
MODEL 5
REMARK VINA RESULT: -6.481182126      1.135      1.409
REMARK  3 active torsions:
REMARK  status: ('A' for Active; 'I' for Inactive)
REMARK    1  A    between atoms: N1_4  and  C3_5 
REMARK    2  A    between atoms: C9_13  and  S2_14 
REMARK    3  A    between atoms: S2_14  and  C10_15 
ROOT
HETATM    1  C1  UNL     1       8.830  81.829  43.863  1.00  0.00     0.037 C 
HETATM    2  C2  UNL     1       8.131  81.013  44.555  1.00  0.00     0.056 C 
HETATM    3  S1  UNL     1       7.003  81.577  45.884  1.00  0.00    -0.007 SA
HETATM    4  N1  UNL     1       7.361  80.317  47.136  1.00  0.00    -0.292 N 
HETATM    5  C9  UNL     1       7.431  78.985  46.677  1.00  0.00     0.155 C 
HETATM    6  N3  UNL     1       7.778  78.688  45.453  1.00  0.00    -0.322 N 
ATOM      7  H3  UNL     1       7.803  77.694  45.227  1.00  0.00     0.169 HD
HETATM    8  C16 UNL     1       8.117  79.554  44.420  1.00  0.00     0.118 C 
HETATM    9  N4  UNL     1       8.450  79.097  43.236  1.00  0.00    -0.384 N 
ATOM     10  H41 UNL     1       8.440  78.081  43.142  1.00  0.00     0.157 HD
ATOM     11  H42 UNL     1       8.699  79.733  42.478  1.00  0.00     0.157 HD
ENDROOT
BRANCH   4  12
HETATM   12  C3  UNL     1       7.611  80.789  48.455  1.00  0.00     0.104 C 
HETATM   13  C4  UNL     1       6.301  80.817  49.234  1.00  0.00     0.028 C 
HETATM   14  C5  UNL     1       6.447  81.462  50.562  1.00  0.00     0.022 C 
HETATM   15  C6  UNL     1       7.801  81.297  51.170  1.00  0.00     0.118 C 
HETATM   16  N2  UNL     1       8.739  82.291  50.820  1.00  0.00    -0.402 N 
HETATM   17  C7  UNL     1       9.191  82.377  49.490  1.00  0.00     0.057 C 
ATOM     18  H2  UNL     1       9.087  82.941  51.524  1.00  0.00     0.158 HD
HETATM   19  C8  UNL     1       8.215  82.181  48.396  1.00  0.00     0.070 C 
ENDBRANCH   4  12
BRANCH   5  20
HETATM   20  S2  UNL     1       6.971  77.637  47.678  1.00  0.00    -0.088 SA
BRANCH  20  21
HETATM   21  C10 UNL     1       8.016  76.987  48.908  1.00  0.00     0.055 C 
HETATM   22  C11 UNL     1       7.083  76.371  50.007  1.00  0.00     0.015 C 
HETATM   23  C12 UNL     1       6.617  77.467  50.931  1.00  0.00     0.001 C 
HETATM   24  C13 UNL     1       7.764  77.729  51.903  1.00  0.00     0.000 C 
HETATM   25  C14 UNL     1       9.034  77.583  51.091  1.00  0.00     0.001 C 
HETATM   26  C15 UNL     1       8.841  78.010  49.661  1.00  0.00     0.015 C 
ENDBRANCH  20  21
ENDBRANCH   5  20
TORSDOF 3
ENDMDL
