MODEL 1
REMARK VINA RESULT: -6.713442091      0.000      0.000
REMARK  4 active torsions:
REMARK  status: ('A' for Active; 'I' for Inactive)
REMARK    1  A    between atoms: C13_13  and  O1_14 
REMARK    2  A    between atoms: C13_13  and  C14_16 
REMARK    3  A    between atoms: C14_16  and  C15_17 
REMARK    4  A    between atoms: C15_17  and  O2_18 
ROOT
HETATM    1  C1  UNL     1       8.068  76.162  42.855  1.00  0.00     0.043 C 
HETATM    2  C2  UNL     1       8.883  77.395  42.613  1.00  0.00    -0.086 C 
HETATM    3  C3  UNL     1       8.870  78.297  43.580  1.00  0.00    -0.024 C 
HETATM    4  C4  UNL     1       9.571  79.586  43.611  1.00  0.00     0.030 C 
HETATM    5  C5  UNL     1      10.235  79.953  42.312  1.00  0.00     0.043 C 
HETATM    6  C6  UNL     1      11.437  79.094  41.995  1.00  0.00     0.080 C 
HETATM    7  C7  UNL     1      12.124  79.785  40.817  1.00  0.00     0.043 C 
HETATM    8  C8  UNL     1      12.920  80.973  41.253  1.00  0.00     0.032 C 
HETATM    9  C9  UNL     1      13.912  80.516  42.255  1.00  0.00     0.005 C 
HETATM   10  C10 UNL     1      13.543  79.598  43.126  1.00  0.00     0.044 C 
HETATM   11  C11 UNL     1      14.490  79.085  44.170  1.00  0.00     0.067 C 
HETATM   12  C12 UNL     1      15.195  77.821  43.731  1.00  0.00     0.045 C 
HETATM   13  C13 UNL     1      14.232  76.619  43.847  1.00  0.00     0.072 C 
HETATM   14  C16 UNL     1      13.587  76.387  42.538  1.00  0.00     0.078 C 
HETATM   15  C17 UNL     1      13.976  75.205  41.745  1.00  0.00     0.024 C 
HETATM   16  S1  UNL     1      11.759  76.450  42.669  1.00  0.00    -0.153 SA
HETATM   17  C18 UNL     1      11.073  77.720  41.539  1.00  0.00     0.086 C 
HETATM   18  C19 UNL     1       9.609  77.479  41.329  1.00  0.00     0.051 C 
HETATM   19  O3  UNL     1      12.272  79.080  43.102  1.00  0.00    -0.344 OA
ENDROOT
BRANCH  13  20
HETATM   20  O1  UNL     1      13.259  77.018  44.791  1.00  0.00    -0.389 OA
ATOM     21  H1  UNL     1      13.187  77.960  44.687  1.00  0.00     0.210 HD
ENDBRANCH  13  20
BRANCH  13  22
HETATM   22  C14 UNL     1      15.006  75.526  44.471  1.00  0.00     0.065 C 
BRANCH  22  23
HETATM   23  C15 UNL     1      14.250  74.532  45.290  1.00  0.00     0.167 C 
BRANCH  23  24
HETATM   24  O2  UNL     1      14.467  73.240  44.763  1.00  0.00    -0.401 OA
ATOM     25  H2  UNL     1      13.760  72.669  45.041  1.00  0.00     0.209 HD
ENDBRANCH  23  24
ENDBRANCH  22  23
ENDBRANCH  13  22
TORSDOF 4
ENDMDL
MODEL 2
REMARK VINA RESULT: -6.508831516      5.381      7.784
REMARK  4 active torsions:
REMARK  status: ('A' for Active; 'I' for Inactive)
REMARK    1  A    between atoms: C13_13  and  O1_14 
REMARK    2  A    between atoms: C13_13  and  C14_16 
REMARK    3  A    between atoms: C14_16  and  C15_17 
REMARK    4  A    between atoms: C15_17  and  O2_18 
ROOT
HETATM    1  C1  UNL     1       6.621  77.126  48.473  1.00  0.00     0.043 C 
HETATM    2  C2  UNL     1       7.538  78.190  48.995  1.00  0.00    -0.086 C 
HETATM    3  C3  UNL     1       8.818  77.864  49.074  1.00  0.00    -0.024 C 
HETATM    4  C4  UNL     1       9.927  78.701  49.544  1.00  0.00     0.030 C 
HETATM    5  C5  UNL     1       9.494  80.011  50.145  1.00  0.00     0.043 C 
HETATM    6  C6  UNL     1       8.947  80.981  49.123  1.00  0.00     0.080 C 
HETATM    7  C7  UNL     1       8.832  82.316  49.860  1.00  0.00     0.043 C 
HETATM    8  C8  UNL     1      10.156  82.996  49.995  1.00  0.00     0.032 C 
HETATM    9  C9  UNL     1      10.713  83.185  48.634  1.00  0.00     0.005 C 
HETATM   10  C10 UNL     1      10.538  82.225  47.749  1.00  0.00     0.044 C 
HETATM   11  C11 UNL     1      11.072  82.342  46.352  1.00  0.00     0.067 C 
HETATM   12  C12 UNL     1      10.039  82.881  45.388  1.00  0.00     0.045 C 
HETATM   13  C13 UNL     1       9.027  81.770  45.032  1.00  0.00     0.072 C 
HETATM   14  C16 UNL     1       7.853  81.879  45.923  1.00  0.00     0.078 C 
HETATM   15  C17 UNL     1       6.574  82.363  45.369  1.00  0.00     0.024 C 
HETATM   16  S1  UNL     1       7.562  80.321  46.844  1.00  0.00    -0.153 SA
HETATM   17  C18 UNL     1       7.575  80.627  48.652  1.00  0.00     0.086 C 
HETATM   18  C19 UNL     1       6.926  79.482  49.367  1.00  0.00     0.051 C 
HETATM   19  O3  UNL     1       9.855  81.081  48.080  1.00  0.00    -0.344 OA
ENDROOT
BRANCH  13  20
HETATM   20  O1  UNL     1       9.707  80.558  45.291  1.00  0.00    -0.389 OA
ATOM     21  H1  UNL     1      10.509  80.613  44.783  1.00  0.00     0.210 HD
ENDBRANCH  13  20
BRANCH  13  22
HETATM   22  C14 UNL     1       8.829  81.842  43.570  1.00  0.00     0.065 C 
BRANCH  22  23
HETATM   23  C15 UNL     1       8.698  80.550  42.832  1.00  0.00     0.167 C 
BRANCH  23  24
HETATM   24  O2  UNL     1       7.329  80.255  42.658  1.00  0.00    -0.401 OA
ATOM     25  H2  UNL     1       6.848  81.067  42.547  1.00  0.00     0.209 HD
ENDBRANCH  23  24
ENDBRANCH  22  23
ENDBRANCH  13  22
TORSDOF 4
ENDMDL
MODEL 3
REMARK VINA RESULT: -6.461516842      4.726      7.106
REMARK  4 active torsions:
REMARK  status: ('A' for Active; 'I' for Inactive)
REMARK    1  A    between atoms: C13_13  and  O1_14 
REMARK    2  A    between atoms: C13_13  and  C14_16 
REMARK    3  A    between atoms: C14_16  and  C15_17 
REMARK    4  A    between atoms: C15_17  and  O2_18 
ROOT
HETATM    1  C1  UNL     1       6.713  76.821  48.528  1.00  0.00     0.043 C 
HETATM    2  C2  UNL     1       7.550  78.000  48.918  1.00  0.00    -0.086 C 
HETATM    3  C3  UNL     1       8.793  77.731  49.286  1.00  0.00    -0.024 C 
HETATM    4  C4  UNL     1       9.824  78.683  49.713  1.00  0.00     0.030 C 
HETATM    5  C5  UNL     1       9.324  80.090  49.894  1.00  0.00     0.043 C 
HETATM    6  C6  UNL     1       8.973  80.768  48.590  1.00  0.00     0.080 C 
HETATM    7  C7  UNL     1       8.763  82.240  48.947  1.00  0.00     0.043 C 
HETATM    8  C8  UNL     1      10.059  82.961  49.129  1.00  0.00     0.032 C 
HETATM    9  C9  UNL     1      10.839  82.823  47.876  1.00  0.00     0.005 C 
HETATM   10  C10 UNL     1      10.795  81.672  47.236  1.00  0.00     0.044 C 
HETATM   11  C11 UNL     1      11.556  81.455  45.962  1.00  0.00     0.067 C 
HETATM   12  C12 UNL     1      10.708  81.718  44.737  1.00  0.00     0.045 C 
HETATM   13  C13 UNL     1       9.748  80.531  44.502  1.00  0.00     0.072 C 
HETATM   14  C16 UNL     1       8.445  80.830  45.132  1.00  0.00     0.078 C 
HETATM   15  C17 UNL     1       7.285  81.134  44.271  1.00  0.00     0.024 C 
HETATM   16  S1  UNL     1       7.973  79.539  46.345  1.00  0.00    -0.153 SA
HETATM   17  C18 UNL     1       7.692  80.279  47.999  1.00  0.00     0.086 C 
HETATM   18  C19 UNL     1       6.910  79.330  48.855  1.00  0.00     0.051 C 
HETATM   19  O3  UNL     1      10.044  80.629  47.720  1.00  0.00    -0.344 OA
ENDROOT
BRANCH  13  20
HETATM   20  O1  UNL     1      10.352  79.435  45.159  1.00  0.00    -0.389 OA
ATOM     21  H1  UNL     1      10.828  78.973  44.479  1.00  0.00     0.210 HD
ENDBRANCH  13  20
BRANCH  13  22
HETATM   22  C14 UNL     1       9.797  80.239  43.055  1.00  0.00     0.065 C 
BRANCH  22  23
HETATM   23  C15 UNL     1      10.327  81.309  42.157  1.00  0.00     0.167 C 
BRANCH  23  24
HETATM   24  O2  UNL     1       9.278  81.790  41.344  1.00  0.00    -0.401 OA
ATOM     25  H2  UNL     1       8.528  81.213  41.433  1.00  0.00     0.209 HD
ENDBRANCH  23  24
ENDBRANCH  22  23
ENDBRANCH  13  22
TORSDOF 4
ENDMDL
MODEL 4
REMARK VINA RESULT: -6.404654403      5.404      7.544
REMARK  4 active torsions:
REMARK  status: ('A' for Active; 'I' for Inactive)
REMARK    1  A    between atoms: C13_13  and  O1_14 
REMARK    2  A    between atoms: C13_13  and  C14_16 
REMARK    3  A    between atoms: C14_16  and  C15_17 
REMARK    4  A    between atoms: C15_17  and  O2_18 
ROOT
HETATM    1  C1  UNL     1       6.970  75.958  46.617  1.00  0.00     0.043 C 
HETATM    2  C2  UNL     1       6.937  76.956  47.734  1.00  0.00    -0.086 C 
HETATM    3  C3  UNL     1       7.668  76.659  48.796  1.00  0.00    -0.024 C 
HETATM    4  C4  UNL     1       7.822  77.446  50.024  1.00  0.00     0.030 C 
HETATM    5  C5  UNL     1       6.903  78.635  50.109  1.00  0.00     0.043 C 
HETATM    6  C6  UNL     1       7.263  79.734  49.136  1.00  0.00     0.080 C 
HETATM    7  C7  UNL     1       6.417  80.936  49.559  1.00  0.00     0.043 C 
HETATM    8  C8  UNL     1       6.987  81.626  50.757  1.00  0.00     0.032 C 
HETATM    9  C9  UNL     1       8.373  82.037  50.431  1.00  0.00     0.005 C 
HETATM   10  C10 UNL     1       9.114  81.221  49.711  1.00  0.00     0.044 C 
HETATM   11  C11 UNL     1      10.526  81.566  49.340  1.00  0.00     0.067 C 
HETATM   12  C12 UNL     1      10.617  82.217  47.977  1.00  0.00     0.045 C 
HETATM   13  C13 UNL     1      10.467  81.144  46.876  1.00  0.00     0.072 C 
HETATM   14  C16 UNL     1       9.054  81.081  46.449  1.00  0.00     0.078 C 
HETATM   15  C17 UNL     1       8.681  81.606  45.121  1.00  0.00     0.024 C 
HETATM   16  S1  UNL     1       8.368  79.392  46.644  1.00  0.00    -0.153 SA
HETATM   17  C18 UNL     1       6.888  79.416  47.726  1.00  0.00     0.086 C 
HETATM   18  C19 UNL     1       6.099  78.156  47.539  1.00  0.00     0.051 C 
HETATM   19  O3  UNL     1       8.613  80.019  49.274  1.00  0.00    -0.344 OA
ENDROOT
BRANCH  13  20
HETATM   20  O1  UNL     1      10.830  79.927  47.498  1.00  0.00    -0.389 OA
ATOM     21  H1  UNL     1      11.298  79.440  46.830  1.00  0.00     0.210 HD
ENDBRANCH  13  20
BRANCH  13  22
HETATM   22  C14 UNL     1      11.510  81.434  45.871  1.00  0.00     0.065 C 
BRANCH  22  23
HETATM   23  C15 UNL     1      12.435  80.321  45.502  1.00  0.00     0.167 C 
BRANCH  23  24
HETATM   24  O2  UNL     1      11.693  79.287  44.892  1.00  0.00    -0.401 OA
ATOM     25  H2  UNL     1      12.039  79.127  44.022  1.00  0.00     0.209 HD
ENDBRANCH  23  24
ENDBRANCH  22  23
ENDBRANCH  13  22
TORSDOF 4
ENDMDL
MODEL 5
REMARK VINA RESULT: -6.279520581      2.530      4.163
REMARK  4 active torsions:
REMARK  status: ('A' for Active; 'I' for Inactive)
REMARK    1  A    between atoms: C13_13  and  O1_14 
REMARK    2  A    between atoms: C13_13  and  C14_16 
REMARK    3  A    between atoms: C14_16  and  C15_17 
REMARK    4  A    between atoms: C15_17  and  O2_18 
ROOT
HETATM    1  C1  UNL     1       7.480  78.594  47.912  1.00  0.00     0.043 C 
HETATM    2  C2  UNL     1       8.129  79.644  47.064  1.00  0.00    -0.086 C 
HETATM    3  C3  UNL     1       9.331  80.039  47.451  1.00  0.00    -0.024 C 
HETATM    4  C4  UNL     1      10.190  81.044  46.815  1.00  0.00     0.030 C 
HETATM    5  C5  UNL     1       9.525  81.799  45.696  1.00  0.00     0.043 C 
HETATM    6  C6  UNL     1       9.287  80.951  44.467  1.00  0.00     0.080 C 
HETATM    7  C7  UNL     1       8.878  81.938  43.373  1.00  0.00     0.043 C 
HETATM    8  C8  UNL     1      10.055  82.665  42.808  1.00  0.00     0.032 C 
HETATM    9  C9  UNL     1      11.008  81.656  42.287  1.00  0.00     0.005 C 
HETATM   10  C10 UNL     1      11.172  80.541  42.968  1.00  0.00     0.044 C 
HETATM   11  C11 UNL     1      12.118  79.472  42.506  1.00  0.00     0.067 C 
HETATM   12  C12 UNL     1      11.422  78.407  41.688  1.00  0.00     0.045 C 
HETATM   13  C13 UNL     1      10.631  77.465  42.623  1.00  0.00     0.072 C 
HETATM   14  C16 UNL     1       9.231  77.928  42.706  1.00  0.00     0.078 C 
HETATM   15  C17 UNL     1       8.174  77.142  42.041  1.00  0.00     0.024 C 
HETATM   16  S1  UNL     1       8.736  78.259  44.440  1.00  0.00    -0.153 SA
HETATM   17  C18 UNL     1       8.157  79.989  44.627  1.00  0.00     0.086 C 
HETATM   18  C19 UNL     1       7.369  80.129  45.894  1.00  0.00     0.051 C 
HETATM   19  O3  UNL     1      10.475  80.320  44.131  1.00  0.00    -0.344 OA
ENDROOT
BRANCH  13  20
HETATM   20  O1  UNL     1      11.251  77.597  43.886  1.00  0.00    -0.389 OA
ATOM     21  H1  UNL     1      10.784  76.995  44.454  1.00  0.00     0.210 HD
ENDBRANCH  13  20
BRANCH  13  22
HETATM   22  C14 UNL     1      10.908  76.091  42.156  1.00  0.00     0.065 C 
BRANCH  22  23
HETATM   23  C15 UNL     1      12.321  75.613  42.232  1.00  0.00     0.167 C 
BRANCH  23  24
HETATM   24  O2  UNL     1      12.579  75.139  43.536  1.00  0.00    -0.401 OA
ATOM     25  H2  UNL     1      12.047  74.368  43.697  1.00  0.00     0.209 HD
ENDBRANCH  23  24
ENDBRANCH  22  23
ENDBRANCH  13  22
TORSDOF 4
ENDMDL
