MODEL 1
REMARK VINA RESULT: -6.349668219      0.000      0.000
REMARK  3 active torsions:
REMARK  status: ('A' for Active; 'I' for Inactive)
REMARK    1  A    between atoms: O1_1  and  N1_3 
REMARK    2  A    between atoms: N3_8  and  C3_9 
REMARK    3  A    between atoms: C3_9  and  C4_10 
ROOT
HETATM    1  N1  UNL     1      79.905  74.014  97.453  1.00  0.00    -0.156 N 
HETATM    2  C1  UNL     1      78.602  74.271  97.259  1.00  0.00     0.235 A 
HETATM    3  N2  UNL     1      78.115  74.865  98.359  1.00  0.00    -0.344 N 
ATOM      4  H2  UNL     1      77.159  75.182  98.520  1.00  0.00     0.167 HD
HETATM    5  C2  UNL     1      79.155  74.954  99.203  1.00  0.00     0.204 A 
HETATM    6  N3  UNL     1      80.257  74.434  98.654  1.00  0.00    -0.257 N 
ENDROOT
BRANCH   6   7
HETATM    7  C3  UNL     1      81.600  74.338  99.249  1.00  0.00     0.191 C 
BRANCH   7   8
HETATM    8  C4  UNL     1      82.466  75.454  98.767  1.00  0.00    -0.038 A 
HETATM    9  C5  UNL     1      81.952  76.718  98.578  1.00  0.00     0.009 A 
HETATM   10  C6  UNL     1      82.792  77.721  98.129  1.00  0.00     0.001 A 
HETATM   11  C7  UNL     1      84.128  77.433  97.881  1.00  0.00     0.000 A 
HETATM   12  C8  UNL     1      84.618  76.154  98.079  1.00  0.00     0.001 A 
HETATM   13  C9  UNL     1      83.804  75.149  98.522  1.00  0.00     0.009 A 
ENDBRANCH   7   8
ENDBRANCH   6   7
BRANCH   1  14
HETATM   14  O1  UNL     1      80.754  73.411  96.551  1.00  0.00    -0.267 OA
ATOM     15  H1  UNL     1      81.678  73.239  96.684  1.00  0.00     0.247 HD
ENDBRANCH   1  14
TORSDOF 3
ENDMDL
MODEL 2
REMARK VINA RESULT: -6.271638321      0.086      1.343
REMARK  3 active torsions:
REMARK  status: ('A' for Active; 'I' for Inactive)
REMARK    1  A    between atoms: O1_1  and  N1_3 
REMARK    2  A    between atoms: N3_8  and  C3_9 
REMARK    3  A    between atoms: C3_9  and  C4_10 
ROOT
HETATM    1  N1  UNL     1      79.883  74.028  97.442  1.00  0.00    -0.156 N 
HETATM    2  C1  UNL     1      78.595  74.311  97.187  1.00  0.00     0.235 A 
HETATM    3  N2  UNL     1      78.078  74.947  98.249  1.00  0.00    -0.344 N 
ATOM      4  H2  UNL     1      77.125  75.291  98.361  1.00  0.00     0.167 HD
HETATM    5  C2  UNL     1      79.085  75.032  99.133  1.00  0.00     0.204 A 
HETATM    6  N3  UNL     1      80.195  74.471  98.645  1.00  0.00    -0.257 N 
ENDROOT
BRANCH   6   7
HETATM    7  C3  UNL     1      81.508  74.358  99.299  1.00  0.00     0.191 C 
BRANCH   7   8
HETATM    8  C4  UNL     1      82.432  75.421  98.802  1.00  0.00    -0.038 A 
HETATM    9  C5  UNL     1      83.752  75.139  98.527  1.00  0.00     0.009 A 
HETATM   10  C6  UNL     1      84.571  76.155  98.070  1.00  0.00     0.001 A 
HETATM   11  C7  UNL     1      84.048  77.430  97.900  1.00  0.00     0.000 A 
HETATM   12  C8  UNL     1      82.717  77.685  98.184  1.00  0.00     0.001 A 
HETATM   13  C9  UNL     1      81.892  76.694  98.636  1.00  0.00     0.009 A 
ENDBRANCH   7   8
ENDBRANCH   6   7
BRANCH   1  14
HETATM   14  O1  UNL     1      80.752  73.379  96.592  1.00  0.00    -0.267 OA
ATOM     15  H1  UNL     1      80.683  72.476  96.306  1.00  0.00     0.247 HD
ENDBRANCH   1  14
TORSDOF 3
ENDMDL
MODEL 3
REMARK VINA RESULT: -6.103338995      1.456      2.120
REMARK  3 active torsions:
REMARK  status: ('A' for Active; 'I' for Inactive)
REMARK    1  A    between atoms: O1_1  and  N1_3 
REMARK    2  A    between atoms: N3_8  and  C3_9 
REMARK    3  A    between atoms: C3_9  and  C4_10 
ROOT
HETATM    1  N1  UNL     1      79.136  75.148  98.488  1.00  0.00    -0.156 N 
HETATM    2  C1  UNL     1      78.514  74.508  97.485  1.00  0.00     0.235 A 
HETATM    3  N2  UNL     1      79.380  73.652  96.922  1.00  0.00    -0.344 N 
ATOM      4  H2  UNL     1      79.209  73.023  96.138  1.00  0.00     0.167 HD
HETATM    5  C2  UNL     1      80.522  73.800  97.613  1.00  0.00     0.204 A 
HETATM    6  N3  UNL     1      80.380  74.716  98.575  1.00  0.00    -0.257 N 
ENDROOT
BRANCH   6   7
HETATM    7  C3  UNL     1      81.390  75.167  99.545  1.00  0.00     0.191 C 
BRANCH   7   8
HETATM    8  C4  UNL     1      82.472  75.932  98.856  1.00  0.00    -0.038 A 
HETATM    9  C5  UNL     1      83.707  75.366  98.632  1.00  0.00     0.009 A 
HETATM   10  C6  UNL     1      84.678  76.112  97.990  1.00  0.00     0.001 A 
HETATM   11  C7  UNL     1      84.388  77.409  97.587  1.00  0.00     0.000 A 
HETATM   12  C8  UNL     1      83.138  77.953  97.824  1.00  0.00     0.001 A 
HETATM   13  C9  UNL     1      82.165  77.231  98.457  1.00  0.00     0.009 A 
ENDBRANCH   7   8
ENDBRANCH   6   7
BRANCH   1  14
HETATM   14  O1  UNL     1      78.577  76.106  99.306  1.00  0.00    -0.267 OA
ATOM     15  H1  UNL     1      78.292  75.976 100.203  1.00  0.00     0.247 HD
ENDBRANCH   1  14
TORSDOF 3
ENDMDL
MODEL 4
REMARK VINA RESULT: -5.902797362      2.208      4.567
REMARK  3 active torsions:
REMARK  status: ('A' for Active; 'I' for Inactive)
REMARK    1  A    between atoms: O1_1  and  N1_3 
REMARK    2  A    between atoms: N3_8  and  C3_9 
REMARK    3  A    between atoms: C3_9  and  C4_10 
ROOT
HETATM    1  N1  UNL     1      83.459  75.515  98.569  1.00  0.00    -0.156 N 
HETATM    2  C1  UNL     1      84.107  76.523  97.965  1.00  0.00     0.235 A 
HETATM    3  N2  UNL     1      83.329  77.615  98.000  1.00  0.00    -0.344 N 
ATOM      4  H2  UNL     1      83.540  78.540  97.624  1.00  0.00     0.167 HD
HETATM    5  C2  UNL     1      82.210  77.231  98.636  1.00  0.00     0.204 A 
HETATM    6  N3  UNL     1      82.283  75.944  98.988  1.00  0.00    -0.257 N 
ENDROOT
BRANCH   6   7
HETATM    7  C3  UNL     1      81.270  75.146  99.698  1.00  0.00     0.191 C 
BRANCH   7   8
HETATM    8  C4  UNL     1      80.069  74.939  98.835  1.00  0.00    -0.038 A 
HETATM    9  C5  UNL     1      78.878  75.572  99.116  1.00  0.00     0.009 A 
HETATM   10  C6  UNL     1      77.792  75.349  98.290  1.00  0.00     0.001 A 
HETATM   11  C7  UNL     1      77.925  74.498  97.201  1.00  0.00     0.000 A 
HETATM   12  C8  UNL     1      79.134  73.876  96.941  1.00  0.00     0.001 A 
HETATM   13  C9  UNL     1      80.219  74.083  97.747  1.00  0.00     0.009 A 
ENDBRANCH   7   8
ENDBRANCH   6   7
BRANCH   1  14
HETATM   14  O1  UNL     1      83.932  74.232  98.734  1.00  0.00    -0.267 OA
ATOM     15  H1  UNL     1      84.005  73.573  98.054  1.00  0.00     0.247 HD
ENDBRANCH   1  14
TORSDOF 3
ENDMDL
MODEL 5
REMARK VINA RESULT: -5.886440608      2.203      4.736
REMARK  3 active torsions:
REMARK  status: ('A' for Active; 'I' for Inactive)
REMARK    1  A    between atoms: O1_1  and  N1_3 
REMARK    2  A    between atoms: N3_8  and  C3_9 
REMARK    3  A    between atoms: C3_9  and  C4_10 
ROOT
HETATM    1  N1  UNL     1      83.443  75.516  98.563  1.00  0.00    -0.156 N 
HETATM    2  C1  UNL     1      84.112  76.517  97.970  1.00  0.00     0.235 A 
HETATM    3  N2  UNL     1      83.341  77.615  97.984  1.00  0.00    -0.344 N 
ATOM      4  H2  UNL     1      83.568  78.536  97.611  1.00  0.00     0.167 HD
HETATM    5  C2  UNL     1      82.206  77.241  98.597  1.00  0.00     0.204 A 
HETATM    6  N3  UNL     1      82.262  75.954  98.954  1.00  0.00    -0.257 N 
ENDROOT
BRANCH   6   7
HETATM    7  C3  UNL     1      81.228  75.166  99.644  1.00  0.00     0.191 C 
BRANCH   7   8
HETATM    8  C4  UNL     1      80.069  74.916  98.737  1.00  0.00    -0.038 A 
HETATM    9  C5  UNL     1      80.186  74.068  97.657  1.00  0.00     0.009 A 
HETATM   10  C6  UNL     1      79.086  73.866  96.844  1.00  0.00     0.001 A 
HETATM   11  C7  UNL     1      77.895  74.519  97.130  1.00  0.00     0.000 A 
HETATM   12  C8  UNL     1      77.805  75.365  98.222  1.00  0.00     0.001 A 
HETATM   13  C9  UNL     1      78.881  75.577  99.038  1.00  0.00     0.009 A 
ENDBRANCH   7   8
ENDBRANCH   6   7
BRANCH   1  14
HETATM   14  O1  UNL     1      83.904  74.229  98.742  1.00  0.00    -0.267 OA
ATOM     15  H1  UNL     1      84.653  73.973  99.266  1.00  0.00     0.247 HD
ENDBRANCH   1  14
TORSDOF 3
ENDMDL
