MODEL 1
REMARK VINA RESULT: -6.281508650      0.000      0.000
REMARK  3 active torsions:
REMARK  status: ('A' for Active; 'I' for Inactive)
REMARK    1  A    between atoms: O1_1  and  N1_3 
REMARK    2  A    between atoms: C5_8  and  C6_9 
REMARK    3  A    between atoms: C6_9  and  N2_10 
ROOT
HETATM    1  N1  UNL     1      83.700  75.314  98.637  1.00  0.00    -0.239 N 
HETATM    2  C1  UNL     1      84.582  76.101  98.010  1.00  0.00     0.123 A 
HETATM    3  C2  UNL     1      84.319  77.394  97.612  1.00  0.00     0.020 A 
HETATM    4  C3  UNL     1      83.070  77.892  97.883  1.00  0.00     0.003 A 
HETATM    5  C4  UNL     1      82.139  77.087  98.534  1.00  0.00     0.029 A 
HETATM    6  C5  UNL     1      82.486  75.795  98.901  1.00  0.00     0.058 A 
ENDROOT
BRANCH   6   7
HETATM    7  C6  UNL     1      81.468  74.970  99.592  1.00  0.00     0.188 C 
BRANCH   7   8
HETATM    8  N2  UNL     1      80.439  74.596  98.641  1.00  0.00    -0.346 N 
HETATM    9  C7  UNL     1      79.122  74.921  98.641  1.00  0.00     0.109 A 
HETATM   10  C8  UNL     1      78.521  74.343  97.545  1.00  0.00     0.106 A 
HETATM   11  N3  UNL     1      79.475  73.669  96.882  1.00  0.00    -0.361 N 
HETATM   12  C9  UNL     1      80.632  73.829  97.556  1.00  0.00     0.182 A 
ATOM     13  H3  UNL     1      79.348  73.132  96.023  1.00  0.00     0.166 HD
ENDBRANCH   7   8
ENDBRANCH   6   7
BRANCH   1  14
HETATM   14  O1  UNL     1      84.048  74.017  99.007  1.00  0.00    -0.283 OA
ATOM     15  H1  UNL     1      83.712  73.639  99.811  1.00  0.00     0.245 HD
ENDBRANCH   1  14
TORSDOF 3
ENDMDL
MODEL 2
REMARK VINA RESULT: -5.965509022      0.618      1.041
REMARK  3 active torsions:
REMARK  status: ('A' for Active; 'I' for Inactive)
REMARK    1  A    between atoms: O1_1  and  N1_3 
REMARK    2  A    between atoms: C5_8  and  C6_9 
REMARK    3  A    between atoms: C6_9  and  N2_10 
ROOT
HETATM    1  N1  UNL     1      83.668  75.291  98.665  1.00  0.00    -0.239 N 
HETATM    2  C1  UNL     1      84.552  76.042  97.998  1.00  0.00     0.123 A 
HETATM    3  C2  UNL     1      84.316  77.337  97.593  1.00  0.00     0.020 A 
HETATM    4  C3  UNL     1      83.094  77.878  97.900  1.00  0.00     0.003 A 
HETATM    5  C4  UNL     1      82.161  77.111  98.593  1.00  0.00     0.029 A 
HETATM    6  C5  UNL     1      82.479  75.813  98.964  1.00  0.00     0.058 A 
ENDROOT
BRANCH   6   7
HETATM    7  C6  UNL     1      81.461  75.029  99.700  1.00  0.00     0.188 C 
BRANCH   7   8
HETATM    8  N2  UNL     1      80.338  74.769  98.819  1.00  0.00    -0.346 N 
HETATM    9  C7  UNL     1      80.317  74.085  97.648  1.00  0.00     0.109 A 
HETATM   10  C8  UNL     1      79.031  74.090  97.153  1.00  0.00     0.106 A 
HETATM   11  N3  UNL     1      78.275  74.777  98.026  1.00  0.00    -0.361 N 
HETATM   12  C9  UNL     1      79.078  75.182  99.030  1.00  0.00     0.182 A 
ATOM     13  H3  UNL     1      77.274  74.958  97.944  1.00  0.00     0.166 HD
ENDBRANCH   7   8
ENDBRANCH   6   7
BRANCH   1  14
HETATM   14  O1  UNL     1      83.987  73.987  99.038  1.00  0.00    -0.283 OA
ATOM     15  H1  UNL     1      83.543  73.573  99.770  1.00  0.00     0.245 HD
ENDBRANCH   1  14
TORSDOF 3
ENDMDL
MODEL 3
REMARK VINA RESULT: -5.817178291      1.640      2.493
REMARK  3 active torsions:
REMARK  status: ('A' for Active; 'I' for Inactive)
REMARK    1  A    between atoms: O1_1  and  N1_3 
REMARK    2  A    between atoms: C5_8  and  C6_9 
REMARK    3  A    between atoms: C6_9  and  N2_10 
ROOT
HETATM    1  N1  UNL     1      83.801  75.060  98.588  1.00  0.00    -0.239 N 
HETATM    2  C1  UNL     1      84.557  76.139  98.357  1.00  0.00     0.123 A 
HETATM    3  C2  UNL     1      84.053  77.391  98.076  1.00  0.00     0.020 A 
HETATM    4  C3  UNL     1      82.689  77.522  98.034  1.00  0.00     0.003 A 
HETATM    5  C4  UNL     1      81.886  76.410  98.271  1.00  0.00     0.029 A 
HETATM    6  C5  UNL     1      82.475  75.184  98.547  1.00  0.00     0.058 A 
ENDROOT
BRANCH   6   7
HETATM    7  C6  UNL     1      81.588  74.025  98.793  1.00  0.00     0.188 C 
BRANCH   7   8
HETATM    8  N2  UNL     1      81.009  74.145 100.118  1.00  0.00    -0.346 N 
HETATM    9  C7  UNL     1      81.625  74.076 101.324  1.00  0.00     0.109 A 
HETATM   10  C8  UNL     1      80.683  74.245 102.315  1.00  0.00     0.106 A 
HETATM   11  N3  UNL     1      79.497  74.415 101.706  1.00  0.00    -0.361 N 
HETATM   12  C9  UNL     1      79.708  74.352 100.376  1.00  0.00     0.182 A 
ATOM     13  H3  UNL     1      78.599  74.565 102.167  1.00  0.00     0.166 HD
ENDBRANCH   7   8
ENDBRANCH   6   7
BRANCH   1  14
HETATM   14  O1  UNL     1      84.392  73.829  98.865  1.00  0.00    -0.283 OA
ATOM     15  H1  UNL     1      83.887  73.132  99.267  1.00  0.00     0.245 HD
ENDBRANCH   1  14
TORSDOF 3
ENDMDL
MODEL 4
REMARK VINA RESULT: -5.546779507      1.588      1.907
REMARK  3 active torsions:
REMARK  status: ('A' for Active; 'I' for Inactive)
REMARK    1  A    between atoms: O1_1  and  N1_3 
REMARK    2  A    between atoms: C5_8  and  C6_9 
REMARK    3  A    between atoms: C6_9  and  N2_10 
ROOT
HETATM    1  N1  UNL     1      81.999  77.151  98.802  1.00  0.00    -0.239 N 
HETATM    2  C1  UNL     1      82.966  77.872  98.222  1.00  0.00     0.123 A 
HETATM    3  C2  UNL     1      84.180  77.358  97.822  1.00  0.00     0.020 A 
HETATM    4  C3  UNL     1      84.397  76.021  98.038  1.00  0.00     0.003 A 
HETATM    5  C4  UNL     1      83.403  75.256  98.641  1.00  0.00     0.029 A 
HETATM    6  C5  UNL     1      82.208  75.852  99.014  1.00  0.00     0.058 A 
ENDROOT
BRANCH   6   7
HETATM    7  C6  UNL     1      81.175  75.005  99.652  1.00  0.00     0.188 C 
BRANCH   7   8
HETATM    8  N2  UNL     1      80.219  74.585  98.645  1.00  0.00    -0.346 N 
HETATM    9  C7  UNL     1      78.889  74.839  98.578  1.00  0.00     0.109 A 
HETATM   10  C8  UNL     1      78.378  74.241  97.447  1.00  0.00     0.106 A 
HETATM   11  N3  UNL     1      79.401  73.626  96.831  1.00  0.00    -0.361 N 
HETATM   12  C9  UNL     1      80.510  73.841  97.566  1.00  0.00     0.182 A 
ATOM     13  H3  UNL     1      79.348  73.091  95.963  1.00  0.00     0.166 HD
ENDBRANCH   7   8
ENDBRANCH   6   7
BRANCH   1  14
HETATM   14  O1  UNL     1      80.799  77.750  99.176  1.00  0.00    -0.283 OA
ATOM     15  H1  UNL     1      80.794  78.485  99.778  1.00  0.00     0.245 HD
ENDBRANCH   1  14
TORSDOF 3
ENDMDL
MODEL 5
REMARK VINA RESULT: -5.337170485      1.544      4.558
REMARK  3 active torsions:
REMARK  status: ('A' for Active; 'I' for Inactive)
REMARK    1  A    between atoms: O1_1  and  N1_3 
REMARK    2  A    between atoms: C5_8  and  C6_9 
REMARK    3  A    between atoms: C6_9  and  N2_10 
ROOT
HETATM    1  N1  UNL     1      79.900  73.987  97.379  1.00  0.00    -0.239 N 
HETATM    2  C1  UNL     1      78.629  74.224  97.032  1.00  0.00     0.123 A 
HETATM    3  C2  UNL     1      77.745  74.959  97.791  1.00  0.00     0.020 A 
HETATM    4  C3  UNL     1      78.210  75.474  98.974  1.00  0.00     0.003 A 
HETATM    5  C4  UNL     1      79.529  75.237  99.351  1.00  0.00     0.029 A 
HETATM    6  C5  UNL     1      80.354  74.486  98.528  1.00  0.00     0.058 A 
ENDROOT
BRANCH   6   7
HETATM    7  C6  UNL     1      81.750  74.255  98.964  1.00  0.00     0.188 C 
BRANCH   7   8
HETATM    8  N2  UNL     1      82.591  75.315  98.440  1.00  0.00    -0.346 N 
HETATM    9  C7  UNL     1      82.225  76.441  97.780  1.00  0.00     0.109 A 
HETATM   10  C8  UNL     1      83.358  77.162  97.469  1.00  0.00     0.106 A 
HETATM   11  N3  UNL     1      84.408  76.470  97.943  1.00  0.00    -0.361 N 
HETATM   12  C9  UNL     1      83.930  75.354  98.529  1.00  0.00     0.182 A 
ATOM     13  H3  UNL     1      85.389  76.741  97.872  1.00  0.00     0.166 HD
ENDBRANCH   7   8
ENDBRANCH   6   7
BRANCH   1  14
HETATM   14  O1  UNL     1      80.729  73.233  96.553  1.00  0.00    -0.283 OA
ATOM     15  H1  UNL     1      80.943  73.536  95.678  1.00  0.00     0.245 HD
ENDBRANCH   1  14
TORSDOF 3
ENDMDL
