MODEL 1
REMARK VINA RESULT: -6.124477007      0.000      0.000
REMARK  4 active torsions:
REMARK  status: ('A' for Active; 'I' for Inactive)
REMARK    1  A    between atoms: C4_4  and  C5_5 
REMARK    2  A    between atoms: N1_10  and  C10_11 
REMARK    3  A    between atoms: C10_11  and  C11_12 
REMARK    4  A    between atoms: C11_12  and  O1_13 
ROOT
HETATM    1  C1  UNL     1      84.101  77.714  97.118  1.00  0.00     0.027 C 
HETATM    2  C2  UNL     1      83.167  76.998  97.402  1.00  0.00    -0.026 C 
HETATM    3  C3  UNL     1      82.085  76.139  97.739  1.00  0.00    -0.009 C 
HETATM    4  C4  UNL     1      81.178  75.394  98.023  1.00  0.00    -0.035 C 
ENDROOT
BRANCH   4   5
HETATM    5  C5  UNL     1      80.098  74.481  98.354  1.00  0.00     0.089 A 
HETATM    6  C6  UNL     1      79.226  74.090  97.354  1.00  0.00     0.039 A 
HETATM    7  C7  UNL     1      78.202  73.232  97.646  1.00  0.00     0.004 A 
HETATM    8  C8  UNL     1      78.054  72.770  98.925  1.00  0.00     0.017 A 
HETATM    9  C9  UNL     1      78.956  73.195  99.877  1.00  0.00     0.092 A 
HETATM   10  N1  UNL     1      79.971  74.039  99.618  1.00  0.00    -0.348 N 
BRANCH  10  11
HETATM   11  C10 UNL     1      80.912  74.479 100.629  1.00  0.00     0.155 C 
BRANCH  11  12
HETATM   12  C11 UNL     1      81.913  73.395 100.964  1.00  0.00     0.184 C 
BRANCH  12  13
HETATM   13  O1  UNL     1      83.042  73.467 100.183  1.00  0.00    -0.399 OA
ATOM     14  H1  UNL     1      82.998  72.890  99.430  1.00  0.00     0.209 HD
ENDBRANCH  12  13
ENDBRANCH  11  12
ENDBRANCH  10  11
ENDBRANCH   4   5
TORSDOF 4
ENDMDL
MODEL 2
REMARK VINA RESULT: -5.761580185      1.018      1.033
REMARK  4 active torsions:
REMARK  status: ('A' for Active; 'I' for Inactive)
REMARK    1  A    between atoms: C4_4  and  C5_5 
REMARK    2  A    between atoms: N1_10  and  C10_11 
REMARK    3  A    between atoms: C10_11  and  C11_12 
REMARK    4  A    between atoms: C11_12  and  O1_13 
ROOT
HETATM    1  C1  UNL     1      84.055  77.603  97.148  1.00  0.00     0.027 C 
HETATM    2  C2  UNL     1      83.108  76.914  97.457  1.00  0.00    -0.026 C 
HETATM    3  C3  UNL     1      81.982  76.120  97.809  1.00  0.00    -0.009 C 
HETATM    4  C4  UNL     1      81.015  75.461  98.103  1.00  0.00    -0.035 C 
ENDROOT
BRANCH   4   5
HETATM    5  C5  UNL     1      79.839  74.686  98.460  1.00  0.00     0.089 A 
HETATM    6  C6  UNL     1      78.661  74.907  97.771  1.00  0.00     0.039 A 
HETATM    7  C7  UNL     1      77.543  74.189  98.092  1.00  0.00     0.004 A 
HETATM    8  C8  UNL     1      77.605  73.257  99.093  1.00  0.00     0.017 A 
HETATM    9  C9  UNL     1      78.808  73.082  99.742  1.00  0.00     0.092 A 
HETATM   10  N1  UNL     1      79.923  73.775  99.447  1.00  0.00    -0.348 N 
BRANCH  10  11
HETATM   11  C10 UNL     1      81.182  73.582 100.137  1.00  0.00     0.155 C 
BRANCH  11  12
HETATM   12  C11 UNL     1      81.140  74.156 101.537  1.00  0.00     0.184 C 
BRANCH  12  13
HETATM   13  O1  UNL     1      81.669  75.423 101.598  1.00  0.00    -0.399 OA
ATOM     14  H1  UNL     1      81.037  76.090 101.358  1.00  0.00     0.209 HD
ENDBRANCH  12  13
ENDBRANCH  11  12
ENDBRANCH  10  11
ENDBRANCH   4   5
TORSDOF 4
ENDMDL
MODEL 3
REMARK VINA RESULT: -5.699018969      3.496      4.634
REMARK  4 active torsions:
REMARK  status: ('A' for Active; 'I' for Inactive)
REMARK    1  A    between atoms: C4_4  and  C5_5 
REMARK    2  A    between atoms: N1_10  and  C10_11 
REMARK    3  A    between atoms: C10_11  and  C11_12 
REMARK    4  A    between atoms: C11_12  and  O1_13 
ROOT
HETATM    1  C1  UNL     1      82.411  76.200  97.886  1.00  0.00     0.027 C 
HETATM    2  C2  UNL     1      81.257  75.895  98.092  1.00  0.00    -0.026 C 
HETATM    3  C3  UNL     1      79.900  75.556  98.347  1.00  0.00    -0.009 C 
HETATM    4  C4  UNL     1      78.747  75.282  98.578  1.00  0.00    -0.035 C 
ENDROOT
BRANCH   4   5
HETATM    5  C5  UNL     1      77.362  74.960  98.876  1.00  0.00     0.089 A 
HETATM    6  C6  UNL     1      76.877  75.216 100.145  1.00  0.00     0.039 A 
HETATM    7  C7  UNL     1      75.576  74.920 100.446  1.00  0.00     0.004 A 
HETATM    8  C8  UNL     1      74.770  74.374  99.484  1.00  0.00     0.017 A 
HETATM    9  C9  UNL     1      75.312  74.144  98.238  1.00  0.00     0.092 A 
HETATM   10  N1  UNL     1      76.587  74.425  97.915  1.00  0.00    -0.348 N 
BRANCH  10  11
HETATM   11  C10 UNL     1      77.145  74.177  96.601  1.00  0.00     0.155 C 
BRANCH  11  12
HETATM   12  C11 UNL     1      76.103  73.621  95.653  1.00  0.00     0.184 C 
BRANCH  12  13
HETATM   13  O1  UNL     1      76.386  73.909  94.340  1.00  0.00    -0.399 OA
ATOM     14  H1  UNL     1      75.900  73.360  93.736  1.00  0.00     0.209 HD
ENDBRANCH  12  13
ENDBRANCH  11  12
ENDBRANCH  10  11
ENDBRANCH   4   5
TORSDOF 4
ENDMDL
MODEL 4
REMARK VINA RESULT: -5.639142240      1.286      1.378
REMARK  4 active torsions:
REMARK  status: ('A' for Active; 'I' for Inactive)
REMARK    1  A    between atoms: C4_4  and  C5_5 
REMARK    2  A    between atoms: N1_10  and  C10_11 
REMARK    3  A    between atoms: C10_11  and  C11_12 
REMARK    4  A    between atoms: C11_12  and  O1_13 
ROOT
HETATM    1  C1  UNL     1      84.355  77.597  97.079  1.00  0.00     0.027 C 
HETATM    2  C2  UNL     1      83.313  77.117  97.466  1.00  0.00    -0.026 C 
HETATM    3  C3  UNL     1      82.102  76.532  97.926  1.00  0.00    -0.009 C 
HETATM    4  C4  UNL     1      81.081  76.018  98.316  1.00  0.00    -0.035 C 
ENDROOT
BRANCH   4   5
HETATM    5  C5  UNL     1      79.859  75.380  98.775  1.00  0.00     0.089 A 
HETATM    6  C6  UNL     1      78.698  76.128  98.833  1.00  0.00     0.039 A 
HETATM    7  C7  UNL     1      77.538  75.546  99.263  1.00  0.00     0.004 A 
HETATM    8  C8  UNL     1      77.542  74.228  99.631  1.00  0.00     0.017 A 
HETATM    9  C9  UNL     1      78.730  73.535  99.550  1.00  0.00     0.092 A 
HETATM   10  N1  UNL     1      79.886  74.082  99.131  1.00  0.00    -0.348 N 
BRANCH  10  11
HETATM   11  C10 UNL     1      81.129  73.343  99.051  1.00  0.00     0.155 C 
BRANCH  11  12
HETATM   12  C11 UNL     1      81.975  73.545 100.290  1.00  0.00     0.184 C 
BRANCH  12  13
HETATM   13  O1  UNL     1      83.317  73.601 100.003  1.00  0.00    -0.399 OA
ATOM     14  H1  UNL     1      83.837  73.861 100.754  1.00  0.00     0.209 HD
ENDBRANCH  12  13
ENDBRANCH  11  12
ENDBRANCH  10  11
ENDBRANCH   4   5
TORSDOF 4
ENDMDL
MODEL 5
REMARK VINA RESULT: -5.623313607      1.873      3.098
REMARK  4 active torsions:
REMARK  status: ('A' for Active; 'I' for Inactive)
REMARK    1  A    between atoms: C4_4  and  C5_5 
REMARK    2  A    between atoms: N1_10  and  C10_11 
REMARK    3  A    between atoms: C10_11  and  C11_12 
REMARK    4  A    between atoms: C11_12  and  O1_13 
ROOT
HETATM    1  C1  UNL     1      83.907  77.619  97.015  1.00  0.00     0.027 C 
HETATM    2  C2  UNL     1      83.146  76.893  97.615  1.00  0.00    -0.026 C 
HETATM    3  C3  UNL     1      82.252  76.057  98.337  1.00  0.00    -0.009 C 
HETATM    4  C4  UNL     1      81.494  75.357  98.966  1.00  0.00    -0.035 C 
ENDROOT
BRANCH   4   5
HETATM    5  C5  UNL     1      80.594  74.522  99.742  1.00  0.00     0.089 A 
HETATM    6  C6  UNL     1      80.842  74.348 101.091  1.00  0.00     0.039 A 
HETATM    7  C7  UNL     1      80.007  73.565 101.838  1.00  0.00     0.004 A 
HETATM    8  C8  UNL     1      78.933  72.963 101.239  1.00  0.00     0.017 A 
HETATM    9  C9  UNL     1      78.738  73.176  99.892  1.00  0.00     0.092 A 
HETATM   10  N1  UNL     1      79.544  73.940  99.133  1.00  0.00    -0.348 N 
BRANCH  10  11
HETATM   11  C10 UNL     1      79.328  74.155  97.716  1.00  0.00     0.155 C 
BRANCH  11  12
HETATM   12  C11 UNL     1      78.069  73.466  97.237  1.00  0.00     0.184 C 
BRANCH  12  13
HETATM   13  O1  UNL     1      78.340  72.353  96.478  1.00  0.00    -0.399 OA
ATOM     14  H1  UNL     1      77.591  72.075  95.963  1.00  0.00     0.209 HD
ENDBRANCH  12  13
ENDBRANCH  11  12
ENDBRANCH  10  11
ENDBRANCH   4   5
TORSDOF 4
ENDMDL
