MODEL 1
REMARK VINA RESULT: -7.345666958      0.000      0.000
REMARK  8 active torsions:
REMARK  status: ('A' for Active; 'I' for Inactive)
REMARK    1  A    between atoms: N1_1  and  C1_4 
REMARK    2  A    between atoms: C3_8  and  N3_9 
REMARK    3  A    between atoms: N3_9  and  C4_10 
REMARK    4  A    between atoms: C4_10  and  C5_11 
REMARK    5  A    between atoms: C5_11  and  C6_12 
REMARK    6  A    between atoms: C6_12  and  C7_13 
REMARK    7  A    between atoms: C7_13  and  O1_14 
REMARK    8  A    between atoms: N5_22  and  C10_23 
ROOT
HETATM    1  C1  UNL     1      21.551  -1.947   5.044  1.00  0.00     0.678 A 
HETATM    2  N2  UNL     1      21.060  -2.143   6.277  1.00  0.00    -0.185 N 
ATOM      3  H2  UNL     1      20.333  -1.576   6.713  1.00  0.00     0.184 HD
HETATM    4  C2  UNL     1      21.664  -3.190   6.851  1.00  0.00     0.140 A 
HETATM    5  C3  UNL     1      21.341  -3.613   8.163  1.00  0.00     0.204 C 
HETATM    6  C8  UNL     1      21.761  -4.866   8.636  1.00  0.00     0.292 C 
HETATM    7  O2  UNL     1      20.946  -5.423   9.395  1.00  0.00    -0.264 OA
HETATM    8  N4  UNL     1      22.918  -5.521   8.368  1.00  0.00    -0.272 N 
ATOM      9  H4  UNL     1      23.236  -6.191   9.070  1.00  0.00     0.174 HD
HETATM   10  C9  UNL     1      23.692  -5.383   7.275  1.00  0.00     0.337 C 
HETATM   11  O3  UNL     1      24.820  -5.903   7.308  1.00  0.00    -0.246 OA
HETATM   12  N5  UNL     1      23.408  -4.742   6.114  1.00  0.00    -0.223 N 
HETATM   13  C11 UNL     1      22.581  -3.687   5.951  1.00  0.00     0.164 A 
HETATM   14  N6  UNL     1      22.487  -2.914   4.870  1.00  0.00    -0.174 N 
ATOM     15  H6  UNL     1      23.045  -3.032   4.024  1.00  0.00     0.186 HD
ENDROOT
BRANCH   5  16
HETATM   16  N3  UNL     1      20.706  -2.845   8.822  1.00  0.00    -0.414 NA
BRANCH  16  17
HETATM   17  C4  UNL     1      19.688  -2.259   9.485  1.00  0.00     0.156 C 
BRANCH  17  18
HETATM   18  C5  UNL     1      18.634  -1.486   8.701  1.00  0.00     0.061 C 
BRANCH  18  19
HETATM   19  C6  UNL     1      17.370  -1.476   9.528  1.00  0.00     0.032 C 
BRANCH  19  20
HETATM   20  C7  UNL     1      17.393  -2.345  10.737  1.00  0.00     0.164 C 
BRANCH  20  21
HETATM   21  O1  UNL     1      16.156  -2.939  11.004  1.00  0.00    -0.401 OA
ATOM     22  H1  UNL     1      16.009  -3.085  11.931  1.00  0.00     0.209 HD
ENDBRANCH  20  21
ENDBRANCH  19  20
ENDBRANCH  18  19
ENDBRANCH  17  18
ENDBRANCH  16  17
ENDBRANCH   5  16
BRANCH   1  23
HETATM   23  N1  UNL     1      21.220  -1.031   4.172  1.00  0.00    -0.234 N 
ATOM     24  H12 UNL     1      21.122  -0.033   4.358  1.00  0.00     0.174 HD
ATOM     25  H11 UNL     1      21.007  -1.145   3.181  1.00  0.00     0.174 HD
ENDBRANCH   1  23
BRANCH  12  26
HETATM   26  C10 UNL     1      24.031  -5.213   4.939  1.00  0.00     0.365 C 
HETATM   27  O4  UNL     1      23.326  -5.397   3.885  1.00  0.00    -0.283 OA
ENDBRANCH  12  26
TORSDOF 8
ENDMDL
MODEL 2
REMARK VINA RESULT: -7.054734230      2.454      3.986
REMARK  8 active torsions:
REMARK  status: ('A' for Active; 'I' for Inactive)
REMARK    1  A    between atoms: N1_1  and  C1_4 
REMARK    2  A    between atoms: C3_8  and  N3_9 
REMARK    3  A    between atoms: N3_9  and  C4_10 
REMARK    4  A    between atoms: C4_10  and  C5_11 
REMARK    5  A    between atoms: C5_11  and  C6_12 
REMARK    6  A    between atoms: C6_12  and  C7_13 
REMARK    7  A    between atoms: C7_13  and  O1_14 
REMARK    8  A    between atoms: N5_22  and  C10_23 
ROOT
HETATM    1  C1  UNL     1      23.480  -1.697   8.835  1.00  0.00     0.678 A 
HETATM    2  N2  UNL     1      22.887  -1.851   7.642  1.00  0.00    -0.185 N 
ATOM      3  H2  UNL     1      22.325  -1.141   7.173  1.00  0.00     0.184 HD
HETATM    4  C2  UNL     1      23.139  -3.072   7.157  1.00  0.00     0.140 A 
HETATM    5  C3  UNL     1      22.626  -3.503   5.910  1.00  0.00     0.204 C 
HETATM    6  C8  UNL     1      23.129  -4.656   5.287  1.00  0.00     0.292 C 
HETATM    7  O2  UNL     1      23.174  -4.584   4.045  1.00  0.00    -0.264 OA
HETATM    8  N4  UNL     1      23.561  -5.804   5.865  1.00  0.00    -0.272 N 
ATOM      9  H4  UNL     1      23.512  -6.649   5.295  1.00  0.00     0.174 HD
HETATM   10  C9  UNL     1      24.048  -5.948   7.112  1.00  0.00     0.337 C 
HETATM   11  O3  UNL     1      24.187  -7.108   7.537  1.00  0.00    -0.246 OA
HETATM   12  N5  UNL     1      24.419  -4.985   7.991  1.00  0.00    -0.223 N 
HETATM   13  C11 UNL     1      23.927  -3.731   8.076  1.00  0.00     0.164 A 
HETATM   14  N6  UNL     1      24.113  -2.872   9.078  1.00  0.00    -0.174 N 
ATOM     15  H6  UNL     1      24.660  -3.071   9.916  1.00  0.00     0.186 HD
ENDROOT
BRANCH   5  16
HETATM   16  N3  UNL     1      21.752  -2.835   5.442  1.00  0.00    -0.414 NA
BRANCH  16  17
HETATM   17  C4  UNL     1      20.984  -2.161   4.563  1.00  0.00     0.156 C 
BRANCH  17  18
HETATM   18  C5  UNL     1      20.491  -0.764   4.921  1.00  0.00     0.061 C 
BRANCH  18  19
HETATM   19  C6  UNL     1      19.119  -0.911   5.535  1.00  0.00     0.032 C 
BRANCH  19  20
HETATM   20  C7  UNL     1      19.032  -0.588   6.985  1.00  0.00     0.164 C 
BRANCH  20  21
HETATM   21  O1  UNL     1      20.118  -1.079   7.718  1.00  0.00    -0.401 OA
ATOM     22  H1  UNL     1      19.853  -1.571   8.486  1.00  0.00     0.209 HD
ENDBRANCH  20  21
ENDBRANCH  19  20
ENDBRANCH  18  19
ENDBRANCH  17  18
ENDBRANCH  16  17
ENDBRANCH   5  16
BRANCH   1  23
HETATM   23  N1  UNL     1      23.469  -0.653   9.621  1.00  0.00    -0.234 N 
ATOM     24  H12 UNL     1      23.873  -0.601  10.556  1.00  0.00     0.174 HD
ATOM     25  H11 UNL     1      23.066   0.269   9.447  1.00  0.00     0.174 HD
ENDBRANCH   1  23
BRANCH  12  26
HETATM   26  C10 UNL     1      25.427  -5.306   8.925  1.00  0.00     0.365 C 
HETATM   27  O4  UNL     1      26.611  -4.848   8.754  1.00  0.00    -0.283 OA
ENDBRANCH  12  26
TORSDOF 8
ENDMDL
MODEL 3
REMARK VINA RESULT: -7.050290559      1.754      3.325
REMARK  8 active torsions:
REMARK  status: ('A' for Active; 'I' for Inactive)
REMARK    1  A    between atoms: N1_1  and  C1_4 
REMARK    2  A    between atoms: C3_8  and  N3_9 
REMARK    3  A    between atoms: N3_9  and  C4_10 
REMARK    4  A    between atoms: C4_10  and  C5_11 
REMARK    5  A    between atoms: C5_11  and  C6_12 
REMARK    6  A    between atoms: C6_12  and  C7_13 
REMARK    7  A    between atoms: C7_13  and  O1_14 
REMARK    8  A    between atoms: N5_22  and  C10_23 
ROOT
HETATM    1  C1  UNL     1      21.354  -7.346   7.896  1.00  0.00     0.678 A 
HETATM    2  N2  UNL     1      21.127  -6.153   8.466  1.00  0.00    -0.185 N 
ATOM      3  H2  UNL     1      20.635  -6.012   9.348  1.00  0.00     0.184 HD
HETATM    4  C2  UNL     1      21.638  -5.177   7.709  1.00  0.00     0.140 A 
HETATM    5  C3  UNL     1      21.534  -3.813   8.074  1.00  0.00     0.204 C 
HETATM    6  C8  UNL     1      22.314  -2.837   7.435  1.00  0.00     0.292 C 
HETATM    7  O2  UNL     1      22.685  -1.913   8.182  1.00  0.00    -0.264 OA
HETATM    8  N4  UNL     1      22.701  -2.788   6.136  1.00  0.00    -0.272 N 
ATOM      9  H4  UNL     1      22.904  -1.863   5.755  1.00  0.00     0.174 HD
HETATM   10  C9  UNL     1      22.846  -3.829   5.295  1.00  0.00     0.337 C 
HETATM   11  O3  UNL     1      22.996  -3.568   4.089  1.00  0.00    -0.246 OA
HETATM   12  N5  UNL     1      22.854  -5.154   5.584  1.00  0.00    -0.223 N 
HETATM   13  C11 UNL     1      22.218  -5.766   6.605  1.00  0.00     0.164 A 
HETATM   14  N6  UNL     1      22.027  -7.076   6.749  1.00  0.00    -0.174 N 
ATOM     15  H6  UNL     1      22.346  -7.783   6.086  1.00  0.00     0.186 HD
ENDROOT
BRANCH   5  16
HETATM   16  N3  UNL     1      20.749  -3.560   8.939  1.00  0.00    -0.414 NA
BRANCH  16  17
HETATM   17  C4  UNL     1      19.725  -3.007   9.621  1.00  0.00     0.156 C 
BRANCH  17  18
HETATM   18  C5  UNL     1      19.054  -1.754   9.073  1.00  0.00     0.061 C 
BRANCH  18  19
HETATM   19  C6  UNL     1      17.618  -1.765   9.542  1.00  0.00     0.032 C 
BRANCH  19  20
HETATM   20  C7  UNL     1      17.362  -2.540  10.787  1.00  0.00     0.164 C 
BRANCH  20  21
HETATM   21  O1  UNL     1      16.021  -2.910  10.931  1.00  0.00    -0.401 OA
ATOM     22  H1  UNL     1      15.899  -3.852  10.961  1.00  0.00     0.209 HD
ENDBRANCH  20  21
ENDBRANCH  19  20
ENDBRANCH  18  19
ENDBRANCH  17  18
ENDBRANCH  16  17
ENDBRANCH   5  16
BRANCH   1  23
HETATM   23  N1  UNL     1      21.012  -8.532   8.326  1.00  0.00    -0.234 N 
ATOM     24  H12 UNL     1      20.169  -9.045   8.065  1.00  0.00     0.174 HD
ATOM     25  H11 UNL     1      21.509  -9.139   8.978  1.00  0.00     0.174 HD
ENDBRANCH   1  23
BRANCH  12  26
HETATM   26  C10 UNL     1      23.602  -6.003   4.739  1.00  0.00     0.365 C 
HETATM   27  O4  UNL     1      24.513  -6.747   5.245  1.00  0.00    -0.283 OA
ENDBRANCH  12  26
TORSDOF 8
ENDMDL
MODEL 4
REMARK VINA RESULT: -7.039137068      3.496      5.485
REMARK  8 active torsions:
REMARK  status: ('A' for Active; 'I' for Inactive)
REMARK    1  A    between atoms: N1_1  and  C1_4 
REMARK    2  A    between atoms: C3_8  and  N3_9 
REMARK    3  A    between atoms: N3_9  and  C4_10 
REMARK    4  A    between atoms: C4_10  and  C5_11 
REMARK    5  A    between atoms: C5_11  and  C6_12 
REMARK    6  A    between atoms: C6_12  and  C7_13 
REMARK    7  A    between atoms: C7_13  and  O1_14 
REMARK    8  A    between atoms: N5_22  and  C10_23 
ROOT
HETATM    1  C1  UNL     1      23.548  -2.127   8.587  1.00  0.00     0.678 A 
HETATM    2  N2  UNL     1      23.875  -3.376   8.952  1.00  0.00    -0.185 N 
ATOM      3  H2  UNL     1      24.163  -3.654   9.890  1.00  0.00     0.184 HD
HETATM    4  C2  UNL     1      23.767  -4.204   7.907  1.00  0.00     0.140 A 
HETATM    5  C3  UNL     1      24.061  -5.585   8.013  1.00  0.00     0.204 C 
HETATM    6  C8  UNL     1      23.669  -6.480   7.005  1.00  0.00     0.292 C 
HETATM    7  O2  UNL     1      23.332  -7.602   7.425  1.00  0.00    -0.264 OA
HETATM    8  N4  UNL     1      23.616  -6.269   5.666  1.00  0.00    -0.272 N 
ATOM      9  H4  UNL     1      23.703  -7.094   5.071  1.00  0.00     0.174 HD
HETATM   10  C9  UNL     1      23.462  -5.088   5.039  1.00  0.00     0.337 C 
HETATM   11  O3  UNL     1      23.657  -5.067   3.811  1.00  0.00    -0.246 OA
HETATM   12  N5  UNL     1      23.115  -3.889   5.569  1.00  0.00    -0.223 N 
HETATM   13  C11 UNL     1      23.354  -3.457   6.824  1.00  0.00     0.164 A 
HETATM   14  N6  UNL     1      23.232  -2.207   7.270  1.00  0.00    -0.174 N 
ATOM     15  H6  UNL     1      22.940  -1.415   6.697  1.00  0.00     0.186 HD
ENDROOT
BRANCH   5  16
HETATM   16  N3  UNL     1      24.655  -5.922   8.993  1.00  0.00    -0.414 NA
BRANCH  16  17
HETATM   17  C4  UNL     1      24.951  -6.471  10.188  1.00  0.00     0.156 C 
BRANCH  17  18
HETATM   18  C5  UNL     1      25.362  -5.566  11.343  1.00  0.00     0.061 C 
BRANCH  18  19
HETATM   19  C6  UNL     1      26.796  -5.153  11.108  1.00  0.00     0.032 C 
BRANCH  19  20
HETATM   20  C7  UNL     1      26.979  -3.924  10.289  1.00  0.00     0.164 C 
BRANCH  20  21
HETATM   21  O1  UNL     1      27.198  -4.199   8.936  1.00  0.00    -0.401 OA
ATOM     22  H1  UNL     1      26.409  -4.471   8.482  1.00  0.00     0.209 HD
ENDBRANCH  20  21
ENDBRANCH  19  20
ENDBRANCH  18  19
ENDBRANCH  17  18
ENDBRANCH  16  17
ENDBRANCH   5  16
BRANCH   1  23
HETATM   23  N1  UNL     1      23.528  -1.044   9.318  1.00  0.00    -0.234 N 
ATOM     24  H12 UNL     1      22.695  -0.541   9.624  1.00  0.00     0.174 HD
ATOM     25  H11 UNL     1      24.317  -0.523   9.703  1.00  0.00     0.174 HD
ENDBRANCH   1  23
BRANCH  12  26
HETATM   26  C10 UNL     1      22.429  -2.980   4.735  1.00  0.00     0.365 C 
HETATM   27  O4  UNL     1      21.295  -2.517   5.109  1.00  0.00    -0.283 OA
ENDBRANCH  12  26
TORSDOF 8
ENDMDL
MODEL 5
REMARK VINA RESULT: -7.001594925      1.926      6.129
REMARK  8 active torsions:
REMARK  status: ('A' for Active; 'I' for Inactive)
REMARK    1  A    between atoms: N1_1  and  C1_4 
REMARK    2  A    between atoms: C3_8  and  N3_9 
REMARK    3  A    between atoms: N3_9  and  C4_10 
REMARK    4  A    between atoms: C4_10  and  C5_11 
REMARK    5  A    between atoms: C5_11  and  C6_12 
REMARK    6  A    between atoms: C6_12  and  C7_13 
REMARK    7  A    between atoms: C7_13  and  O1_14 
REMARK    8  A    between atoms: N5_22  and  C10_23 
ROOT
HETATM    1  C1  UNL     1      18.861  -0.131   6.895  1.00  0.00     0.678 A 
HETATM    2  N2  UNL     1      19.886  -0.934   6.573  1.00  0.00    -0.185 N 
ATOM      3  H2  UNL     1      20.433  -0.868   5.715  1.00  0.00     0.184 HD
HETATM    4  C2  UNL     1      20.086  -1.835   7.541  1.00  0.00     0.140 A 
HETATM    5  C3  UNL     1      21.105  -2.814   7.454  1.00  0.00     0.204 C 
HETATM    6  C8  UNL     1      21.488  -3.553   8.585  1.00  0.00     0.292 C 
HETATM    7  O2  UNL     1      22.703  -3.819   8.631  1.00  0.00    -0.264 OA
HETATM    8  N4  UNL     1      20.710  -3.996   9.604  1.00  0.00    -0.272 N 
ATOM      9  H4  UNL     1      21.042  -4.819  10.107  1.00  0.00     0.174 HD
HETATM   10  C9  UNL     1      19.545  -3.465  10.022  1.00  0.00     0.337 C 
HETATM   11  O3  UNL     1      18.871  -4.135  10.823  1.00  0.00    -0.246 OA
HETATM   12  N5  UNL     1      18.990  -2.274   9.686  1.00  0.00    -0.223 N 
HETATM   13  C11 UNL     1      19.150  -1.603   8.527  1.00  0.00     0.164 A 
HETATM   14  N6  UNL     1      18.426  -0.567   8.104  1.00  0.00    -0.174 N 
ATOM     15  H6  UNL     1      17.649  -0.156   8.620  1.00  0.00     0.186 HD
ENDROOT
BRANCH   5  16
HETATM   16  N3  UNL     1      21.598  -2.965   6.376  1.00  0.00    -0.414 NA
BRANCH  16  17
HETATM   17  C4  UNL     1      22.485  -3.239   5.399  1.00  0.00     0.156 C 
BRANCH  17  18
HETATM   18  C5  UNL     1      22.389  -4.566   4.655  1.00  0.00     0.061 C 
BRANCH  18  19
HETATM   19  C6  UNL     1      23.780  -5.154   4.595  1.00  0.00     0.032 C 
BRANCH  19  20
HETATM   20  C7  UNL     1      23.889  -6.575   5.025  1.00  0.00     0.164 C 
BRANCH  20  21
HETATM   21  O1  UNL     1      24.619  -7.360   4.128  1.00  0.00    -0.401 OA
ATOM     22  H1  UNL     1      24.897  -8.188   4.502  1.00  0.00     0.209 HD
ENDBRANCH  20  21
ENDBRANCH  19  20
ENDBRANCH  18  19
ENDBRANCH  17  18
ENDBRANCH  16  17
ENDBRANCH   5  16
BRANCH   1  23
HETATM   23  N1  UNL     1      18.363   0.866   6.212  1.00  0.00    -0.234 N 
ATOM     24  H12 UNL     1      18.809   1.336   5.424  1.00  0.00     0.174 HD
ATOM     25  H11 UNL     1      17.468   1.340   6.340  1.00  0.00     0.174 HD
ENDBRANCH   1  23
BRANCH  12  26
HETATM   26  C10 UNL     1      18.154  -1.652  10.638  1.00  0.00     0.365 C 
HETATM   27  O4  UNL     1      16.933  -1.408  10.337  1.00  0.00    -0.283 OA
ENDBRANCH  12  26
TORSDOF 8
ENDMDL
