MODEL 1
REMARK VINA RESULT: -7.655121036      0.000      0.000
REMARK  7 active torsions:
REMARK  status: ('A' for Active; 'I' for Inactive)
REMARK    1  A    between atoms: N1_1  and  C1_4 
REMARK    2  A    between atoms: C4_12  and  N4_13 
REMARK    3  A    between atoms: N4_13  and  C5_15 
REMARK    4  A    between atoms: C5_15  and  C6_16 
REMARK    5  A    between atoms: C6_16  and  C7_17 
REMARK    6  A    between atoms: C7_17  and  O2_18 
REMARK    7  A    between atoms: O2_18  and  C8_19 
ROOT
HETATM    1  C1  UNL     1      22.648  -8.242   4.413  1.00  0.00     0.681 C 
HETATM    2  N2  UNL     1      22.314  -7.049   3.871  1.00  0.00    -0.154 N 
ATOM      3  H2  UNL     1      21.952  -7.102   2.919  1.00  0.00     0.187 HD
HETATM    4  C2  UNL     1      22.380  -5.795   4.382  1.00  0.00     0.289 C 
HETATM    5  O1  UNL     1      21.728  -4.898   3.789  1.00  0.00    -0.265 OA
HETATM    6  C3  UNL     1      23.087  -5.365   5.493  1.00  0.00     0.150 A 
HETATM    7  N3  UNL     1      23.313  -4.088   5.853  1.00  0.00    -0.184 N 
ATOM      8  H3  UNL     1      22.983  -3.271   5.339  1.00  0.00     0.184 HD
HETATM    9  C4  UNL     1      24.032  -4.042   6.980  1.00  0.00     0.679 A 
HETATM   10  N6  UNL     1      24.264  -5.312   7.341  1.00  0.00    -0.184 N 
ATOM     11  H6  UNL     1      24.790  -5.602   8.165  1.00  0.00     0.184 HD
HETATM   12  C9  UNL     1      23.698  -6.149   6.450  1.00  0.00     0.150 A 
HETATM   13  C10 UNL     1      23.730  -7.530   6.495  1.00  0.00     0.289 C 
HETATM   14  O4  UNL     1      24.325  -7.967   7.515  1.00  0.00    -0.265 OA
HETATM   15  N7  UNL     1      23.222  -8.414   5.615  1.00  0.00    -0.154 N 
ATOM     16  H7  UNL     1      23.284  -9.386   5.915  1.00  0.00     0.187 HD
ENDROOT
BRANCH   9  17
HETATM   17  N4  UNL     1      24.414  -2.984   7.586  1.00  0.00    -0.226 N 
ATOM     18  H4  UNL     1      25.333  -2.591   7.380  1.00  0.00     0.177 HD
BRANCH  17  19
HETATM   19  C5  UNL     1      23.563  -2.333   8.561  1.00  0.00     0.140 C 
BRANCH  19  20
HETATM   20  C6  UNL     1      24.265  -1.127   9.160  1.00  0.00     0.047 C 
BRANCH  20  21
HETATM   21  C7  UNL     1      25.617  -1.542   9.691  1.00  0.00     0.182 C 
BRANCH  21  22
HETATM   22  O2  UNL     1      25.685  -2.877  10.113  1.00  0.00    -0.306 OA
BRANCH  22  23
HETATM   23  C8  UNL     1      26.771  -3.699   9.998  1.00  0.00     0.372 C 
HETATM   24  N5  UNL     1      27.004  -4.530   8.863  1.00  0.00    -0.032 NA
HETATM   25  O3  UNL     1      27.621  -3.740  10.921  1.00  0.00    -0.242 OA
ENDBRANCH  22  23
ENDBRANCH  21  22
ENDBRANCH  20  21
ENDBRANCH  19  20
ENDBRANCH  17  19
ENDBRANCH   9  17
BRANCH   1  26
HETATM   26  N1  UNL     1      22.383  -9.289   3.693  1.00  0.00    -0.234 N 
ATOM     27  H12 UNL     1      21.478  -9.745   3.805  1.00  0.00     0.174 HD
ATOM     28  H11 UNL     1      23.117  -9.589   3.052  1.00  0.00     0.174 HD
ENDBRANCH   1  26
TORSDOF 7
ENDMDL
MODEL 2
REMARK VINA RESULT: -7.579648110      1.583      1.675
REMARK  7 active torsions:
REMARK  status: ('A' for Active; 'I' for Inactive)
REMARK    1  A    between atoms: N1_1  and  C1_4 
REMARK    2  A    between atoms: C4_12  and  N4_13 
REMARK    3  A    between atoms: N4_13  and  C5_15 
REMARK    4  A    between atoms: C5_15  and  C6_16 
REMARK    5  A    between atoms: C6_16  and  C7_17 
REMARK    6  A    between atoms: C7_17  and  O2_18 
REMARK    7  A    between atoms: O2_18  and  C8_19 
ROOT
HETATM    1  C1  UNL     1      22.574  -8.306   5.403  1.00  0.00     0.681 C 
HETATM    2  N2  UNL     1      23.616  -7.624   4.875  1.00  0.00    -0.154 N 
ATOM      3  H2  UNL     1      24.281  -8.199   4.358  1.00  0.00     0.187 HD
HETATM    4  C2  UNL     1      23.923  -6.304   4.918  1.00  0.00     0.289 C 
HETATM    5  O1  UNL     1      24.777  -5.886   4.095  1.00  0.00    -0.265 OA
HETATM    6  C3  UNL     1      23.409  -5.339   5.769  1.00  0.00     0.150 A 
HETATM    7  N3  UNL     1      23.882  -4.090   5.940  1.00  0.00    -0.184 N 
ATOM      8  H3  UNL     1      24.690  -3.702   5.453  1.00  0.00     0.184 HD
HETATM    9  C4  UNL     1      23.141  -3.431   6.838  1.00  0.00     0.679 A 
HETATM   10  N6  UNL     1      22.183  -4.277   7.241  1.00  0.00    -0.184 N 
ATOM     11  H6  UNL     1      21.459  -4.061   7.928  1.00  0.00     0.184 HD
HETATM   12  C9  UNL     1      22.318  -5.455   6.605  1.00  0.00     0.150 A 
HETATM   13  C10 UNL     1      21.512  -6.567   6.766  1.00  0.00     0.289 C 
HETATM   14  O4  UNL     1      20.562  -6.363   7.568  1.00  0.00    -0.265 OA
HETATM   15  N7  UNL     1      21.623  -7.780   6.192  1.00  0.00    -0.154 N 
ATOM     16  H7  UNL     1      20.848  -8.411   6.392  1.00  0.00     0.187 HD
ENDROOT
BRANCH   9  17
HETATM   17  N4  UNL     1      23.324  -2.227   7.226  1.00  0.00    -0.226 N 
ATOM     18  H4  UNL     1      23.485  -1.495   6.534  1.00  0.00     0.177 HD
BRANCH  17  19
HETATM   19  C5  UNL     1      23.305  -1.886   8.634  1.00  0.00     0.140 C 
BRANCH  19  20
HETATM   20  C6  UNL     1      24.470  -0.975   8.977  1.00  0.00     0.047 C 
BRANCH  20  21
HETATM   21  C7  UNL     1      25.522  -1.760   9.724  1.00  0.00     0.182 C 
BRANCH  21  22
HETATM   22  O2  UNL     1      25.638  -3.097   9.319  1.00  0.00    -0.306 OA
BRANCH  22  23
HETATM   23  C8  UNL     1      26.662  -3.945   9.639  1.00  0.00     0.372 C 
HETATM   24  N5  UNL     1      26.800  -5.249   9.079  1.00  0.00    -0.032 NA
HETATM   25  O3  UNL     1      27.537  -3.580  10.462  1.00  0.00    -0.242 OA
ENDBRANCH  22  23
ENDBRANCH  21  22
ENDBRANCH  20  21
ENDBRANCH  19  20
ENDBRANCH  17  19
ENDBRANCH   9  17
BRANCH   1  26
HETATM   26  N1  UNL     1      22.513  -9.569   5.110  1.00  0.00    -0.234 N 
ATOM     27  H12 UNL     1      22.800 -10.250   5.812  1.00  0.00     0.174 HD
ATOM     28  H11 UNL     1      22.175  -9.795   4.174  1.00  0.00     0.174 HD
ENDBRANCH   1  26
TORSDOF 7
ENDMDL
MODEL 3
REMARK VINA RESULT: -7.544964108      4.232      6.089
REMARK  7 active torsions:
REMARK  status: ('A' for Active; 'I' for Inactive)
REMARK    1  A    between atoms: N1_1  and  C1_4 
REMARK    2  A    between atoms: C4_12  and  N4_13 
REMARK    3  A    between atoms: N4_13  and  C5_15 
REMARK    4  A    between atoms: C5_15  and  C6_16 
REMARK    5  A    between atoms: C6_16  and  C7_17 
REMARK    6  A    between atoms: C7_17  and  O2_18 
REMARK    7  A    between atoms: O2_18  and  C8_19 
ROOT
HETATM    1  C1  UNL     1      17.564  -1.834   9.517  1.00  0.00     0.681 C 
HETATM    2  N2  UNL     1      18.199  -2.813  10.202  1.00  0.00    -0.154 N 
ATOM      3  H2  UNL     1      17.696  -3.152  11.022  1.00  0.00     0.187 HD
HETATM    4  C2  UNL     1      19.391  -3.418   9.979  1.00  0.00     0.289 C 
HETATM    5  O1  UNL     1      19.608  -4.500  10.584  1.00  0.00    -0.265 OA
HETATM    6  C3  UNL     1      20.422  -2.991   9.158  1.00  0.00     0.150 A 
HETATM    7  N3  UNL     1      21.672  -3.488   9.119  1.00  0.00    -0.184 N 
ATOM      8  H3  UNL     1      22.013  -4.253   9.702  1.00  0.00     0.184 HD
HETATM    9  C4  UNL     1      22.404  -2.837   8.208  1.00  0.00     0.679 A 
HETATM   10  N6  UNL     1      21.602  -1.913   7.660  1.00  0.00    -0.184 N 
ATOM     11  H6  UNL     1      21.877  -1.257   6.929  1.00  0.00     0.184 HD
HETATM   12  C9  UNL     1      20.380  -1.981   8.220  1.00  0.00     0.150 A 
HETATM   13  C10 UNL     1      19.294  -1.184   7.907  1.00  0.00     0.289 C 
HETATM   14  O4  UNL     1      19.542  -0.374   6.975  1.00  0.00    -0.265 OA
HETATM   15  N7  UNL     1      18.067  -1.177   8.460  1.00  0.00    -0.154 N 
ATOM     16  H7  UNL     1      17.400  -0.563   7.992  1.00  0.00     0.187 HD
ENDROOT
BRANCH   9  17
HETATM   17  N4  UNL     1      23.629  -3.064   7.925  1.00  0.00    -0.226 N 
ATOM     18  H4  UNL     1      24.359  -2.501   8.361  1.00  0.00     0.177 HD
BRANCH  17  19
HETATM   19  C5  UNL     1      23.998  -4.111   6.994  1.00  0.00     0.140 C 
BRANCH  19  20
HETATM   20  C6  UNL     1      24.245  -5.416   7.730  1.00  0.00     0.047 C 
BRANCH  20  21
HETATM   21  C7  UNL     1      25.027  -5.143   8.993  1.00  0.00     0.182 C 
BRANCH  21  22
HETATM   22  O2  UNL     1      26.153  -4.328   8.809  1.00  0.00    -0.306 OA
BRANCH  22  23
HETATM   23  C8  UNL     1      26.603  -3.376   9.681  1.00  0.00     0.372 C 
HETATM   24  N5  UNL     1      26.064  -2.058   9.742  1.00  0.00    -0.032 NA
HETATM   25  O3  UNL     1      27.534  -3.652  10.477  1.00  0.00    -0.242 OA
ENDBRANCH  22  23
ENDBRANCH  21  22
ENDBRANCH  20  21
ENDBRANCH  19  20
ENDBRANCH  17  19
ENDBRANCH   9  17
BRANCH   1  26
HETATM   26  N1  UNL     1      16.376  -1.524   9.937  1.00  0.00    -0.234 N 
ATOM     27  H12 UNL     1      16.204  -1.492  10.941  1.00  0.00     0.174 HD
ATOM     28  H11 UNL     1      15.682  -1.331   9.215  1.00  0.00     0.174 HD
ENDBRANCH   1  26
TORSDOF 7
ENDMDL
MODEL 4
REMARK VINA RESULT: -7.480978727      0.309      2.237
REMARK  7 active torsions:
REMARK  status: ('A' for Active; 'I' for Inactive)
REMARK    1  A    between atoms: N1_1  and  C1_4 
REMARK    2  A    between atoms: C4_12  and  N4_13 
REMARK    3  A    between atoms: N4_13  and  C5_15 
REMARK    4  A    between atoms: C5_15  and  C6_16 
REMARK    5  A    between atoms: C6_16  and  C7_17 
REMARK    6  A    between atoms: C7_17  and  O2_18 
REMARK    7  A    between atoms: O2_18  and  C8_19 
ROOT
HETATM    1  C1  UNL     1      22.087  -8.275   4.635  1.00  0.00     0.681 C 
HETATM    2  N2  UNL     1      22.850  -8.479   5.733  1.00  0.00    -0.154 N 
ATOM      3  H2  UNL     1      22.841  -9.436   6.085  1.00  0.00     0.187 HD
HETATM    4  C2  UNL     1      23.626  -7.623   6.444  1.00  0.00     0.289 C 
HETATM    5  O1  UNL     1      24.464  -8.129   7.233  1.00  0.00    -0.265 OA
HETATM    6  C3  UNL     1      23.613  -6.238   6.414  1.00  0.00     0.150 A 
HETATM    7  N3  UNL     1      24.232  -5.413   7.278  1.00  0.00    -0.184 N 
ATOM      8  H3  UNL     1      24.795  -5.719   8.072  1.00  0.00     0.184 HD
HETATM    9  C4  UNL     1      24.006  -4.137   6.948  1.00  0.00     0.679 A 
HETATM   10  N6  UNL     1      23.230  -4.155   5.854  1.00  0.00    -0.184 N 
ATOM     11  H6  UNL     1      22.887  -3.329   5.364  1.00  0.00     0.184 HD
HETATM   12  C9  UNL     1      22.971  -5.428   5.500  1.00  0.00     0.150 A 
HETATM   13  C10 UNL     1      22.204  -5.835   4.424  1.00  0.00     0.289 C 
HETATM   14  O4  UNL     1      21.781  -4.868   3.739  1.00  0.00    -0.265 OA
HETATM   15  N7  UNL     1      21.877  -7.086   4.048  1.00  0.00    -0.154 N 
ATOM     16  H7  UNL     1      21.381  -7.139   3.159  1.00  0.00     0.187 HD
ENDROOT
BRANCH   9  17
HETATM   17  N4  UNL     1      24.450  -3.110   7.564  1.00  0.00    -0.226 N 
ATOM     18  H4  UNL     1      25.387  -2.766   7.356  1.00  0.00     0.177 HD
BRANCH  17  19
HETATM   19  C5  UNL     1      23.642  -2.426   8.554  1.00  0.00     0.140 C 
BRANCH  19  20
HETATM   20  C6  UNL     1      24.353  -1.180   9.053  1.00  0.00     0.047 C 
BRANCH  20  21
HETATM   21  C7  UNL     1      25.630  -1.576   9.756  1.00  0.00     0.182 C 
BRANCH  21  22
HETATM   22  O2  UNL     1      25.694  -2.929  10.116  1.00  0.00    -0.306 OA
BRANCH  22  23
HETATM   23  C8  UNL     1      26.791  -3.737  10.002  1.00  0.00     0.372 C 
HETATM   24  N5  UNL     1      27.034  -4.567   8.868  1.00  0.00    -0.032 NA
HETATM   25  O3  UNL     1      27.641  -3.766  10.925  1.00  0.00    -0.242 OA
ENDBRANCH  22  23
ENDBRANCH  21  22
ENDBRANCH  20  21
ENDBRANCH  19  20
ENDBRANCH  17  19
ENDBRANCH   9  17
BRANCH   1  26
HETATM   26  N1  UNL     1      21.524  -9.329   4.130  1.00  0.00    -0.234 N 
ATOM     27  H12 UNL     1      21.806  -9.637   3.200  1.00  0.00     0.174 HD
ATOM     28  H11 UNL     1      20.821  -9.784   4.712  1.00  0.00     0.174 HD
ENDBRANCH   1  26
TORSDOF 7
ENDMDL
MODEL 5
REMARK VINA RESULT: -7.429516563      4.294      6.021
REMARK  7 active torsions:
REMARK  status: ('A' for Active; 'I' for Inactive)
REMARK    1  A    between atoms: N1_1  and  C1_4 
REMARK    2  A    between atoms: C4_12  and  N4_13 
REMARK    3  A    between atoms: N4_13  and  C5_15 
REMARK    4  A    between atoms: C5_15  and  C6_16 
REMARK    5  A    between atoms: C6_16  and  C7_17 
REMARK    6  A    between atoms: C7_17  and  O2_18 
REMARK    7  A    between atoms: O2_18  and  C8_19 
ROOT
HETATM    1  C1  UNL     1      17.323  -1.927   9.649  1.00  0.00     0.681 C 
HETATM    2  N2  UNL     1      18.035  -2.872  10.304  1.00  0.00    -0.154 N 
ATOM      3  H2  UNL     1      17.579  -3.248  11.135  1.00  0.00     0.187 HD
HETATM    4  C2  UNL     1      19.254  -3.404  10.039  1.00  0.00     0.289 C 
HETATM    5  O1  UNL     1      19.552  -4.477  10.624  1.00  0.00    -0.265 OA
HETATM    6  C3  UNL     1      20.232  -2.909   9.191  1.00  0.00     0.150 A 
HETATM    7  N3  UNL     1      21.507  -3.331   9.109  1.00  0.00    -0.184 N 
ATOM      8  H3  UNL     1      21.910  -4.080   9.673  1.00  0.00     0.184 HD
HETATM    9  C4  UNL     1      22.171  -2.630   8.184  1.00  0.00     0.679 A 
HETATM   10  N6  UNL     1      21.300  -1.750   7.670  1.00  0.00    -0.184 N 
ATOM     11  H6  UNL     1      21.513  -1.072   6.938  1.00  0.00     0.184 HD
HETATM   12  C9  UNL     1      20.101  -1.895   8.266  1.00  0.00     0.150 A 
HETATM   13  C10 UNL     1      18.961  -1.160   7.995  1.00  0.00     0.289 C 
HETATM   14  O4  UNL     1      19.132  -0.329   7.064  1.00  0.00    -0.265 OA
HETATM   15  N7  UNL     1      17.754  -1.231   8.584  1.00  0.00    -0.154 N 
ATOM     16  H7  UNL     1      17.038  -0.654   8.144  1.00  0.00     0.187 HD
ENDROOT
BRANCH   9  17
HETATM   17  N4  UNL     1      23.398  -2.781   7.861  1.00  0.00    -0.226 N 
ATOM     18  H4  UNL     1      23.746  -3.712   7.629  1.00  0.00     0.177 HD
BRANCH  17  19
HETATM   19  C5  UNL     1      24.304  -1.651   7.820  1.00  0.00     0.140 C 
BRANCH  19  20
HETATM   20  C6  UNL     1      24.527  -1.096   9.216  1.00  0.00     0.047 C 
BRANCH  20  21
HETATM   21  C7  UNL     1      25.609  -1.891   9.909  1.00  0.00     0.182 C 
BRANCH  21  22
HETATM   22  O2  UNL     1      25.898  -3.121   9.301  1.00  0.00    -0.306 OA
BRANCH  22  23
HETATM   23  C8  UNL     1      26.779  -4.057   9.767  1.00  0.00     0.372 C 
HETATM   24  N5  UNL     1      26.842  -5.388   9.263  1.00  0.00    -0.032 NA
HETATM   25  O3  UNL     1      27.582  -3.753  10.683  1.00  0.00    -0.242 OA
ENDBRANCH  22  23
ENDBRANCH  21  22
ENDBRANCH  20  21
ENDBRANCH  19  20
ENDBRANCH  17  19
ENDBRANCH   9  17
BRANCH   1  26
HETATM   26  N1  UNL     1      16.132  -1.691  10.109  1.00  0.00    -0.234 N 
ATOM     27  H12 UNL     1      15.399  -2.380   9.945  1.00  0.00     0.174 HD
ATOM     28  H11 UNL     1      16.012  -0.812  10.611  1.00  0.00     0.174 HD
ENDBRANCH   1  26
TORSDOF 7
ENDMDL
