MODEL 1
REMARK VINA RESULT: -7.548394961      0.000      0.000
REMARK  7 active torsions:
REMARK  status: ('A' for Active; 'I' for Inactive)
REMARK    1  A    between atoms: C3_5  and  N2_6 
REMARK    2  A    between atoms: N2_6  and  C4_8 
REMARK    3  A    between atoms: C4_8  and  C5_9 
REMARK    4  A    between atoms: C5_9  and  C6_10 
REMARK    5  A    between atoms: C5_9  and  C7_15 
REMARK    6  A    between atoms: C6_10  and  N3_11 
REMARK    7  A    between atoms: C7_15  and  N4_16 
ROOT
HETATM    1  C5  UNL     1      24.122  -2.522   8.388  1.00  0.00     0.049 C 
ENDROOT
BRANCH   1   2
HETATM    2  C4  UNL     1      23.000  -1.659   9.010  1.00  0.00     0.146 C 
BRANCH   2   3
HETATM    3  N2  UNL     1      21.772  -2.390   9.092  1.00  0.00    -0.225 N 
ATOM      4  H2  UNL     1      21.852  -3.355   9.412  1.00  0.00     0.177 HD
BRANCH   3   5
HETATM    5  C3  UNL     1      20.602  -1.996   8.820  1.00  0.00     0.683 A 
HETATM    6  N1  UNL     1      20.261  -1.148   7.837  1.00  0.00    -0.181 N 
HETATM    7  C2  UNL     1      19.002  -0.757   7.582  1.00  0.00     0.097 A 
ATOM      8  H1  UNL     1      21.006  -0.776   7.247  1.00  0.00     0.185 HD
HETATM    9  C1  UNL     1      18.666   0.193   6.471  1.00  0.00     0.089 C 
HETATM   10  N9  UNL     1      18.008  -1.225   8.338  1.00  0.00    -0.297 N 
HETATM   11  C11 UNL     1      18.311  -2.089   9.348  1.00  0.00     0.339 A 
ATOM     12  H9  UNL     1      17.043  -0.944   8.164  1.00  0.00     0.172 HD
HETATM   13  N8  UNL     1      19.585  -2.458   9.571  1.00  0.00    -0.141 N 
HETATM   14  O1  UNL     1      17.365  -2.542  10.076  1.00  0.00    -0.246 OA
ATOM     15  H8  UNL     1      19.787  -3.106  10.332  1.00  0.00     0.189 HD
ENDBRANCH   3   5
ENDBRANCH   2   3
ENDBRANCH   1   2
BRANCH   1  16
HETATM   16  C6  UNL     1      25.219  -2.474   9.421  1.00  0.00     0.237 C 
BRANCH  16  17
HETATM   17  N3  UNL     1      25.174  -3.503  10.401  1.00  0.00    -0.079 N 
ATOM     18  H33 UNL     1      24.466  -3.288  11.103  1.00  0.00     0.274 HD
ATOM     19  H32 UNL     1      24.778  -4.352  10.000  1.00  0.00     0.274 HD
ATOM     20  H31 UNL     1      26.064  -3.711  10.854  1.00  0.00     0.274 HD
ENDBRANCH  16  17
ENDBRANCH   1  16
BRANCH   1  21
HETATM   21  C7  UNL     1      23.564  -3.873   8.159  1.00  0.00     0.156 C 
BRANCH  21  22
HETATM   22  N4  UNL     1      23.392  -4.319   6.832  1.00  0.00    -0.287 N 
HETATM   23  C8  UNL     1      22.703  -3.486   5.904  1.00  0.00     0.128 A 
HETATM   24  C9  UNL     1      22.526  -3.826   4.636  1.00  0.00     0.125 A 
HETATM   25  N5  UNL     1      23.043  -5.073   4.169  1.00  0.00    -0.200 N 
HETATM   26  C10 UNL     1      23.745  -5.971   5.022  1.00  0.00     0.690 A 
ATOM     27  H5  UNL     1      22.904  -5.329   3.191  1.00  0.00     0.183 HD
HETATM   28  N6  UNL     1      24.226  -7.099   4.648  1.00  0.00    -0.233 N 
HETATM   29  N7  UNL     1      23.895  -5.528   6.385  1.00  0.00    -0.131 N 
ATOM     30  H62 UNL     1      24.119  -7.413   3.683  1.00  0.00     0.174 HD
ATOM     31  H61 UNL     1      24.729  -7.743   5.258  1.00  0.00     0.174 HD
ATOM     32  H7  UNL     1      24.391  -6.127   7.044  1.00  0.00     0.206 HD
ENDBRANCH  21  22
ENDBRANCH   1  21
TORSDOF 7
ENDMDL
MODEL 2
REMARK VINA RESULT: -7.510137987      1.706      2.377
REMARK  7 active torsions:
REMARK  status: ('A' for Active; 'I' for Inactive)
REMARK    1  A    between atoms: C3_5  and  N2_6 
REMARK    2  A    between atoms: N2_6  and  C4_8 
REMARK    3  A    between atoms: C4_8  and  C5_9 
REMARK    4  A    between atoms: C5_9  and  C6_10 
REMARK    5  A    between atoms: C5_9  and  C7_15 
REMARK    6  A    between atoms: C6_10  and  N3_11 
REMARK    7  A    between atoms: C7_15  and  N4_16 
ROOT
HETATM    1  C5  UNL     1      23.500  -3.073   7.625  1.00  0.00     0.049 C 
ENDROOT
BRANCH   1   2
HETATM    2  C4  UNL     1      22.277  -3.492   8.472  1.00  0.00     0.146 C 
BRANCH   2   3
HETATM    3  N2  UNL     1      21.614  -2.348   9.021  1.00  0.00    -0.225 N 
ATOM      4  H2  UNL     1      22.153  -1.804   9.695  1.00  0.00     0.177 HD
BRANCH   3   5
HETATM    5  C3  UNL     1      20.448  -1.924   8.780  1.00  0.00     0.683 A 
HETATM    6  N1  UNL     1      19.354  -2.150   9.525  1.00  0.00    -0.181 N 
HETATM    7  C2  UNL     1      18.133  -1.676   9.233  1.00  0.00     0.097 A 
ATOM      8  H1  UNL     1      19.458  -2.717  10.367  1.00  0.00     0.185 HD
HETATM    9  C1  UNL     1      16.937  -1.953  10.095  1.00  0.00     0.089 C 
HETATM   10  N9  UNL     1      17.966  -0.933   8.138  1.00  0.00    -0.297 N 
HETATM   11  C11 UNL     1      19.051  -0.681   7.353  1.00  0.00     0.339 A 
ATOM     12  H9  UNL     1      17.048  -0.562   7.893  1.00  0.00     0.172 HD
HETATM   13  N8  UNL     1      20.259  -1.172   7.680  1.00  0.00    -0.141 N 
HETATM   14  O1  UNL     1      18.900   0.030   6.302  1.00  0.00    -0.246 OA
ATOM     15  H8  UNL     1      21.057  -0.968   7.077  1.00  0.00     0.189 HD
ENDBRANCH   3   5
ENDBRANCH   2   3
ENDBRANCH   1   2
BRANCH   1  16
HETATM   16  C6  UNL     1      24.096  -1.928   8.404  1.00  0.00     0.237 C 
BRANCH  16  17
HETATM   17  N3  UNL     1      24.695  -0.906   7.617  1.00  0.00    -0.079 N 
ATOM     18  H33 UNL     1      25.488  -1.282   7.098  1.00  0.00     0.274 HD
ATOM     19  H32 UNL     1      24.079  -0.652   6.845  1.00  0.00     0.274 HD
ATOM     20  H31 UNL     1      24.976  -0.070   8.131  1.00  0.00     0.274 HD
ENDBRANCH  16  17
ENDBRANCH   1  16
BRANCH   1  21
HETATM   21  C7  UNL     1      24.385  -4.254   7.512  1.00  0.00     0.156 C 
BRANCH  21  22
HETATM   22  N4  UNL     1      24.018  -5.294   6.633  1.00  0.00    -0.287 N 
HETATM   23  C8  UNL     1      23.807  -4.995   5.256  1.00  0.00     0.128 A 
HETATM   24  C9  UNL     1      23.487  -5.923   4.367  1.00  0.00     0.125 A 
HETATM   25  N5  UNL     1      23.346  -7.279   4.792  1.00  0.00    -0.200 N 
HETATM   26  C10 UNL     1      23.538  -7.673   6.146  1.00  0.00     0.690 A 
ATOM     27  H5  UNL     1      23.101  -7.989   4.102  1.00  0.00     0.183 HD
HETATM   28  N6  UNL     1      23.423  -8.877   6.573  1.00  0.00    -0.233 N 
HETATM   29  N7  UNL     1      23.884  -6.606   7.050  1.00  0.00    -0.131 N 
ATOM     30  H62 UNL     1      23.178  -9.632   5.934  1.00  0.00     0.174 HD
ATOM     31  H61 UNL     1      23.560  -9.160   7.544  1.00  0.00     0.174 HD
ATOM     32  H7  UNL     1      24.036  -6.826   8.034  1.00  0.00     0.206 HD
ENDBRANCH  21  22
ENDBRANCH   1  21
TORSDOF 7
ENDMDL
MODEL 3
REMARK VINA RESULT: -7.496077125      1.377      1.806
REMARK  7 active torsions:
REMARK  status: ('A' for Active; 'I' for Inactive)
REMARK    1  A    between atoms: C3_5  and  N2_6 
REMARK    2  A    between atoms: N2_6  and  C4_8 
REMARK    3  A    between atoms: C4_8  and  C5_9 
REMARK    4  A    between atoms: C5_9  and  C6_10 
REMARK    5  A    between atoms: C5_9  and  C7_15 
REMARK    6  A    between atoms: C6_10  and  N3_11 
REMARK    7  A    between atoms: C7_15  and  N4_16 
ROOT
HETATM    1  C5  UNL     1      23.496  -3.386   7.642  1.00  0.00     0.049 C 
ENDROOT
BRANCH   1   2
HETATM    2  C4  UNL     1      22.237  -3.780   8.447  1.00  0.00     0.146 C 
BRANCH   2   3
HETATM    3  N2  UNL     1      21.616  -2.630   9.031  1.00  0.00    -0.225 N 
ATOM      4  H2  UNL     1      22.163  -2.145   9.742  1.00  0.00     0.177 HD
BRANCH   3   5
HETATM    5  C3  UNL     1      20.480  -2.137   8.780  1.00  0.00     0.683 A 
HETATM    6  N1  UNL     1      20.201  -1.239   7.822  1.00  0.00    -0.181 N 
HETATM    7  C2  UNL     1      18.976  -0.742   7.589  1.00  0.00     0.097 A 
ATOM      8  H1  UNL     1      20.969  -0.913   7.234  1.00  0.00     0.185 HD
HETATM    9  C1  UNL     1      18.709   0.261   6.505  1.00  0.00     0.089 C 
HETATM   10  N9  UNL     1      17.953  -1.148   8.342  1.00  0.00    -0.297 N 
HETATM   11  C11 UNL     1      18.193  -2.059   9.327  1.00  0.00     0.339 A 
ATOM     12  H9  UNL     1      17.012  -0.786   8.185  1.00  0.00     0.172 HD
HETATM   13  N8  UNL     1      19.435  -2.535   9.529  1.00  0.00    -0.141 N 
HETATM   14  O1  UNL     1      17.219  -2.454  10.053  1.00  0.00    -0.246 OA
ATOM     15  H8  UNL     1      19.589  -3.216  10.272  1.00  0.00     0.189 HD
ENDBRANCH   3   5
ENDBRANCH   2   3
ENDBRANCH   1   2
BRANCH   1  16
HETATM   16  C6  UNL     1      24.050  -2.209   8.405  1.00  0.00     0.237 C 
BRANCH  16  17
HETATM   17  N3  UNL     1      24.534  -1.140   7.602  1.00  0.00    -0.079 N 
ATOM     18  H33 UNL     1      24.162  -1.216   6.656  1.00  0.00     0.274 HD
ATOM     19  H32 UNL     1      24.105  -0.262   7.894  1.00  0.00     0.274 HD
ATOM     20  H31 UNL     1      25.549  -1.042   7.574  1.00  0.00     0.274 HD
ENDBRANCH  16  17
ENDBRANCH   1  16
BRANCH   1  21
HETATM   21  C7  UNL     1      24.390  -4.565   7.614  1.00  0.00     0.156 C 
BRANCH  21  22
HETATM   22  N4  UNL     1      24.046  -5.657   6.790  1.00  0.00    -0.287 N 
HETATM   23  C8  UNL     1      23.895  -5.448   5.389  1.00  0.00     0.128 A 
HETATM   24  C9  UNL     1      23.599  -6.428   4.550  1.00  0.00     0.125 A 
HETATM   25  N5  UNL     1      23.424  -7.751   5.057  1.00  0.00    -0.200 N 
HETATM   26  C10 UNL     1      23.555  -8.058   6.441  1.00  0.00     0.690 A 
ATOM     27  H5  UNL     1      23.197  -8.503   4.405  1.00  0.00     0.183 HD
HETATM   28  N6  UNL     1      23.408  -9.229   6.941  1.00  0.00    -0.233 N 
HETATM   29  N7  UNL     1      23.878  -6.937   7.287  1.00  0.00    -0.131 N 
ATOM     30  H62 UNL     1      23.179 -10.022   6.342  1.00  0.00     0.174 HD
ATOM     31  H61 UNL     1      23.502  -9.449   7.933  1.00  0.00     0.174 HD
ATOM     32  H7  UNL     1      23.987  -7.093   8.289  1.00  0.00     0.206 HD
ENDBRANCH  21  22
ENDBRANCH   1  21
TORSDOF 7
ENDMDL
MODEL 4
REMARK VINA RESULT: -7.482531154      1.086      1.758
REMARK  7 active torsions:
REMARK  status: ('A' for Active; 'I' for Inactive)
REMARK    1  A    between atoms: C3_5  and  N2_6 
REMARK    2  A    between atoms: N2_6  and  C4_8 
REMARK    3  A    between atoms: C4_8  and  C5_9 
REMARK    4  A    between atoms: C5_9  and  C6_10 
REMARK    5  A    between atoms: C5_9  and  C7_15 
REMARK    6  A    between atoms: C6_10  and  N3_11 
REMARK    7  A    between atoms: C7_15  and  N4_16 
ROOT
HETATM    1  C5  UNL     1      24.106  -2.500   8.380  1.00  0.00     0.049 C 
ENDROOT
BRANCH   1   2
HETATM    2  C4  UNL     1      22.974  -1.624   8.965  1.00  0.00     0.146 C 
BRANCH   2   3
HETATM    3  N2  UNL     1      21.755  -2.365   9.080  1.00  0.00    -0.225 N 
ATOM      4  H2  UNL     1      21.851  -3.331   9.392  1.00  0.00     0.177 HD
BRANCH   3   5
HETATM    5  C3  UNL     1      20.574  -1.979   8.845  1.00  0.00     0.683 A 
HETATM    6  N1  UNL     1      19.498  -2.216   9.611  1.00  0.00    -0.181 N 
HETATM    7  C2  UNL     1      18.259  -1.784   9.325  1.00  0.00     0.097 A 
ATOM      8  H1  UNL     1      19.629  -2.759  10.465  1.00  0.00     0.185 HD
HETATM    9  C1  UNL     1      17.083  -2.072  10.211  1.00  0.00     0.089 C 
HETATM   10  N9  UNL     1      18.057  -1.073   8.214  1.00  0.00    -0.297 N 
HETATM   11  C11 UNL     1      19.124  -0.811   7.408  1.00  0.00     0.339 A 
ATOM     12  H9  UNL     1      17.126  -0.733   7.974  1.00  0.00     0.172 HD
HETATM   13  N8  UNL     1      20.350  -1.260   7.730  1.00  0.00    -0.141 N 
HETATM   14  O1  UNL     1      18.939  -0.130   6.343  1.00  0.00    -0.246 OA
ATOM     15  H8  UNL     1      21.133  -1.050   7.111  1.00  0.00     0.189 HD
ENDBRANCH   3   5
ENDBRANCH   2   3
ENDBRANCH   1   2
BRANCH   1  16
HETATM   16  C6  UNL     1      25.180  -2.443   9.437  1.00  0.00     0.237 C 
BRANCH  16  17
HETATM   17  N3  UNL     1      25.170  -3.515  10.370  1.00  0.00    -0.079 N 
ATOM     18  H33 UNL     1      24.215  -3.836  10.525  1.00  0.00     0.274 HD
ATOM     19  H32 UNL     1      25.574  -4.351   9.948  1.00  0.00     0.274 HD
ATOM     20  H31 UNL     1      25.624  -3.319  11.262  1.00  0.00     0.274 HD
ENDBRANCH  16  17
ENDBRANCH   1  16
BRANCH   1  21
HETATM   21  C7  UNL     1      23.547  -3.852   8.157  1.00  0.00     0.156 C 
BRANCH  21  22
HETATM   22  N4  UNL     1      23.383  -4.308   6.832  1.00  0.00    -0.287 N 
HETATM   23  C8  UNL     1      22.696  -3.482   5.895  1.00  0.00     0.128 A 
HETATM   24  C9  UNL     1      22.526  -3.831   4.630  1.00  0.00     0.125 A 
HETATM   25  N5  UNL     1      23.047  -5.080   4.173  1.00  0.00    -0.200 N 
HETATM   26  C10 UNL     1      23.747  -5.971   5.035  1.00  0.00     0.690 A 
ATOM     27  H5  UNL     1      22.913  -5.342   3.196  1.00  0.00     0.183 HD
HETATM   28  N6  UNL     1      24.233  -7.100   4.670  1.00  0.00    -0.233 N 
HETATM   29  N7  UNL     1      23.890  -5.518   6.396  1.00  0.00    -0.131 N 
ATOM     30  H62 UNL     1      24.131  -7.420   3.708  1.00  0.00     0.174 HD
ATOM     31  H61 UNL     1      24.735  -7.738   5.288  1.00  0.00     0.174 HD
ATOM     32  H7  UNL     1      24.385  -6.112   7.061  1.00  0.00     0.206 HD
ENDBRANCH  21  22
ENDBRANCH   1  21
TORSDOF 7
ENDMDL
MODEL 5
REMARK VINA RESULT: -7.474487278      1.499      2.148
REMARK  7 active torsions:
REMARK  status: ('A' for Active; 'I' for Inactive)
REMARK    1  A    between atoms: C3_5  and  N2_6 
REMARK    2  A    between atoms: N2_6  and  C4_8 
REMARK    3  A    between atoms: C4_8  and  C5_9 
REMARK    4  A    between atoms: C5_9  and  C6_10 
REMARK    5  A    between atoms: C5_9  and  C7_15 
REMARK    6  A    between atoms: C6_10  and  N3_11 
REMARK    7  A    between atoms: C7_15  and  N4_16 
ROOT
HETATM    1  C5  UNL     1      23.573  -3.456   7.742  1.00  0.00     0.049 C 
ENDROOT
BRANCH   1   2
HETATM    2  C4  UNL     1      22.233  -3.804   8.430  1.00  0.00     0.146 C 
BRANCH   2   3
HETATM    3  N2  UNL     1      21.628  -2.639   9.001  1.00  0.00    -0.225 N 
ATOM      4  H2  UNL     1      22.188  -2.145   9.695  1.00  0.00     0.177 HD
BRANCH   3   5
HETATM    5  C3  UNL     1      20.491  -2.142   8.756  1.00  0.00     0.683 A 
HETATM    6  N1  UNL     1      20.211  -1.240   7.802  1.00  0.00    -0.181 N 
HETATM    7  C2  UNL     1      18.986  -0.740   7.576  1.00  0.00     0.097 A 
ATOM      8  H1  UNL     1      20.977  -0.914   7.213  1.00  0.00     0.185 HD
HETATM    9  C1  UNL     1      18.717   0.267   6.497  1.00  0.00     0.089 C 
HETATM   10  N9  UNL     1      17.965  -1.147   8.332  1.00  0.00    -0.297 N 
HETATM   11  C11 UNL     1      18.208  -2.062   9.313  1.00  0.00     0.339 A 
ATOM     12  H9  UNL     1      17.025  -0.782   8.180  1.00  0.00     0.172 HD
HETATM   13  N8  UNL     1      19.449  -2.540   9.508  1.00  0.00    -0.141 N 
HETATM   14  O1  UNL     1      17.236  -2.456  10.042  1.00  0.00    -0.246 OA
ATOM     15  H8  UNL     1      19.605  -3.225  10.248  1.00  0.00     0.189 HD
ENDBRANCH   3   5
ENDBRANCH   2   3
ENDBRANCH   1   2
BRANCH   1  16
HETATM   16  C6  UNL     1      23.997  -2.177   8.418  1.00  0.00     0.237 C 
BRANCH  16  17
HETATM   17  N3  UNL     1      24.513  -1.175   7.551  1.00  0.00    -0.079 N 
ATOM     18  H33 UNL     1      25.321  -0.723   7.979  1.00  0.00     0.274 HD
ATOM     19  H32 UNL     1      24.959  -1.608   6.742  1.00  0.00     0.274 HD
ATOM     20  H31 UNL     1      23.839  -0.473   7.247  1.00  0.00     0.274 HD
ENDBRANCH  16  17
ENDBRANCH   1  16
BRANCH   1  21
HETATM   21  C7  UNL     1      24.492  -4.593   7.966  1.00  0.00     0.156 C 
BRANCH  21  22
HETATM   22  N4  UNL     1      24.173  -5.846   7.402  1.00  0.00    -0.287 N 
HETATM   23  C8  UNL     1      23.951  -6.958   8.265  1.00  0.00     0.128 A 
HETATM   24  C9  UNL     1      23.622  -8.158   7.811  1.00  0.00     0.125 A 
HETATM   25  N5  UNL     1      23.480  -8.356   6.404  1.00  0.00    -0.200 N 
HETATM   26  C10 UNL     1      23.681  -7.306   5.464  1.00  0.00     0.690 A 
ATOM     27  H5  UNL     1      23.225  -9.283   6.060  1.00  0.00     0.183 HD
HETATM   28  N6  UNL     1      23.564  -7.437   4.195  1.00  0.00    -0.233 N 
HETATM   29  N7  UNL     1      24.035  -6.033   6.039  1.00  0.00    -0.131 N 
ATOM     30  H62 UNL     1      23.313  -8.338   3.788  1.00  0.00     0.174 HD
ATOM     31  H61 UNL     1      23.707  -6.684   3.521  1.00  0.00     0.174 HD
ATOM     32  H7  UNL     1      24.191  -5.239   5.417  1.00  0.00     0.206 HD
ENDBRANCH  21  22
ENDBRANCH   1  21
TORSDOF 7
ENDMDL
