MODEL 1
REMARK VINA RESULT: -7.792181929      0.000      0.000
REMARK  10 active torsions:
REMARK  status: ('A' for Active; 'I' for Inactive)
REMARK    1  A    between atoms: N1_1  and  C1_4 
REMARK    2  A    between atoms: C3_10  and  N4_11 
REMARK    3  A    between atoms: N4_11  and  C4_13 
REMARK    4  A    between atoms: C4_13  and  C5_14 
REMARK    5  A    between atoms: C5_14  and  O1_15 
REMARK    6  A    between atoms: N6_22  and  C8_23 
REMARK    7  A    between atoms: C8_23  and  O3_24 
REMARK    8  A    between atoms: O3_24  and  C9_25 
REMARK    9  A    between atoms: C9_25  and  C10_26 
REMARK   10  A    between atoms: C11_27  and  N7_28 
ROOT
HETATM    1  C1  UNL     1      23.522  -1.853   8.065  1.00  0.00     0.686 A 
HETATM    2  N2  UNL     1      22.454  -1.285   8.610  1.00  0.00    -0.173 N 
ATOM      3  H2  UNL     1      22.321  -0.283   8.743  1.00  0.00     0.186 HD
HETATM    4  C2  UNL     1      21.568  -2.244   8.962  1.00  0.00     0.170 A 
HETATM    5  N3  UNL     1      20.364  -2.201   9.548  1.00  0.00    -0.174 N 
ATOM      6  H3  UNL     1      19.954  -1.303   9.804  1.00  0.00     0.186 HD
HETATM    7  C3  UNL     1      19.700  -3.332   9.798  1.00  0.00     0.682 A 
HETATM    8  N5  UNL     1      20.201  -4.541   9.478  1.00  0.00    -0.154 N 
ATOM      9  H5  UNL     1      19.666  -5.385   9.684  1.00  0.00     0.187 HD
HETATM   10  C6  UNL     1      21.397  -4.636   8.892  1.00  0.00     0.291 A 
HETATM   11  O2  UNL     1      21.842  -5.752   8.611  1.00  0.00    -0.265 OA
HETATM   12  C7  UNL     1      22.114  -3.496   8.615  1.00  0.00     0.171 A 
HETATM   13  N6  UNL     1      23.305  -3.206   8.071  1.00  0.00    -0.129 N 
ENDROOT
BRANCH  13  14
HETATM   14  C8  UNL     1      24.261  -4.164   7.583  1.00  0.00     0.253 C 
BRANCH  14  15
HETATM   15  O3  UNL     1      24.443  -4.237   6.253  1.00  0.00    -0.334 OA
BRANCH  15  16
HETATM   16  C9  UNL     1      23.452  -4.703   5.444  1.00  0.00     0.271 C 
BRANCH  16  17
HETATM   17  C10 UNL     1      22.569  -3.581   5.045  1.00  0.00    -0.057 C 
HETATM   18  C11 UNL     1      21.854  -2.657   4.738  1.00  0.00     0.005 C 
BRANCH  18  19
HETATM   19  N7  UNL     1      21.035  -1.572   4.396  1.00  0.00    -0.359 N 
ATOM     20  H72 UNL     1      21.855  -1.812   4.951  1.00  0.00     0.166 HD
ATOM     21  H71 UNL     1      20.430  -0.793   4.137  1.00  0.00     0.166 HD
ENDBRANCH  18  19
ENDBRANCH  16  17
ENDBRANCH  15  16
ENDBRANCH  14  15
ENDBRANCH  13  14
BRANCH   1  22
HETATM   22  N1  UNL     1      24.593  -1.291   7.598  1.00  0.00    -0.234 N 
ATOM     23  H12 UNL     1      25.291  -0.821   8.176  1.00  0.00     0.174 HD
ATOM     24  H11 UNL     1      24.911  -1.222   6.632  1.00  0.00     0.174 HD
ENDBRANCH   1  22
BRANCH   7  25
HETATM   25  N4  UNL     1      18.556  -3.294  10.354  1.00  0.00    -0.224 N 
ATOM     26  H4  UNL     1      18.023  -4.158  10.456  1.00  0.00     0.177 HD
BRANCH  25  27
HETATM   27  C4  UNL     1      17.996  -2.053  10.843  1.00  0.00     0.164 C 
BRANCH  27  28
HETATM   28  C5  UNL     1      16.661  -1.871  10.117  1.00  0.00     0.184 C 
BRANCH  28  29
HETATM   29  O1  UNL     1      15.740  -2.758  10.677  1.00  0.00    -0.399 OA
ATOM     30  H1  UNL     1      15.634  -3.488  10.080  1.00  0.00     0.209 HD
ENDBRANCH  28  29
ENDBRANCH  27  28
ENDBRANCH  25  27
ENDBRANCH   7  25
TORSDOF 10
ENDMDL
MODEL 2
REMARK VINA RESULT: -7.549220045      1.830      3.315
REMARK  10 active torsions:
REMARK  status: ('A' for Active; 'I' for Inactive)
REMARK    1  A    between atoms: N1_1  and  C1_4 
REMARK    2  A    between atoms: C3_10  and  N4_11 
REMARK    3  A    between atoms: N4_11  and  C4_13 
REMARK    4  A    between atoms: C4_13  and  C5_14 
REMARK    5  A    between atoms: C5_14  and  O1_15 
REMARK    6  A    between atoms: N6_22  and  C8_23 
REMARK    7  A    between atoms: C8_23  and  O3_24 
REMARK    8  A    between atoms: O3_24  and  C9_25 
REMARK    9  A    between atoms: C9_25  and  C10_26 
REMARK   10  A    between atoms: C11_27  and  N7_28 
ROOT
HETATM    1  C1  UNL     1      23.595  -1.773   8.101  1.00  0.00     0.686 A 
HETATM    2  N2  UNL     1      22.501  -1.266   8.655  1.00  0.00    -0.173 N 
ATOM      3  H2  UNL     1      22.336  -0.276   8.835  1.00  0.00     0.186 HD
HETATM    4  C2  UNL     1      21.640  -2.266   8.942  1.00  0.00     0.170 A 
HETATM    5  N3  UNL     1      20.425  -2.289   9.508  1.00  0.00    -0.174 N 
ATOM      6  H3  UNL     1      19.983  -1.417   9.800  1.00  0.00     0.186 HD
HETATM    7  C3  UNL     1      19.791  -3.449   9.689  1.00  0.00     0.682 A 
HETATM    8  N5  UNL     1      20.334  -4.626   9.318  1.00  0.00    -0.154 N 
ATOM      9  H5  UNL     1      19.822  -5.494   9.472  1.00  0.00     0.187 HD
HETATM   10  C6  UNL     1      21.542  -4.656   8.751  1.00  0.00     0.291 A 
HETATM   11  O2  UNL     1      22.026  -5.743   8.422  1.00  0.00    -0.265 OA
HETATM   12  C7  UNL     1      22.229  -3.483   8.543  1.00  0.00     0.171 A 
HETATM   13  N6  UNL     1      23.419  -3.130   8.036  1.00  0.00    -0.129 N 
ENDROOT
BRANCH  13  14
HETATM   14  C8  UNL     1      24.412  -4.034   7.519  1.00  0.00     0.253 C 
BRANCH  14  15
HETATM   15  O3  UNL     1      25.540  -4.191   8.233  1.00  0.00    -0.334 OA
BRANCH  15  16
HETATM   16  C9  UNL     1      25.703  -5.275   9.041  1.00  0.00     0.271 C 
BRANCH  16  17
HETATM   17  C10 UNL     1      25.683  -4.844  10.459  1.00  0.00    -0.057 C 
HETATM   18  C11 UNL     1      25.652  -4.508  11.619  1.00  0.00     0.005 C 
BRANCH  18  19
HETATM   19  N7  UNL     1      25.607  -4.136  12.970  1.00  0.00    -0.359 N 
ATOM     20  H72 UNL     1      25.010  -4.445  12.204  1.00  0.00     0.166 HD
ATOM     21  H71 UNL     1      25.589  -3.864  13.952  1.00  0.00     0.166 HD
ENDBRANCH  18  19
ENDBRANCH  16  17
ENDBRANCH  15  16
ENDBRANCH  14  15
ENDBRANCH  13  14
BRANCH   1  22
HETATM   22  N1  UNL     1      24.656  -1.156   7.683  1.00  0.00    -0.234 N 
ATOM     23  H12 UNL     1      24.837  -0.163   7.831  1.00  0.00     0.174 HD
ATOM     24  H11 UNL     1      25.451  -1.530   7.165  1.00  0.00     0.174 HD
ENDBRANCH   1  22
BRANCH   7  25
HETATM   25  N4  UNL     1      18.638  -3.474  10.224  1.00  0.00    -0.224 N 
ATOM     26  H4  UNL     1      18.093  -4.335  10.197  1.00  0.00     0.177 HD
BRANCH  25  27
HETATM   27  C4  UNL     1      18.082  -2.305  10.872  1.00  0.00     0.164 C 
BRANCH  27  28
HETATM   28  C5  UNL     1      16.759  -2.011  10.162  1.00  0.00     0.184 C 
BRANCH  28  29
HETATM   29  O1  UNL     1      15.775  -2.823  10.728  1.00  0.00    -0.399 OA
ATOM     30  H1  UNL     1      15.602  -3.538  10.128  1.00  0.00     0.209 HD
ENDBRANCH  28  29
ENDBRANCH  27  28
ENDBRANCH  25  27
ENDBRANCH   7  25
TORSDOF 10
ENDMDL
MODEL 3
REMARK VINA RESULT: -7.359769564      1.558      1.933
REMARK  10 active torsions:
REMARK  status: ('A' for Active; 'I' for Inactive)
REMARK    1  A    between atoms: N1_1  and  C1_4 
REMARK    2  A    between atoms: C3_10  and  N4_11 
REMARK    3  A    between atoms: N4_11  and  C4_13 
REMARK    4  A    between atoms: C4_13  and  C5_14 
REMARK    5  A    between atoms: C5_14  and  O1_15 
REMARK    6  A    between atoms: N6_22  and  C8_23 
REMARK    7  A    between atoms: C8_23  and  O3_24 
REMARK    8  A    between atoms: O3_24  and  C9_25 
REMARK    9  A    between atoms: C9_25  and  C10_26 
REMARK   10  A    between atoms: C11_27  and  N7_28 
ROOT
HETATM    1  C1  UNL     1      23.536  -1.840   8.056  1.00  0.00     0.686 A 
HETATM    2  N2  UNL     1      22.452  -1.280   8.576  1.00  0.00    -0.173 N 
ATOM      3  H2  UNL     1      22.301  -0.277   8.688  1.00  0.00     0.186 HD
HETATM    4  C2  UNL     1      21.578  -2.246   8.935  1.00  0.00     0.170 A 
HETATM    5  N3  UNL     1      20.366  -2.212   9.505  1.00  0.00    -0.174 N 
ATOM      6  H3  UNL     1      19.937  -1.315   9.738  1.00  0.00     0.186 HD
HETATM    7  C3  UNL     1      19.716  -3.348   9.769  1.00  0.00     0.682 A 
HETATM    8  N5  UNL     1      20.242  -4.555   9.480  1.00  0.00    -0.154 N 
ATOM      9  H5  UNL     1      19.718  -5.403   9.695  1.00  0.00     0.187 HD
HETATM   10  C6  UNL     1      21.446  -4.641   8.911  1.00  0.00     0.291 A 
HETATM   11  O2  UNL     1      21.914  -5.755   8.658  1.00  0.00    -0.265 OA
HETATM   12  C7  UNL     1      22.149  -3.495   8.620  1.00  0.00     0.171 A 
HETATM   13  N6  UNL     1      23.341  -3.196   8.085  1.00  0.00    -0.129 N 
ENDROOT
BRANCH  13  14
HETATM   14  C8  UNL     1      24.320  -4.148   7.629  1.00  0.00     0.253 C 
BRANCH  14  15
HETATM   15  O3  UNL     1      24.458  -4.306   6.301  1.00  0.00    -0.334 OA
BRANCH  15  16
HETATM   16  C9  UNL     1      23.367  -4.511   5.512  1.00  0.00     0.271 C 
BRANCH  16  17
HETATM   17  C10 UNL     1      23.414  -5.880   4.945  1.00  0.00    -0.057 C 
HETATM   18  C11 UNL     1      23.438  -6.990   4.469  1.00  0.00     0.005 C 
BRANCH  18  19
HETATM   19  N7  UNL     1      23.456  -8.270   3.899  1.00  0.00    -0.359 N 
ATOM     20  H72 UNL     1      23.897  -7.354   3.825  1.00  0.00     0.166 HD
ATOM     21  H71 UNL     1      23.458  -9.206   3.494  1.00  0.00     0.166 HD
ENDBRANCH  18  19
ENDBRANCH  16  17
ENDBRANCH  15  16
ENDBRANCH  14  15
ENDBRANCH  13  14
BRANCH   1  22
HETATM   22  N1  UNL     1      24.604  -1.269   7.592  1.00  0.00    -0.234 N 
ATOM     23  H12 UNL     1      25.512  -1.289   8.057  1.00  0.00     0.174 HD
ATOM     24  H11 UNL     1      24.721  -0.732   6.733  1.00  0.00     0.174 HD
ENDBRANCH   1  22
BRANCH   7  25
HETATM   25  N4  UNL     1      18.566  -3.318  10.309  1.00  0.00    -0.224 N 
ATOM     26  H4  UNL     1      18.025  -4.181  10.379  1.00  0.00     0.177 HD
BRANCH  25  27
HETATM   27  C4  UNL     1      18.006  -2.088  10.826  1.00  0.00     0.164 C 
BRANCH  27  28
HETATM   28  C5  UNL     1      16.658  -1.904  10.126  1.00  0.00     0.184 C 
BRANCH  28  29
HETATM   29  O1  UNL     1      15.744  -2.782  10.708  1.00  0.00    -0.399 OA
ATOM     30  H1  UNL     1      15.308  -3.258  10.011  1.00  0.00     0.209 HD
ENDBRANCH  28  29
ENDBRANCH  27  28
ENDBRANCH  25  27
ENDBRANCH   7  25
TORSDOF 10
ENDMDL
MODEL 4
REMARK VINA RESULT: -6.964559308      1.353      2.584
REMARK  10 active torsions:
REMARK  status: ('A' for Active; 'I' for Inactive)
REMARK    1  A    between atoms: N1_1  and  C1_4 
REMARK    2  A    between atoms: C3_10  and  N4_11 
REMARK    3  A    between atoms: N4_11  and  C4_13 
REMARK    4  A    between atoms: C4_13  and  C5_14 
REMARK    5  A    between atoms: C5_14  and  O1_15 
REMARK    6  A    between atoms: N6_22  and  C8_23 
REMARK    7  A    between atoms: C8_23  and  O3_24 
REMARK    8  A    between atoms: O3_24  and  C9_25 
REMARK    9  A    between atoms: C9_25  and  C10_26 
REMARK   10  A    between atoms: C11_27  and  N7_28 
ROOT
HETATM    1  C1  UNL     1      22.227  -2.778   6.508  1.00  0.00     0.686 A 
HETATM    2  N2  UNL     1      21.310  -2.036   7.116  1.00  0.00    -0.173 N 
ATOM      3  H2  UNL     1      21.040  -1.091   6.845  1.00  0.00     0.186 HD
HETATM    4  C2  UNL     1      20.790  -2.730   8.152  1.00  0.00     0.170 A 
HETATM    5  N3  UNL     1      19.860  -2.435   9.072  1.00  0.00    -0.174 N 
ATOM      6  H3  UNL     1      19.393  -1.528   9.051  1.00  0.00     0.186 HD
HETATM    7  C3  UNL     1      19.543  -3.325  10.015  1.00  0.00     0.682 A 
HETATM    8  N5  UNL     1      20.133  -4.535  10.082  1.00  0.00    -0.154 N 
ATOM      9  H5  UNL     1      19.867  -5.191  10.817  1.00  0.00     0.187 HD
HETATM   10  C6  UNL     1      21.065  -4.877   9.189  1.00  0.00     0.291 A 
HETATM   11  O2  UNL     1      21.597  -5.987   9.270  1.00  0.00    -0.265 OA
HETATM   12  C7  UNL     1      21.420  -3.990   8.200  1.00  0.00     0.171 A 
HETATM   13  N6  UNL     1      22.286  -3.972   7.177  1.00  0.00    -0.129 N 
ENDROOT
BRANCH  13  14
HETATM   14  C8  UNL     1      23.194  -5.032   6.826  1.00  0.00     0.253 C 
BRANCH  14  15
HETATM   15  O3  UNL     1      24.495  -4.856   7.115  1.00  0.00    -0.334 OA
BRANCH  15  16
HETATM   16  C9  UNL     1      24.931  -4.906   8.404  1.00  0.00     0.271 C 
BRANCH  16  17
HETATM   17  C10 UNL     1      24.945  -3.539   8.977  1.00  0.00    -0.057 C 
HETATM   18  C11 UNL     1      24.972  -2.431   9.457  1.00  0.00     0.005 C 
BRANCH  18  19
HETATM   19  N7  UNL     1      25.025  -1.148  10.019  1.00  0.00    -0.359 N 
ATOM     20  H72 UNL     1      25.410  -2.086  10.126  1.00  0.00     0.166 HD
ATOM     21  H71 UNL     1      25.052  -0.210  10.417  1.00  0.00     0.166 HD
ENDBRANCH  18  19
ENDBRANCH  16  17
ENDBRANCH  15  16
ENDBRANCH  14  15
ENDBRANCH  13  14
BRANCH   1  22
HETATM   22  N1  UNL     1      22.958  -2.484   5.477  1.00  0.00    -0.234 N 
ATOM     23  H12 UNL     1      22.879  -2.945   4.570  1.00  0.00     0.174 HD
ATOM     24  H11 UNL     1      23.694  -1.784   5.394  1.00  0.00     0.174 HD
ENDBRANCH   1  22
BRANCH   7  25
HETATM   25  N4  UNL     1      18.661  -3.048  10.887  1.00  0.00    -0.224 N 
ATOM     26  H4  UNL     1      18.410  -3.751  11.584  1.00  0.00     0.177 HD
BRANCH  25  27
HETATM   27  C4  UNL     1      18.005  -1.758  10.914  1.00  0.00     0.164 C 
BRANCH  27  28
HETATM   28  C5  UNL     1      16.720  -1.915  10.097  1.00  0.00     0.184 C 
BRANCH  28  29
HETATM   29  O1  UNL     1      15.897  -2.828  10.757  1.00  0.00    -0.399 OA
ATOM     30  H1  UNL     1      15.537  -2.400  11.524  1.00  0.00     0.209 HD
ENDBRANCH  28  29
ENDBRANCH  27  28
ENDBRANCH  25  27
ENDBRANCH   7  25
TORSDOF 10
ENDMDL
MODEL 5
REMARK VINA RESULT: -6.944489165      4.062      6.212
REMARK  10 active torsions:
REMARK  status: ('A' for Active; 'I' for Inactive)
REMARK    1  A    between atoms: N1_1  and  C1_4 
REMARK    2  A    between atoms: C3_10  and  N4_11 
REMARK    3  A    between atoms: N4_11  and  C4_13 
REMARK    4  A    between atoms: C4_13  and  C5_14 
REMARK    5  A    between atoms: C5_14  and  O1_15 
REMARK    6  A    between atoms: N6_22  and  C8_23 
REMARK    7  A    between atoms: C8_23  and  O3_24 
REMARK    8  A    between atoms: O3_24  and  C9_25 
REMARK    9  A    between atoms: C9_25  and  C10_26 
REMARK   10  A    between atoms: C11_27  and  N7_28 
ROOT
HETATM    1  C1  UNL     1      23.577  -6.841   6.126  1.00  0.00     0.686 A 
HETATM    2  N2  UNL     1      24.184  -6.100   7.045  1.00  0.00    -0.173 N 
ATOM      3  H2  UNL     1      24.783  -6.456   7.789  1.00  0.00     0.186 HD
HETATM    4  C2  UNL     1      23.881  -4.799   6.840  1.00  0.00     0.170 A 
HETATM    5  N3  UNL     1      24.221  -3.673   7.482  1.00  0.00    -0.174 N 
ATOM      6  H3  UNL     1      24.837  -3.716   8.294  1.00  0.00     0.186 HD
HETATM    7  C3  UNL     1      23.754  -2.495   7.062  1.00  0.00     0.682 A 
HETATM    8  N5  UNL     1      22.937  -2.389   5.996  1.00  0.00    -0.154 N 
ATOM      9  H5  UNL     1      22.598  -1.473   5.702  1.00  0.00     0.187 HD
HETATM   10  C6  UNL     1      22.570  -3.482   5.322  1.00  0.00     0.291 A 
HETATM   11  O2  UNL     1      21.818  -3.366   4.351  1.00  0.00    -0.265 OA
HETATM   12  C7  UNL     1      23.030  -4.716   5.720  1.00  0.00     0.171 A 
HETATM   13  N6  UNL     1      22.875  -5.986   5.319  1.00  0.00    -0.129 N 
ENDROOT
BRANCH  13  14
HETATM   14  C8  UNL     1      22.060  -6.425   4.217  1.00  0.00     0.253 C 
BRANCH  14  15
HETATM   15  O3  UNL     1      21.404  -7.590   4.357  1.00  0.00    -0.334 OA
BRANCH  15  16
HETATM   16  C9  UNL     1      21.510  -8.562   3.409  1.00  0.00     0.271 C 
BRANCH  16  17
HETATM   17  C10 UNL     1      20.504  -9.619   3.668  1.00  0.00    -0.057 C 
HETATM   18  C11 UNL     1      19.700 -10.494   3.885  1.00  0.00     0.005 C 
BRANCH  18  19
HETATM   19  N7  UNL     1      18.781 -11.519   4.150  1.00  0.00    -0.359 N 
ATOM     20  H72 UNL     1      19.673 -11.141   4.467  1.00  0.00     0.166 HD
ATOM     21  H71 UNL     1      18.103 -12.259   4.331  1.00  0.00     0.166 HD
ENDBRANCH  18  19
ENDBRANCH  16  17
ENDBRANCH  15  16
ENDBRANCH  14  15
ENDBRANCH  13  14
BRANCH   1  22
HETATM   22  N1  UNL     1      23.606  -8.129   5.971  1.00  0.00    -0.234 N 
ATOM     23  H12 UNL     1      23.966  -8.781   6.668  1.00  0.00     0.174 HD
ATOM     24  H11 UNL     1      23.294  -8.684   5.175  1.00  0.00     0.174 HD
ENDBRANCH   1  22
BRANCH   7  25
HETATM   25  N4  UNL     1      24.075  -1.425   7.669  1.00  0.00    -0.224 N 
ATOM     26  H4  UNL     1      24.376  -0.615   7.127  1.00  0.00     0.177 HD
BRANCH  25  27
HETATM   27  C4  UNL     1      24.022  -1.331   9.112  1.00  0.00     0.164 C 
BRANCH  27  28
HETATM   28  C5  UNL     1      25.442  -0.987   9.570  1.00  0.00     0.184 C 
BRANCH  28  29
HETATM   29  O1  UNL     1      26.155  -2.179   9.700  1.00  0.00    -0.399 OA
ATOM     30  H1  UNL     1      27.081  -1.977   9.634  1.00  0.00     0.209 HD
ENDBRANCH  28  29
ENDBRANCH  27  28
ENDBRANCH  25  27
ENDBRANCH   7  25
TORSDOF 10
ENDMDL
