MODEL 1
REMARK VINA RESULT: -8.405889754      0.000      0.000
REMARK  4 active torsions:
REMARK  status: ('A' for Active; 'I' for Inactive)
REMARK    1  A    between atoms: C2_2  and  N1_3 
REMARK    2  A    between atoms: C2_2  and  C10_21 
REMARK       I    between atoms: N1_3  and  C3_5 
REMARK       I    between atoms: C3_5  and  N2_7 
REMARK    3  A    between atoms: C7_11  and  C8_12 
REMARK       I    between atoms: C8_12  and  N3_14 
REMARK    4  A    between atoms: N3_14  and  N4_16 
REMARK       I    between atoms: N4_16  and  C9_18 
ROOT
HETATM    1  N1  UNL     1      59.252  17.169  43.382  1.00  0.00    -0.330 N 
ATOM      2  H1  UNL     1      59.395  16.159  43.417  1.00  0.00     0.165 HD
HETATM    3  C3  UNL     1      57.976  17.669  43.064  1.00  0.00     0.319 C 
HETATM    4  O1  UNL     1      57.776  18.934  43.015  1.00  0.00    -0.247 OA
HETATM    5  N2  UNL     1      56.861  16.831  42.785  1.00  0.00    -0.321 N 
HETATM    6  C4  UNL     1      56.910  15.405  42.791  1.00  0.00     0.129 C 
HETATM    7  C5  UNL     1      55.485  14.942  42.813  1.00  0.00     0.022 C 
HETATM    8  C6  UNL     1      54.656  16.196  43.038  1.00  0.00     0.037 C 
HETATM    9  C7  UNL     1      55.548  17.267  42.462  1.00  0.00     0.182 C 
ENDROOT
BRANCH   9  10
HETATM   10  C8  UNL     1      55.327  17.484  41.011  1.00  0.00     0.259 C 
HETATM   11  O2  UNL     1      56.260  17.491  40.171  1.00  0.00    -0.269 OA
HETATM   12  N3  UNL     1      54.002  17.694  40.545  1.00  0.00    -0.265 N 
ATOM     13  H3  UNL     1      53.231  17.690  41.212  1.00  0.00     0.190 HD
BRANCH  12  14
HETATM   14  N4  UNL     1      53.735  17.906  39.189  1.00  0.00    -0.251 N 
HETATM   15  C9  UNL     1      53.514  16.841  38.288  1.00  0.00     0.347 C 
HETATM   16  N5  UNL     1      53.245  17.132  36.927  1.00  0.00    -0.038 NA
HETATM   17  O3  UNL     1      53.546  15.630  38.644  1.00  0.00    -0.249 OA
ATOM     18  H4  UNL     1      53.698  18.863  38.838  1.00  0.00     0.191 HD
ENDBRANCH  12  14
ENDBRANCH   9  10
BRANCH   1  19
HETATM   19  C2  UNL     1      60.361  18.044  43.659  1.00  0.00     0.171 C 
HETATM   20  C1  UNL     1      60.218  19.378  42.966  1.00  0.00     0.042 C 
BRANCH  19  21
HETATM   21  C10 UNL     1      60.539  18.268  45.106  1.00  0.00     0.253 C 
HETATM   22  N6  UNL     1      61.229  17.357  45.915  1.00  0.00    -0.060 NA
HETATM   23  O4  UNL     1      60.052  19.303  45.612  1.00  0.00    -0.275 OA
ENDBRANCH  19  21
ENDBRANCH   1  19
TORSDOF 4
ENDMDL
MODEL 2
REMARK VINA RESULT: -7.964088799      1.518      6.909
REMARK  4 active torsions:
REMARK  status: ('A' for Active; 'I' for Inactive)
REMARK    1  A    between atoms: C2_2  and  N1_3 
REMARK    2  A    between atoms: C2_2  and  C10_21 
REMARK       I    between atoms: N1_3  and  C3_5 
REMARK       I    between atoms: C3_5  and  N2_7 
REMARK    3  A    between atoms: C7_11  and  C8_12 
REMARK       I    between atoms: C8_12  and  N3_14 
REMARK    4  A    between atoms: N3_14  and  N4_16 
REMARK       I    between atoms: N4_16  and  C9_18 
ROOT
HETATM    1  N1  UNL     1      53.855  17.390  40.950  1.00  0.00    -0.330 N 
ATOM      2  H1  UNL     1      53.145  17.219  41.664  1.00  0.00     0.165 HD
HETATM    3  C3  UNL     1      55.186  17.007  41.203  1.00  0.00     0.319 C 
HETATM    4  O1  UNL     1      56.091  17.213  40.320  1.00  0.00    -0.247 OA
HETATM    5  N2  UNL     1      55.598  16.388  42.414  1.00  0.00    -0.321 N 
HETATM    6  C4  UNL     1      54.722  16.091  43.501  1.00  0.00     0.129 C 
HETATM    7  C5  UNL     1      55.469  15.139  44.386  1.00  0.00     0.022 C 
HETATM    8  C6  UNL     1      56.720  14.762  43.611  1.00  0.00     0.037 C 
HETATM    9  C7  UNL     1      56.920  15.973  42.733  1.00  0.00     0.182 C 
ENDROOT
BRANCH   9  10
HETATM   10  C8  UNL     1      57.741  17.026  43.380  1.00  0.00     0.259 C 
HETATM   11  O2  UNL     1      57.899  18.169  42.885  1.00  0.00    -0.269 OA
HETATM   12  N3  UNL     1      58.378  16.734  44.614  1.00  0.00    -0.265 N 
ATOM     13  H3  UNL     1      58.260  15.812  45.033  1.00  0.00     0.190 HD
BRANCH  12  14
HETATM   14  N4  UNL     1      59.166  17.687  45.268  1.00  0.00    -0.251 N 
HETATM   15  C9  UNL     1      60.540  17.852  44.985  1.00  0.00     0.347 C 
HETATM   16  N5  UNL     1      61.275  18.841  45.685  1.00  0.00    -0.038 NA
HETATM   17  O3  UNL     1      61.148  17.151  44.128  1.00  0.00    -0.249 OA
ATOM     18  H4  UNL     1      58.734  18.283  45.973  1.00  0.00     0.191 HD
ENDBRANCH  12  14
ENDBRANCH   9  10
BRANCH   1  19
HETATM   19  C2  UNL     1      53.469  18.016  39.713  1.00  0.00     0.171 C 
HETATM   20  C1  UNL     1      54.130  19.362  39.527  1.00  0.00     0.042 C 
BRANCH  19  21
HETATM   21  C10 UNL     1      53.770  17.165  38.547  1.00  0.00     0.253 C 
HETATM   22  N6  UNL     1      53.482  15.795  38.539  1.00  0.00    -0.060 NA
HETATM   23  O4  UNL     1      54.299  17.695  37.544  1.00  0.00    -0.275 OA
ENDBRANCH  19  21
ENDBRANCH   1  19
TORSDOF 4
ENDMDL
MODEL 3
REMARK VINA RESULT: -7.581635591      1.761      6.946
REMARK  4 active torsions:
REMARK  status: ('A' for Active; 'I' for Inactive)
REMARK    1  A    between atoms: C2_2  and  N1_3 
REMARK    2  A    between atoms: C2_2  and  C10_21 
REMARK       I    between atoms: N1_3  and  C3_5 
REMARK       I    between atoms: C3_5  and  N2_7 
REMARK    3  A    between atoms: C7_11  and  C8_12 
REMARK       I    between atoms: C8_12  and  N3_14 
REMARK    4  A    between atoms: N3_14  and  N4_16 
REMARK       I    between atoms: N4_16  and  C9_18 
ROOT
HETATM    1  N1  UNL     1      54.473  16.424  40.372  1.00  0.00    -0.330 N 
ATOM      2  H1  UNL     1      53.652  16.485  40.975  1.00  0.00     0.165 HD
HETATM    3  C3  UNL     1      55.719  16.099  40.942  1.00  0.00     0.319 C 
HETATM    4  O1  UNL     1      56.761  16.018  40.203  1.00  0.00    -0.247 OA
HETATM    5  N2  UNL     1      55.894  15.847  42.331  1.00  0.00    -0.321 N 
HETATM    6  C4  UNL     1      54.842  15.900  43.294  1.00  0.00     0.129 C 
HETATM    7  C5  UNL     1      55.373  15.228  44.524  1.00  0.00     0.022 C 
HETATM    8  C6  UNL     1      56.698  14.612  44.108  1.00  0.00     0.037 C 
HETATM    9  C7  UNL     1      57.117  15.511  42.971  1.00  0.00     0.182 C 
ENDROOT
BRANCH   9  10
HETATM   10  C8  UNL     1      57.902  16.686  43.423  1.00  0.00     0.259 C 
HETATM   11  O2  UNL     1      58.180  17.652  42.671  1.00  0.00    -0.269 OA
HETATM   12  N3  UNL     1      58.363  16.725  44.765  1.00  0.00    -0.265 N 
ATOM     13  H3  UNL     1      58.145  15.951  45.392  1.00  0.00     0.190 HD
BRANCH  12  14
HETATM   14  N4  UNL     1      59.109  17.806  45.245  1.00  0.00    -0.251 N 
HETATM   15  C9  UNL     1      60.489  17.948  44.978  1.00  0.00     0.347 C 
HETATM   16  N5  UNL     1      61.180  19.072  45.495  1.00  0.00    -0.038 NA
HETATM   17  O3  UNL     1      61.140  17.111  44.292  1.00  0.00    -0.249 OA
ATOM     18  H4  UNL     1      58.641  18.516  45.808  1.00  0.00     0.191 HD
ENDBRANCH  12  14
ENDBRANCH   9  10
BRANCH   1  19
HETATM   19  C2  UNL     1      54.329  16.674  38.962  1.00  0.00     0.171 C 
HETATM   20  C1  UNL     1      53.270  15.798  38.335  1.00  0.00     0.042 C 
BRANCH  19  21
HETATM   21  C10 UNL     1      54.015  18.087  38.681  1.00  0.00     0.253 C 
HETATM   22  N6  UNL     1      54.103  19.074  39.670  1.00  0.00    -0.060 NA
HETATM   23  O4  UNL     1      53.658  18.399  37.523  1.00  0.00    -0.275 OA
ENDBRANCH  19  21
ENDBRANCH   1  19
TORSDOF 4
ENDMDL
MODEL 4
REMARK VINA RESULT: -7.415898743      1.674      2.008
REMARK  4 active torsions:
REMARK  status: ('A' for Active; 'I' for Inactive)
REMARK    1  A    between atoms: C2_2  and  N1_3 
REMARK    2  A    between atoms: C2_2  and  C10_21 
REMARK       I    between atoms: N1_3  and  C3_5 
REMARK       I    between atoms: C3_5  and  N2_7 
REMARK    3  A    between atoms: C7_11  and  C8_12 
REMARK       I    between atoms: C8_12  and  N3_14 
REMARK    4  A    between atoms: N3_14  and  N4_16 
REMARK       I    between atoms: N4_16  and  C9_18 
ROOT
HETATM    1  N1  UNL     1      58.522  17.429  44.863  1.00  0.00    -0.330 N 
ATOM      2  H1  UNL     1      58.692  16.543  45.341  1.00  0.00     0.165 HD
HETATM    3  C3  UNL     1      57.323  17.601  44.146  1.00  0.00     0.319 C 
HETATM    4  O1  UNL     1      57.091  18.705  43.541  1.00  0.00    -0.247 OA
HETATM    5  N2  UNL     1      56.325  16.593  44.051  1.00  0.00    -0.321 N 
HETATM    6  C4  UNL     1      56.424  15.306  44.660  1.00  0.00     0.129 C 
HETATM    7  C5  UNL     1      55.045  14.722  44.621  1.00  0.00     0.022 C 
HETATM    8  C6  UNL     1      54.141  15.850  44.154  1.00  0.00     0.037 C 
HETATM    9  C7  UNL     1      55.093  16.700  43.350  1.00  0.00     0.182 C 
ENDROOT
BRANCH   9  10
HETATM   10  C8  UNL     1      55.174  16.289  41.927  1.00  0.00     0.259 C 
HETATM   11  O2  UNL     1      55.481  15.125  41.568  1.00  0.00    -0.269 OA
HETATM   12  N3  UNL     1      54.894  17.249  40.920  1.00  0.00    -0.265 N 
ATOM     13  H3  UNL     1      54.641  18.199  41.192  1.00  0.00     0.190 HD
BRANCH  12  14
HETATM   14  N4  UNL     1      54.957  16.919  39.563  1.00  0.00    -0.251 N 
HETATM   15  C9  UNL     1      53.879  17.149  38.680  1.00  0.00     0.347 C 
HETATM   16  N5  UNL     1      54.016  16.790  37.315  1.00  0.00    -0.038 NA
HETATM   17  O3  UNL     1      52.788  17.664  39.055  1.00  0.00    -0.249 OA
ATOM     18  H4  UNL     1      55.811  16.497  39.198  1.00  0.00     0.191 HD
ENDBRANCH  12  14
ENDBRANCH   9  10
BRANCH   1  19
HETATM   19  C2  UNL     1      59.514  18.469  44.940  1.00  0.00     0.171 C 
HETATM   20  C1  UNL     1      60.747  18.024  45.690  1.00  0.00     0.042 C 
BRANCH  19  21
HETATM   21  C10 UNL     1      59.909  18.955  43.605  1.00  0.00     0.253 C 
HETATM   22  N6  UNL     1      59.512  20.210  43.128  1.00  0.00    -0.060 NA
HETATM   23  O4  UNL     1      60.616  18.213  42.888  1.00  0.00    -0.275 OA
ENDBRANCH  19  21
ENDBRANCH   1  19
TORSDOF 4
ENDMDL
MODEL 5
REMARK VINA RESULT: -7.332370207      1.738      7.026
REMARK  4 active torsions:
REMARK  status: ('A' for Active; 'I' for Inactive)
REMARK    1  A    between atoms: C2_2  and  N1_3 
REMARK    2  A    between atoms: C2_2  and  C10_21 
REMARK       I    between atoms: N1_3  and  C3_5 
REMARK       I    between atoms: C3_5  and  N2_7 
REMARK    3  A    between atoms: C7_11  and  C8_12 
REMARK       I    between atoms: C8_12  and  N3_14 
REMARK    4  A    between atoms: N3_14  and  N4_16 
REMARK       I    between atoms: N4_16  and  C9_18 
ROOT
HETATM    1  N1  UNL     1      54.519  16.084  40.603  1.00  0.00    -0.330 N 
ATOM      2  H1  UNL     1      53.710  16.444  41.109  1.00  0.00     0.165 HD
HETATM    3  C3  UNL     1      55.684  15.752  41.319  1.00  0.00     0.319 C 
HETATM    4  O1  UNL     1      56.710  15.298  40.702  1.00  0.00    -0.247 OA
HETATM    5  N2  UNL     1      55.794  15.895  42.730  1.00  0.00    -0.321 N 
HETATM    6  C4  UNL     1      54.750  16.389  43.569  1.00  0.00     0.129 C 
HETATM    7  C5  UNL     1      55.143  16.035  44.971  1.00  0.00     0.022 C 
HETATM    8  C6  UNL     1      56.355  15.127  44.833  1.00  0.00     0.037 C 
HETATM    9  C7  UNL     1      56.934  15.577  43.516  1.00  0.00     0.182 C 
ENDROOT
BRANCH   9  10
HETATM   10  C8  UNL     1      57.896  16.698  43.660  1.00  0.00     0.259 C 
HETATM   11  O2  UNL     1      58.189  17.473  42.717  1.00  0.00    -0.269 OA
HETATM   12  N3  UNL     1      58.517  16.908  44.919  1.00  0.00    -0.265 N 
ATOM     13  H3  UNL     1      58.291  16.289  45.698  1.00  0.00     0.190 HD
BRANCH  12  14
HETATM   14  N4  UNL     1      59.433  17.946  45.113  1.00  0.00    -0.251 N 
HETATM   15  C9  UNL     1      60.755  17.888  44.617  1.00  0.00     0.347 C 
HETATM   16  N5  UNL     1      61.628  18.980  44.849  1.00  0.00    -0.038 NA
HETATM   17  O3  UNL     1      61.197  16.897  43.970  1.00  0.00    -0.249 OA
ATOM     18  H4  UNL     1      59.138  18.774  45.629  1.00  0.00     0.191 HD
ENDBRANCH  12  14
ENDBRANCH   9  10
BRANCH   1  19
HETATM   19  C2  UNL     1      54.439  15.928  39.173  1.00  0.00     0.171 C 
HETATM   20  C1  UNL     1      53.534  14.786  38.776  1.00  0.00     0.042 C 
BRANCH  19  21
HETATM   21  C10 UNL     1      53.980  17.162  38.509  1.00  0.00     0.253 C 
HETATM   22  N6  UNL     1      53.304  17.133  37.284  1.00  0.00    -0.060 NA
HETATM   23  O4  UNL     1      54.211  18.258  39.066  1.00  0.00    -0.275 OA
ENDBRANCH  19  21
ENDBRANCH   1  19
TORSDOF 4
ENDMDL
