MODEL 1
REMARK VINA RESULT: -7.445884441      0.000      0.000
REMARK  6 active torsions:
REMARK  status: ('A' for Active; 'I' for Inactive)
REMARK    1  A    between atoms: C1_2  and  C2_3 
REMARK    2  A    between atoms: C1_2  and  N2_12 
REMARK    3  A    between atoms: C2_3  and  S2_4 
REMARK    4  A    between atoms: S2_4  and  C3_5 
REMARK    5  A    between atoms: N2_12  and  C7_14 
REMARK    6  A    between atoms: C12_19  and  N3_20 
ROOT
HETATM    1  C7  UNL     1      20.486   7.713   3.445  1.00  0.00     0.059 A 
HETATM    2  C8  UNL     1      21.449   8.702   3.282  1.00  0.00     0.032 A 
HETATM    3  C9  UNL     1      22.491   8.891   4.195  1.00  0.00     0.002 A 
HETATM    4  C10 UNL     1      22.576   8.082   5.290  1.00  0.00     0.002 A 
HETATM    5  C11 UNL     1      21.627   7.103   5.454  1.00  0.00     0.031 A 
HETATM    6  C12 UNL     1      20.587   6.886   4.576  1.00  0.00     0.057 A 
ENDROOT
BRANCH   1   7
HETATM    7  N2  UNL     1      19.406   7.482   2.592  1.00  0.00    -0.348 N 
ATOM      8  H2  UNL     1      18.494   7.605   3.033  1.00  0.00     0.166 HD
BRANCH   7   9
HETATM    9  C1  UNL     1      19.343   7.115   1.250  1.00  0.00     0.087 C 
HETATM   10  S1  UNL     1      18.510   5.651   0.923  1.00  0.00    -0.065 SA
BRANCH   9  11
HETATM   11  C2  UNL     1      19.845   7.729   0.023  1.00  0.00     0.151 C 
BRANCH  11  12
HETATM   12  S2  UNL     1      21.655   7.526  -0.021  1.00  0.00    -0.099 SA
BRANCH  12  13
HETATM   13  C3  UNL     1      22.481   9.103  -0.148  1.00  0.00     0.103 C 
HETATM   14  N1  UNL     1      21.844  10.146   0.147  1.00  0.00    -0.379 N 
HETATM   15  C4  UNL     1      22.365  11.476   0.097  1.00  0.00     0.121 C 
ATOM     16  H1  UNL     1      20.875  10.034   0.448  1.00  0.00     0.160 HD
HETATM   17  C5  UNL     1      23.379  11.666  -0.997  1.00  0.00     0.030 C 
HETATM   18  C6  UNL     1      24.651  10.897  -0.788  1.00  0.00     0.083 C 
HETATM   19  S3  UNL     1      24.185   9.125  -0.692  1.00  0.00    -0.105 SA
ENDBRANCH  12  13
ENDBRANCH  11  12
ENDBRANCH   9  11
ENDBRANCH   7   9
ENDBRANCH   1   7
BRANCH   6  20
HETATM   20  N3  UNL     1      19.668   5.823   4.782  1.00  0.00    -0.376 N 
HETATM   21  C13 UNL     1      18.244   6.011   4.856  1.00  0.00     0.150 C 
HETATM   22  C14 UNL     1      17.511   4.904   5.517  1.00  0.00     0.252 C 
HETATM   23  N4  UNL     1      18.338   3.984   6.270  1.00  0.00    -0.072 N 
HETATM   24  C15 UNL     1      19.294   3.435   5.342  1.00  0.00     0.252 C 
ATOM     25  H42 UNL     1      18.770   4.409   7.090  1.00  0.00     0.277 HD
ATOM     26  H41 UNL     1      17.800   3.272   6.764  1.00  0.00     0.277 HD
HETATM   27  C16 UNL     1      20.230   4.504   4.911  1.00  0.00     0.150 C 
ENDBRANCH   6  20
TORSDOF 6
ENDMDL
MODEL 2
REMARK VINA RESULT: -7.313682619      0.893      1.163
REMARK  6 active torsions:
REMARK  status: ('A' for Active; 'I' for Inactive)
REMARK    1  A    between atoms: C1_2  and  C2_3 
REMARK    2  A    between atoms: C1_2  and  N2_12 
REMARK    3  A    between atoms: C2_3  and  S2_4 
REMARK    4  A    between atoms: S2_4  and  C3_5 
REMARK    5  A    between atoms: N2_12  and  C7_14 
REMARK    6  A    between atoms: C12_19  and  N3_20 
ROOT
HETATM    1  C7  UNL     1      20.414   7.712   3.533  1.00  0.00     0.059 A 
HETATM    2  C8  UNL     1      21.376   8.700   3.363  1.00  0.00     0.032 A 
HETATM    3  C9  UNL     1      22.461   8.846   4.234  1.00  0.00     0.002 A 
HETATM    4  C10 UNL     1      22.589   7.995   5.292  1.00  0.00     0.002 A 
HETATM    5  C11 UNL     1      21.640   7.017   5.463  1.00  0.00     0.031 A 
HETATM    6  C12 UNL     1      20.559   6.841   4.625  1.00  0.00     0.057 A 
ENDROOT
BRANCH   1   7
HETATM    7  N2  UNL     1      19.294   7.521   2.722  1.00  0.00    -0.348 N 
ATOM      8  H2  UNL     1      18.404   7.644   3.206  1.00  0.00     0.166 HD
BRANCH   7   9
HETATM    9  C1  UNL     1      19.166   7.194   1.374  1.00  0.00     0.087 C 
HETATM   10  S1  UNL     1      18.083   5.911   1.025  1.00  0.00    -0.065 SA
BRANCH   9  11
HETATM   11  C2  UNL     1      19.771   7.728   0.156  1.00  0.00     0.151 C 
BRANCH  11  12
HETATM   12  S2  UNL     1      21.531   7.258   0.137  1.00  0.00    -0.099 SA
BRANCH  12  13
HETATM   13  C3  UNL     1      22.576   8.670  -0.179  1.00  0.00     0.103 C 
HETATM   14  N1  UNL     1      23.687   8.488  -0.739  1.00  0.00    -0.379 N 
HETATM   15  C4  UNL     1      24.630   9.514  -1.059  1.00  0.00     0.121 C 
ATOM     16  H1  UNL     1      23.936   7.530  -0.986  1.00  0.00     0.160 HD
HETATM   17  C5  UNL     1      24.620  10.647  -0.070  1.00  0.00     0.030 C 
HETATM   18  C6  UNL     1      23.353  11.450  -0.077  1.00  0.00     0.083 C 
HETATM   19  S3  UNL     1      21.990  10.286   0.318  1.00  0.00    -0.105 SA
ENDBRANCH  12  13
ENDBRANCH  11  12
ENDBRANCH   9  11
ENDBRANCH   7   9
ENDBRANCH   1   7
BRANCH   6  20
HETATM   20  N3  UNL     1      19.641   5.778   4.833  1.00  0.00    -0.376 N 
HETATM   21  C13 UNL     1      18.218   5.968   4.928  1.00  0.00     0.150 C 
HETATM   22  C14 UNL     1      17.492   4.855   5.588  1.00  0.00     0.252 C 
HETATM   23  N4  UNL     1      18.327   3.927   6.321  1.00  0.00    -0.072 N 
HETATM   24  C15 UNL     1      19.270   3.386   5.376  1.00  0.00     0.252 C 
ATOM     25  H42 UNL     1      18.771   4.344   7.139  1.00  0.00     0.277 HD
ATOM     26  H41 UNL     1      17.794   3.211   6.814  1.00  0.00     0.277 HD
HETATM   27  C16 UNL     1      20.202   4.456   4.943  1.00  0.00     0.150 C 
ENDBRANCH   6  20
TORSDOF 6
ENDMDL
MODEL 3
REMARK VINA RESULT: -7.312698976      1.696      3.179
REMARK  6 active torsions:
REMARK  status: ('A' for Active; 'I' for Inactive)
REMARK    1  A    between atoms: C1_2  and  C2_3 
REMARK    2  A    between atoms: C1_2  and  N2_12 
REMARK    3  A    between atoms: C2_3  and  S2_4 
REMARK    4  A    between atoms: S2_4  and  C3_5 
REMARK    5  A    between atoms: N2_12  and  C7_14 
REMARK    6  A    between atoms: C12_19  and  N3_20 
ROOT
HETATM    1  C7  UNL     1      19.390   7.397   2.897  1.00  0.00     0.059 A 
HETATM    2  C8  UNL     1      19.221   8.126   1.726  1.00  0.00     0.032 A 
HETATM    3  C9  UNL     1      18.501   7.632   0.633  1.00  0.00     0.002 A 
HETATM    4  C10 UNL     1      17.941   6.391   0.707  1.00  0.00     0.002 A 
HETATM    5  C11 UNL     1      18.105   5.668   1.863  1.00  0.00     0.031 A 
HETATM    6  C12 UNL     1      18.806   6.121   2.960  1.00  0.00     0.057 A 
ENDROOT
BRANCH   1   7
HETATM    7  N2  UNL     1      20.114   7.813   4.015  1.00  0.00    -0.348 N 
ATOM      8  H2  UNL     1      19.581   7.800   4.884  1.00  0.00     0.166 HD
BRANCH   7   9
HETATM    9  C1  UNL     1      21.432   8.241   4.164  1.00  0.00     0.087 C 
HETATM   10  S1  UNL     1      22.364   7.374   5.313  1.00  0.00    -0.065 SA
BRANCH   9  11
HETATM   11  C2  UNL     1      22.215   9.297   3.528  1.00  0.00     0.151 C 
BRANCH  11  12
HETATM   12  S2  UNL     1      22.587   8.786   1.819  1.00  0.00    -0.099 SA
BRANCH  12  13
HETATM   13  C3  UNL     1      22.925  10.197   0.780  1.00  0.00     0.103 C 
HETATM   14  N1  UNL     1      21.970  10.938   0.435  1.00  0.00    -0.379 N 
HETATM   15  C4  UNL     1      22.081  12.100  -0.390  1.00  0.00     0.121 C 
ATOM     16  H1  UNL     1      21.040  10.690   0.773  1.00  0.00     0.160 HD
HETATM   17  C5  UNL     1      23.169  11.984  -1.421  1.00  0.00     0.030 C 
HETATM   18  C6  UNL     1      24.554  11.945  -0.843  1.00  0.00     0.083 C 
HETATM   19  S3  UNL     1      24.616  10.490   0.274  1.00  0.00    -0.105 SA
ENDBRANCH  12  13
ENDBRANCH  11  12
ENDBRANCH   9  11
ENDBRANCH   7   9
ENDBRANCH   1   7
BRANCH   6  20
HETATM   20  N3  UNL     1      18.895   5.340   4.142  1.00  0.00    -0.376 N 
HETATM   21  C13 UNL     1      20.049   4.552   4.485  1.00  0.00     0.150 C 
HETATM   22  C14 UNL     1      19.789   3.480   5.476  1.00  0.00     0.252 C 
HETATM   23  N4  UNL     1      18.392   3.171   5.693  1.00  0.00    -0.072 N 
HETATM   24  C15 UNL     1      17.763   4.390   6.135  1.00  0.00     0.252 C 
ATOM     25  H42 UNL     1      17.939   2.757   4.878  1.00  0.00     0.277 HD
ATOM     26  H41 UNL     1      18.247   2.388   6.332  1.00  0.00     0.277 HD
HETATM   27  C16 UNL     1      17.755   5.370   5.021  1.00  0.00     0.150 C 
ENDBRANCH   6  20
TORSDOF 6
ENDMDL
MODEL 4
REMARK VINA RESULT: -7.010864320      1.842      3.348
REMARK  6 active torsions:
REMARK  status: ('A' for Active; 'I' for Inactive)
REMARK    1  A    between atoms: C1_2  and  C2_3 
REMARK    2  A    between atoms: C1_2  and  N2_12 
REMARK    3  A    between atoms: C2_3  and  S2_4 
REMARK    4  A    between atoms: S2_4  and  C3_5 
REMARK    5  A    between atoms: N2_12  and  C7_14 
REMARK    6  A    between atoms: C12_19  and  N3_20 
ROOT
HETATM    1  C7  UNL     1      19.468   7.359   2.912  1.00  0.00     0.059 A 
HETATM    2  C8  UNL     1      19.349   8.072   1.725  1.00  0.00     0.032 A 
HETATM    3  C9  UNL     1      18.704   7.550   0.598  1.00  0.00     0.002 A 
HETATM    4  C10 UNL     1      18.168   6.297   0.656  1.00  0.00     0.002 A 
HETATM    5  C11 UNL     1      18.283   5.590   1.827  1.00  0.00     0.031 A 
HETATM    6  C12 UNL     1      18.910   6.071   2.957  1.00  0.00     0.057 A 
ENDROOT
BRANCH   1   7
HETATM    7  N2  UNL     1      20.117   7.803   4.064  1.00  0.00    -0.348 N 
ATOM      8  H2  UNL     1      19.562   7.715   4.915  1.00  0.00     0.166 HD
BRANCH   7   9
HETATM    9  C1  UNL     1      21.385   8.343   4.268  1.00  0.00     0.087 C 
HETATM   10  S1  UNL     1      22.515   7.306   5.036  1.00  0.00    -0.065 SA
BRANCH   9  11
HETATM   11  C2  UNL     1      21.980   9.640   3.953  1.00  0.00     0.151 C 
BRANCH  11  12
HETATM   12  S2  UNL     1      21.524  10.079   2.244  1.00  0.00    -0.099 SA
BRANCH  12  13
HETATM   13  C3  UNL     1      22.896   9.842   1.127  1.00  0.00     0.103 C 
HETATM   14  N1  UNL     1      23.934  10.533   1.287  1.00  0.00    -0.379 N 
HETATM   15  C4  UNL     1      25.110  10.459   0.478  1.00  0.00     0.121 C 
ATOM     16  H1  UNL     1      23.937  11.202   2.057  1.00  0.00     0.160 HD
HETATM   17  C5  UNL     1      24.813  10.122  -0.957  1.00  0.00     0.030 C 
HETATM   18  C6  UNL     1      24.273   8.737  -1.159  1.00  0.00     0.083 C 
HETATM   19  S3  UNL     1      22.727   8.627  -0.176  1.00  0.00    -0.105 SA
ENDBRANCH  12  13
ENDBRANCH  11  12
ENDBRANCH   9  11
ENDBRANCH   7   9
ENDBRANCH   1   7
BRANCH   6  20
HETATM   20  N3  UNL     1      18.950   5.304   4.151  1.00  0.00    -0.376 N 
HETATM   21  C13 UNL     1      20.077   4.498   4.537  1.00  0.00     0.150 C 
HETATM   22  C14 UNL     1      19.768   3.444   5.534  1.00  0.00     0.252 C 
HETATM   23  N4  UNL     1      18.359   3.166   5.715  1.00  0.00    -0.072 N 
HETATM   24  C15 UNL     1      17.743   4.403   6.123  1.00  0.00     0.252 C 
ATOM     25  H42 UNL     1      17.921   2.750   4.893  1.00  0.00     0.277 HD
ATOM     26  H41 UNL     1      18.180   2.395   6.359  1.00  0.00     0.277 HD
HETATM   27  C16 UNL     1      17.786   5.369   4.996  1.00  0.00     0.150 C 
ENDBRANCH   6  20
TORSDOF 6
ENDMDL
MODEL 5
REMARK VINA RESULT: -6.664373775      2.392      6.955
REMARK  6 active torsions:
REMARK  status: ('A' for Active; 'I' for Inactive)
REMARK    1  A    between atoms: C1_2  and  C2_3 
REMARK    2  A    between atoms: C1_2  and  N2_12 
REMARK    3  A    between atoms: C2_3  and  S2_4 
REMARK    4  A    between atoms: S2_4  and  C3_5 
REMARK    5  A    between atoms: N2_12  and  C7_14 
REMARK    6  A    between atoms: C12_19  and  N3_20 
ROOT
HETATM    1  C7  UNL     1      21.321   8.865   2.602  1.00  0.00     0.059 A 
HETATM    2  C8  UNL     1      22.450   9.654   2.787  1.00  0.00     0.032 A 
HETATM    3  C9  UNL     1      23.216  10.128   1.717  1.00  0.00     0.002 A 
HETATM    4  C10 UNL     1      22.853   9.809   0.442  1.00  0.00     0.002 A 
HETATM    5  C11 UNL     1      21.738   9.030   0.255  1.00  0.00     0.031 A 
HETATM    6  C12 UNL     1      20.957   8.546   1.283  1.00  0.00     0.057 A 
ENDROOT
BRANCH   1   7
HETATM    7  N2  UNL     1      20.523   8.336   3.618  1.00  0.00    -0.348 N 
ATOM      8  H2  UNL     1      19.809   8.977   3.963  1.00  0.00     0.166 HD
BRANCH   7   9
HETATM    9  C1  UNL     1      20.523   7.094   4.249  1.00  0.00     0.087 C 
HETATM   10  S1  UNL     1      21.914   6.128   3.978  1.00  0.00    -0.065 SA
BRANCH   9  11
HETATM   11  C2  UNL     1      19.565   6.418   5.120  1.00  0.00     0.151 C 
BRANCH  11  12
HETATM   12  S2  UNL     1      19.210   4.775   4.417  1.00  0.00    -0.099 SA
BRANCH  12  13
HETATM   13  C3  UNL     1      19.174   3.521   5.687  1.00  0.00     0.103 C 
HETATM   14  N1  UNL     1      18.310   3.604   6.596  1.00  0.00    -0.379 N 
HETATM   15  C4  UNL     1      18.155   2.682   7.677  1.00  0.00     0.121 C 
ATOM     16  H1  UNL     1      17.666   4.395   6.559  1.00  0.00     0.160 HD
HETATM   17  C5  UNL     1      19.457   2.078   8.124  1.00  0.00     0.030 C 
HETATM   18  C6  UNL     1      20.092   1.179   7.105  1.00  0.00     0.083 C 
HETATM   19  S3  UNL     1      20.376   2.198   5.606  1.00  0.00    -0.105 SA
ENDBRANCH  12  13
ENDBRANCH  11  12
ENDBRANCH   9  11
ENDBRANCH   7   9
ENDBRANCH   1   7
BRANCH   6  20
HETATM   20  N3  UNL     1      19.789   7.786   1.016  1.00  0.00    -0.376 N 
HETATM   21  C13 UNL     1      18.460   8.335   1.055  1.00  0.00     0.150 C 
HETATM   22  C14 UNL     1      17.382   7.328   1.206  1.00  0.00     0.252 C 
HETATM   23  N4  UNL     1      17.824   6.013   1.618  1.00  0.00    -0.072 N 
HETATM   24  C15 UNL     1      18.762   5.561   0.622  1.00  0.00     0.252 C 
ATOM     25  H42 UNL     1      18.202   5.993   2.565  1.00  0.00     0.277 HD
ATOM     26  H41 UNL     1      17.056   5.359   1.773  1.00  0.00     0.277 HD
HETATM   27  C16 UNL     1      19.987   6.398   0.685  1.00  0.00     0.150 C 
ENDBRANCH   6  20
TORSDOF 6
ENDMDL
