MODEL 1
REMARK VINA RESULT: -2.701845340      0.000      0.000
REMARK  6 active torsions:
REMARK  status: ('A' for Active; 'I' for Inactive)
REMARK    1  A    between atoms: O1_2  and  C2_3 
REMARK    2  A    between atoms: C2_3  and  C3_5 
REMARK    3  A    between atoms: C3_5  and  N1_6 
REMARK    4  A    between atoms: N1_6  and  C4_8 
REMARK    5  A    between atoms: C4_8  and  O3_9 
REMARK    6  A    between atoms: C4_8  and  C5_11 
ROOT
HETATM    1  C5  UNL     1      19.609   6.075   3.239  1.00  0.00     0.043 C 
HETATM    2  C6  UNL     1      19.988   5.096   2.147  1.00  0.00     0.009 C 
HETATM    3  C7  UNL     1      20.905   5.652   1.107  1.00  0.00     0.001 C 
HETATM    4  C8  UNL     1      22.280   5.968   1.649  1.00  0.00     0.000 C 
HETATM    5  C9  UNL     1      23.283   5.727   0.543  1.00  0.00     0.000 C 
HETATM    6  C10 UNL     1      23.214   6.769  -0.550  1.00  0.00     0.000 C 
HETATM    7  C11 UNL     1      24.095   7.967  -0.265  1.00  0.00     0.000 C 
HETATM    8  C12 UNL     1      23.355   9.203  -0.775  1.00  0.00     0.000 C 
HETATM    9  C13 UNL     1      23.271  10.273   0.281  1.00  0.00     0.000 C 
HETATM   10  C14 UNL     1      22.097  11.192   0.135  1.00  0.00     0.004 C 
HETATM   11  C15 UNL     1      21.034  10.928   1.201  1.00  0.00    -0.017 C 
HETATM   12  C16 UNL     1      21.681  10.885   2.558  1.00  0.00     0.010 C 
HETATM   13  C17 UNL     1      20.390   9.626   0.838  1.00  0.00     0.031 C 
HETATM   14  C18 UNL     1      19.201   9.263   1.697  1.00  0.00     0.179 C 
HETATM   15  O4  UNL     1      18.378   8.305   1.086  1.00  0.00    -0.321 OA
HETATM   16  C19 UNL     1      18.035   7.067   1.558  1.00  0.00     0.259 C 
HETATM   17  O5  UNL     1      17.516   6.210   0.833  1.00  0.00    -0.265 OA
HETATM   18  C20 UNL     1      18.297   6.744   3.003  1.00  0.00     0.120 C 
ENDROOT
BRANCH   1  19
HETATM   19  C4  UNL     1      19.574   5.245   4.503  1.00  0.00     0.222 C 
BRANCH  19  20
HETATM   20  N1  UNL     1      18.568   4.335   4.724  1.00  0.00    -0.368 N 
ATOM     21  H1  UNL     1      18.265   3.809   3.904  1.00  0.00     0.161 HD
BRANCH  20  22
HETATM   22  C3  UNL     1      17.909   4.031   5.898  1.00  0.00     0.168 C 
BRANCH  22  23
HETATM   23  C2  UNL     1      18.670   3.261   6.937  1.00  0.00     0.297 C 
HETATM   24  O2  UNL     1      18.285   3.126   8.114  1.00  0.00    -0.259 OA
BRANCH  23  25
HETATM   25  O1  UNL     1      19.864   2.670   6.559  1.00  0.00    -0.322 OA
HETATM   26  C1  UNL     1      19.955   1.316   6.159  1.00  0.00     0.213 C 
ENDBRANCH  23  25
ENDBRANCH  22  23
ENDBRANCH  20  22
ENDBRANCH  19  20
BRANCH  19  27
HETATM   27  O3  UNL     1      20.874   4.673   4.651  1.00  0.00    -0.377 OA
ATOM     28  H3  UNL     1      20.891   3.746   4.445  1.00  0.00     0.212 HD
ENDBRANCH  19  27
ENDBRANCH   1  19
TORSDOF 6
ENDMDL
MODEL 2
REMARK VINA RESULT: -1.282540765      3.985      7.904
REMARK  6 active torsions:
REMARK  status: ('A' for Active; 'I' for Inactive)
REMARK    1  A    between atoms: O1_2  and  C2_3 
REMARK    2  A    between atoms: C2_3  and  C3_5 
REMARK    3  A    between atoms: C3_5  and  N1_6 
REMARK    4  A    between atoms: N1_6  and  C4_8 
REMARK    5  A    between atoms: C4_8  and  O3_9 
REMARK    6  A    between atoms: C4_8  and  C5_11 
ROOT
HETATM    1  C5  UNL     1      22.863   9.138   1.391  1.00  0.00     0.043 C 
HETATM    2  C6  UNL     1      22.916   9.770   2.768  1.00  0.00     0.009 C 
HETATM    3  C7  UNL     1      22.018   9.132   3.777  1.00  0.00     0.001 C 
HETATM    4  C8  UNL     1      22.442   7.724   4.129  1.00  0.00     0.000 C 
HETATM    5  C9  UNL     1      22.089   7.482   5.580  1.00  0.00     0.000 C 
HETATM    6  C10 UNL     1      20.601   7.345   5.807  1.00  0.00     0.000 C 
HETATM    7  C11 UNL     1      20.117   5.920   5.644  1.00  0.00     0.000 C 
HETATM    8  C12 UNL     1      18.737   5.983   4.990  1.00  0.00     0.000 C 
HETATM    9  C13 UNL     1      18.657   5.091   3.780  1.00  0.00     0.000 C 
HETATM   10  C14 UNL     1      17.655   5.529   2.757  1.00  0.00     0.004 C 
HETATM   11  C15 UNL     1      18.331   6.109   1.514  1.00  0.00    -0.017 C 
HETATM   12  C16 UNL     1      19.400   5.166   1.036  1.00  0.00     0.010 C 
HETATM   13  C17 UNL     1      18.886   7.438   1.920  1.00  0.00     0.031 C 
HETATM   14  C18 UNL     1      19.468   8.240   0.778  1.00  0.00     0.179 C 
HETATM   15  O4  UNL     1      19.574   9.604   1.088  1.00  0.00    -0.321 OA
HETATM   16  C19 UNL     1      20.702  10.378   1.101  1.00  0.00     0.259 C 
HETATM   17  O5  UNL     1      20.724  11.496   1.630  1.00  0.00    -0.265 OA
HETATM   18  C20 UNL     1      21.951   9.850   0.450  1.00  0.00     0.120 C 
ENDROOT
BRANCH   1  19
HETATM   19  C4  UNL     1      24.291   9.178   0.895  1.00  0.00     0.222 C 
BRANCH  19  20
HETATM   20  N1  UNL     1      24.576   9.444  -0.423  1.00  0.00    -0.368 N 
ATOM     21  H1  UNL     1      24.337   8.703  -1.081  1.00  0.00     0.161 HD
BRANCH  20  22
HETATM   22  C3  UNL     1      25.140  10.573  -0.982  1.00  0.00     0.168 C 
BRANCH  22  23
HETATM   23  C2  UNL     1      24.444  11.881  -0.745  1.00  0.00     0.297 C 
HETATM   24  O2  UNL     1      24.772  12.684   0.150  1.00  0.00    -0.259 OA
BRANCH  23  25
HETATM   25  O1  UNL     1      23.383  12.208  -1.573  1.00  0.00    -0.322 OA
HETATM   26  C1  UNL     1      22.119  12.604  -1.077  1.00  0.00     0.213 C 
ENDBRANCH  23  25
ENDBRANCH  22  23
ENDBRANCH  20  22
ENDBRANCH  19  20
BRANCH  19  27
HETATM   27  O3  UNL     1      25.011  10.023   1.795  1.00  0.00    -0.377 OA
ATOM     28  H3  UNL     1      24.773   9.876   2.703  1.00  0.00     0.212 HD
ENDBRANCH  19  27
ENDBRANCH   1  19
TORSDOF 6
ENDMDL
MODEL 3
REMARK VINA RESULT: -0.760758899      1.302      1.552
REMARK  6 active torsions:
REMARK  status: ('A' for Active; 'I' for Inactive)
REMARK    1  A    between atoms: O1_2  and  C2_3 
REMARK    2  A    between atoms: C2_3  and  C3_5 
REMARK    3  A    between atoms: C3_5  and  N1_6 
REMARK    4  A    between atoms: N1_6  and  C4_8 
REMARK    5  A    between atoms: C4_8  and  O3_9 
REMARK    6  A    between atoms: C4_8  and  C5_11 
ROOT
HETATM    1  C5  UNL     1      20.692   7.173   3.318  1.00  0.00     0.043 C 
HETATM    2  C6  UNL     1      20.681   5.976   2.388  1.00  0.00     0.009 C 
HETATM    3  C7  UNL     1      21.523   6.135   1.164  1.00  0.00     0.001 C 
HETATM    4  C8  UNL     1      23.001   6.200   1.475  1.00  0.00     0.000 C 
HETATM    5  C9  UNL     1      23.746   5.564   0.323  1.00  0.00     0.000 C 
HETATM    6  C10 UNL     1      23.730   6.412  -0.928  1.00  0.00     0.000 C 
HETATM    7  C11 UNL     1      24.876   7.399  -0.974  1.00  0.00     0.000 C 
HETATM    8  C12 UNL     1      24.344   8.682  -1.614  1.00  0.00     0.000 C 
HETATM    9  C13 UNL     1      24.652   9.890  -0.771  1.00  0.00     0.000 C 
HETATM   10  C14 UNL     1      23.690  11.024  -0.947  1.00  0.00     0.004 C 
HETATM   11  C15 UNL     1      22.774  11.184   0.267  1.00  0.00    -0.017 C 
HETATM   12  C16 UNL     1      23.599  11.200   1.523  1.00  0.00     0.010 C 
HETATM   13  C17 UNL     1      21.822  10.029   0.228  1.00  0.00     0.031 C 
HETATM   14  C18 UNL     1      20.731  10.092   1.272  1.00  0.00     0.179 C 
HETATM   15  O4  UNL     1      19.640   9.272   0.948  1.00  0.00    -0.321 OA
HETATM   16  C19 UNL     1      19.121   8.236   1.677  1.00  0.00     0.259 C 
HETATM   17  O5  UNL     1      18.327   7.423   1.189  1.00  0.00    -0.265 OA
HETATM   18  C20 UNL     1      19.530   8.087   3.117  1.00  0.00     0.120 C 
ENDROOT
BRANCH   1  19
HETATM   19  C4  UNL     1      20.679   6.578   4.708  1.00  0.00     0.222 C 
BRANCH  19  20
HETATM   20  N1  UNL     1      19.502   6.423   5.401  1.00  0.00    -0.368 N 
ATOM     21  H1  UNL     1      19.401   7.008   6.230  1.00  0.00     0.161 HD
BRANCH  20  22
HETATM   22  C3  UNL     1      18.437   5.587   5.134  1.00  0.00     0.168 C 
BRANCH  22  23
HETATM   23  C2  UNL     1      18.383   4.281   5.871  1.00  0.00     0.297 C 
HETATM   24  O2  UNL     1      17.627   4.067   6.838  1.00  0.00    -0.259 OA
BRANCH  23  25
HETATM   25  O1  UNL     1      19.219   3.263   5.445  1.00  0.00    -0.322 OA
HETATM   26  C1  UNL     1      19.923   2.425   6.341  1.00  0.00     0.213 C 
ENDBRANCH  23  25
ENDBRANCH  22  23
ENDBRANCH  20  22
ENDBRANCH  19  20
BRANCH  19  27
HETATM   27  O3  UNL     1      21.441   5.373   4.643  1.00  0.00    -0.377 OA
ATOM     28  H3  UNL     1      20.915   4.620   4.399  1.00  0.00     0.212 HD
ENDBRANCH  19  27
ENDBRANCH   1  19
TORSDOF 6
ENDMDL
MODEL 4
REMARK VINA RESULT: -0.714250825      4.027      7.902
REMARK  6 active torsions:
REMARK  status: ('A' for Active; 'I' for Inactive)
REMARK    1  A    between atoms: O1_2  and  C2_3 
REMARK    2  A    between atoms: C2_3  and  C3_5 
REMARK    3  A    between atoms: C3_5  and  N1_6 
REMARK    4  A    between atoms: N1_6  and  C4_8 
REMARK    5  A    between atoms: C4_8  and  O3_9 
REMARK    6  A    between atoms: C4_8  and  C5_11 
ROOT
HETATM    1  C5  UNL     1      22.923   9.139   1.193  1.00  0.00     0.043 C 
HETATM    2  C6  UNL     1      23.024   9.798   2.554  1.00  0.00     0.009 C 
HETATM    3  C7  UNL     1      22.143   9.196   3.600  1.00  0.00     0.001 C 
HETATM    4  C8  UNL     1      22.553   7.789   3.970  1.00  0.00     0.000 C 
HETATM    5  C9  UNL     1      22.235   7.582   5.434  1.00  0.00     0.000 C 
HETATM    6  C10 UNL     1      20.752   7.476   5.705  1.00  0.00     0.000 C 
HETATM    7  C11 UNL     1      20.241   6.056   5.584  1.00  0.00     0.000 C 
HETATM    8  C12 UNL     1      18.845   6.128   4.965  1.00  0.00     0.000 C 
HETATM    9  C13 UNL     1      18.717   5.213   3.778  1.00  0.00     0.000 C 
HETATM   10  C14 UNL     1      17.696   5.648   2.772  1.00  0.00     0.004 C 
HETATM   11  C15 UNL     1      18.347   6.190   1.500  1.00  0.00    -0.017 C 
HETATM   12  C16 UNL     1      19.388   5.220   1.014  1.00  0.00     0.010 C 
HETATM   13  C17 UNL     1      18.935   7.518   1.863  1.00  0.00     0.031 C 
HETATM   14  C18 UNL     1      19.498   8.286   0.689  1.00  0.00     0.179 C 
HETATM   15  O4  UNL     1      19.635   9.654   0.969  1.00  0.00    -0.321 OA
HETATM   16  C19 UNL     1      20.776  10.409   0.935  1.00  0.00     0.259 C 
HETATM   17  O5  UNL     1      20.831  11.537   1.440  1.00  0.00    -0.265 OA
HETATM   18  C20 UNL     1      21.998   9.847   0.262  1.00  0.00     0.120 C 
ENDROOT
BRANCH   1  19
HETATM   19  C4  UNL     1      24.338   9.145   0.659  1.00  0.00     0.222 C 
BRANCH  19  20
HETATM   20  N1  UNL     1      24.597   9.449  -0.657  1.00  0.00    -0.368 N 
ATOM     21  H1  UNL     1      24.497   8.674  -1.313  1.00  0.00     0.161 HD
BRANCH  20  22
HETATM   22  C3  UNL     1      24.973  10.653  -1.215  1.00  0.00     0.168 C 
BRANCH  22  23
HETATM   23  C2  UNL     1      24.031  11.811  -1.058  1.00  0.00     0.297 C 
HETATM   24  O2  UNL     1      23.098  12.051  -1.847  1.00  0.00    -0.259 OA
BRANCH  23  25
HETATM   25  O1  UNL     1      24.216  12.651   0.026  1.00  0.00    -0.322 OA
HETATM   26  C1  UNL     1      25.419  12.691   0.770  1.00  0.00     0.213 C 
ENDBRANCH  23  25
ENDBRANCH  22  23
ENDBRANCH  20  22
ENDBRANCH  19  20
BRANCH  19  27
HETATM   27  O3  UNL     1      25.113   9.929   1.567  1.00  0.00    -0.377 OA
ATOM     28  H3  UNL     1      25.046   9.622   2.463  1.00  0.00     0.212 HD
ENDBRANCH  19  27
ENDBRANCH   1  19
TORSDOF 6
ENDMDL
MODEL 5
REMARK VINA RESULT: -0.146795543      3.629      7.896
REMARK  6 active torsions:
REMARK  status: ('A' for Active; 'I' for Inactive)
REMARK    1  A    between atoms: O1_2  and  C2_3 
REMARK    2  A    between atoms: C2_3  and  C3_5 
REMARK    3  A    between atoms: C3_5  and  N1_6 
REMARK    4  A    between atoms: N1_6  and  C4_8 
REMARK    5  A    between atoms: C4_8  and  O3_9 
REMARK    6  A    between atoms: C4_8  and  C5_11 
ROOT
HETATM    1  C5  UNL     1      21.798   9.473   0.799  1.00  0.00     0.043 C 
HETATM    2  C6  UNL     1      20.801   9.060  -0.264  1.00  0.00     0.009 C 
HETATM    3  C7  UNL     1      19.779   8.071   0.195  1.00  0.00     0.001 C 
HETATM    4  C8  UNL     1      18.830   8.645   1.222  1.00  0.00     0.000 C 
HETATM    5  C9  UNL     1      17.482   7.989   1.026  1.00  0.00     0.000 C 
HETATM    6  C10 UNL     1      17.462   6.543   1.467  1.00  0.00     0.000 C 
HETATM    7  C11 UNL     1      17.117   6.389   2.933  1.00  0.00     0.000 C 
HETATM    8  C12 UNL     1      17.955   5.232   3.475  1.00  0.00     0.000 C 
HETATM    9  C13 UNL     1      18.702   5.625   4.721  1.00  0.00     0.000 C 
HETATM   10  C14 UNL     1      19.962   4.850   4.954  1.00  0.00     0.004 C 
HETATM   11  C15 UNL     1      21.206   5.698   4.689  1.00  0.00    -0.017 C 
HETATM   12  C16 UNL     1      21.087   7.009   5.415  1.00  0.00     0.010 C 
HETATM   13  C17 UNL     1      21.283   5.877   3.204  1.00  0.00     0.031 C 
HETATM   14  C18 UNL     1      22.540   6.570   2.729  1.00  0.00     0.179 C 
HETATM   15  O4  UNL     1      22.788   6.340   1.368  1.00  0.00    -0.321 OA
HETATM   16  C19 UNL     1      22.904   7.265   0.366  1.00  0.00     0.259 C 
HETATM   17  O5  UNL     1      22.871   6.946  -0.829  1.00  0.00    -0.265 OA
HETATM   18  C20 UNL     1      23.079   8.713   0.734  1.00  0.00     0.120 C 
ENDROOT
BRANCH   1  19
HETATM   19  C4  UNL     1      22.031  10.948   0.554  1.00  0.00     0.222 C 
BRANCH  19  20
HETATM   20  N1  UNL     1      22.361  11.415  -0.696  1.00  0.00    -0.368 N 
ATOM     21  H1  UNL     1      21.572  11.623  -1.308  1.00  0.00     0.161 HD
BRANCH  20  22
HETATM   22  C3  UNL     1      23.608  11.642  -1.240  1.00  0.00     0.168 C 
BRANCH  22  23
HETATM   23  C2  UNL     1      24.748  11.854  -0.288  1.00  0.00     0.297 C 
HETATM   24  O2  UNL     1      24.924  12.909   0.351  1.00  0.00    -0.259 OA
BRANCH  23  25
HETATM   25  O1  UNL     1      25.648  10.816  -0.114  1.00  0.00    -0.322 OA
HETATM   26  C1  UNL     1      26.106  10.405   1.159  1.00  0.00     0.213 C 
ENDBRANCH  23  25
ENDBRANCH  22  23
ENDBRANCH  20  22
ENDBRANCH  19  20
BRANCH  19  27
HETATM   27  O3  UNL     1      20.915  11.636   1.121  1.00  0.00    -0.377 OA
ATOM     28  H3  UNL     1      20.979  12.579   1.025  1.00  0.00     0.212 HD
ENDBRANCH  19  27
ENDBRANCH   1  19
TORSDOF 6
ENDMDL
