MODEL 1
REMARK VINA RESULT: -7.713149202      0.000      0.000
REMARK  7 active torsions:
REMARK  status: ('A' for Active; 'I' for Inactive)
REMARK    1  A    between atoms: C2_2  and  N1_3 
REMARK    2  A    between atoms: N1_3  and  C3_5 
REMARK    3  A    between atoms: C3_5  and  O1_6 
REMARK    4  A    between atoms: C3_5  and  N2_8 
REMARK       I    between atoms: N2_8  and  C4_10 
REMARK    5  A    between atoms: C4_10  and  C5_12 
REMARK    6  A    between atoms: C5_12  and  S1_13 
REMARK    7  A    between atoms: S1_13  and  C6_14 
ROOT
HETATM    1  C6  UNL     1      19.891   7.476   2.023  1.00  0.00     0.148 A 
HETATM    2  N3  UNL     1      20.345   8.732   1.876  1.00  0.00    -0.334 N 
ATOM      3  H3  UNL     1      19.957   9.554   2.338  1.00  0.00     0.168 HD
HETATM    4  C7  UNL     1      21.419   8.741   1.005  1.00  0.00     0.076 A 
HETATM    5  C8  UNL     1      22.287   9.630   0.459  1.00  0.00    -0.015 A 
HETATM    6  C9  UNL     1      23.228   9.133  -0.394  1.00  0.00    -0.007 A 
HETATM    7  S2  UNL     1      22.888   7.464  -0.415  1.00  0.00    -0.074 SA
HETATM    8  C10 UNL     1      21.563   7.432   0.656  1.00  0.00     0.106 A 
HETATM    9  N4  UNL     1      20.624   6.652   1.281  1.00  0.00    -0.324 N 
HETATM   10  C11 UNL     1      20.504   5.237   1.128  1.00  0.00     0.159 C 
HETATM   11  C12 UNL     1      24.325   9.792  -1.170  1.00  0.00     0.047 C 
HETATM   12  C13 UNL     1      24.623  11.125  -0.569  1.00  0.00     0.005 C 
HETATM   13  C14 UNL     1      23.616  12.163  -1.010  1.00  0.00     0.001 C 
HETATM   14  C15 UNL     1      22.226  11.855  -0.511  1.00  0.00     0.005 C 
HETATM   15  C16 UNL     1      22.215  11.115   0.784  1.00  0.00     0.042 C 
ENDROOT
BRANCH   1  16
HETATM   16  S1  UNL     1      18.521   6.960   3.045  1.00  0.00    -0.084 SA
BRANCH  16  17
HETATM   17  C5  UNL     1      19.198   6.566   4.684  1.00  0.00     0.185 C 
BRANCH  17  18
HETATM   18  C4  UNL     1      18.431   5.430   5.318  1.00  0.00     0.234 C 
HETATM   19  N2  UNL     1      19.077   4.198   5.443  1.00  0.00    -0.292 N 
ATOM     20  H2  UNL     1      20.035   4.125   5.101  1.00  0.00     0.172 HD
HETATM   21  O2  UNL     1      17.272   5.675   5.685  1.00  0.00    -0.272 OA
BRANCH  19  22
HETATM   22  C3  UNL     1      18.492   3.054   6.010  1.00  0.00     0.219 C 
BRANCH  22  23
HETATM   23  N1  UNL     1      18.916   1.736   5.788  1.00  0.00    -0.357 N 
ATOM     24  H1  UNL     1      18.363   1.085   5.229  1.00  0.00     0.163 HD
BRANCH  23  25
HETATM   25  C2  UNL     1      20.194   1.335   6.398  1.00  0.00     0.118 C 
HETATM   26  C1  UNL     1      20.152   1.734   7.854  1.00  0.00     0.026 C 
ENDBRANCH  23  25
ENDBRANCH  22  23
BRANCH  22  27
HETATM   27  O1  UNL     1      17.482   3.281   6.797  1.00  0.00    -0.332 OA
ATOM     28  H1  UNL     1      17.492   4.040   7.367  1.00  0.00     0.220 HD
ENDBRANCH  22  27
ENDBRANCH  19  22
ENDBRANCH  17  18
ENDBRANCH  16  17
ENDBRANCH   1  16
TORSDOF 7
ENDMDL
MODEL 2
REMARK VINA RESULT: -7.360041601      1.573      2.195
REMARK  7 active torsions:
REMARK  status: ('A' for Active; 'I' for Inactive)
REMARK    1  A    between atoms: C2_2  and  N1_3 
REMARK    2  A    between atoms: N1_3  and  C3_5 
REMARK    3  A    between atoms: C3_5  and  O1_6 
REMARK    4  A    between atoms: C3_5  and  N2_8 
REMARK       I    between atoms: N2_8  and  C4_10 
REMARK    5  A    between atoms: C4_10  and  C5_12 
REMARK    6  A    between atoms: C5_12  and  S1_13 
REMARK    7  A    between atoms: S1_13  and  C6_14 
ROOT
HETATM    1  C6  UNL     1      20.604   7.213   1.202  1.00  0.00     0.148 A 
HETATM    2  N3  UNL     1      21.855   7.418   0.758  1.00  0.00    -0.334 N 
ATOM      3  H3  UNL     1      22.553   6.688   0.610  1.00  0.00     0.168 HD
HETATM    4  C7  UNL     1      22.054   8.767   0.530  1.00  0.00     0.076 A 
HETATM    5  C8  UNL     1      23.037   9.599   0.101  1.00  0.00    -0.015 A 
HETATM    6  C9  UNL     1      22.741  10.929   0.042  1.00  0.00    -0.007 A 
HETATM    7  S2  UNL     1      21.125  10.990   0.577  1.00  0.00    -0.074 SA
HETATM    8  C10 UNL     1      20.859   9.331   0.863  1.00  0.00     0.106 A 
HETATM    9  N4  UNL     1      19.965   8.376   1.277  1.00  0.00    -0.324 N 
HETATM   10  C11 UNL     1      18.625   8.638   1.695  1.00  0.00     0.159 C 
HETATM   11  C12 UNL     1      23.550  12.118  -0.371  1.00  0.00     0.047 C 
HETATM   12  C13 UNL     1      24.706  11.666  -1.200  1.00  0.00     0.005 C 
HETATM   13  C14 UNL     1      25.827  11.136  -0.335  1.00  0.00     0.001 C 
HETATM   14  C15 UNL     1      25.426   9.892   0.418  1.00  0.00     0.005 C 
HETATM   15  C16 UNL     1      24.408   9.072  -0.299  1.00  0.00     0.042 C 
ENDROOT
BRANCH   1  16
HETATM   16  S1  UNL     1      19.880   5.638   1.632  1.00  0.00    -0.084 SA
BRANCH  16  17
HETATM   17  C5  UNL     1      18.762   5.931   3.034  1.00  0.00     0.185 C 
BRANCH  17  18
HETATM   18  C4  UNL     1      19.116   5.031   4.194  1.00  0.00     0.234 C 
HETATM   19  N2  UNL     1      18.069   4.433   4.898  1.00  0.00    -0.292 N 
ATOM     20  H2  UNL     1      17.116   4.632   4.596  1.00  0.00     0.172 HD
HETATM   21  O2  UNL     1      20.323   4.887   4.440  1.00  0.00    -0.272 OA
BRANCH  19  22
HETATM   22  C3  UNL     1      18.244   3.575   5.996  1.00  0.00     0.219 C 
BRANCH  22  23
HETATM   23  N1  UNL     1      18.781   2.281   5.932  1.00  0.00    -0.357 N 
ATOM     24  H1  UNL     1      18.229   1.490   5.600  1.00  0.00     0.163 HD
BRANCH  23  25
HETATM   25  C2  UNL     1      20.178   2.117   6.368  1.00  0.00     0.118 C 
HETATM   26  C1  UNL     1      20.164   1.833   7.852  1.00  0.00     0.026 C 
ENDBRANCH  23  25
ENDBRANCH  22  23
BRANCH  22  27
HETATM   27  O1  UNL     1      17.867   4.059   7.142  1.00  0.00    -0.332 OA
ATOM     28  H1  UNL     1      18.091   4.953   7.371  1.00  0.00     0.220 HD
ENDBRANCH  22  27
ENDBRANCH  19  22
ENDBRANCH  17  18
ENDBRANCH  16  17
ENDBRANCH   1  16
TORSDOF 7
ENDMDL
MODEL 3
REMARK VINA RESULT: -7.225753328      3.476      9.355
REMARK  7 active torsions:
REMARK  status: ('A' for Active; 'I' for Inactive)
REMARK    1  A    between atoms: C2_2  and  N1_3 
REMARK    2  A    between atoms: N1_3  and  C3_5 
REMARK    3  A    between atoms: C3_5  and  O1_6 
REMARK    4  A    between atoms: C3_5  and  N2_8 
REMARK       I    between atoms: N2_8  and  C4_10 
REMARK    5  A    between atoms: C4_10  and  C5_12 
REMARK    6  A    between atoms: C5_12  and  S1_13 
REMARK    7  A    between atoms: S1_13  and  C6_14 
ROOT
HETATM    1  C6  UNL     1      20.492   6.460   2.393  1.00  0.00     0.148 A 
HETATM    2  N3  UNL     1      20.909   5.494   3.228  1.00  0.00    -0.334 N 
ATOM      3  H3  UNL     1      21.843   5.083   3.230  1.00  0.00     0.168 HD
HETATM    4  C7  UNL     1      19.882   5.139   4.083  1.00  0.00     0.076 A 
HETATM    5  C8  UNL     1      19.654   4.278   5.107  1.00  0.00    -0.015 A 
HETATM    6  C9  UNL     1      18.410   4.297   5.666  1.00  0.00    -0.007 A 
HETATM    7  S2  UNL     1      17.600   5.495   4.767  1.00  0.00    -0.074 SA
HETATM    8  C10 UNL     1      18.853   5.947   3.703  1.00  0.00     0.106 A 
HETATM    9  N4  UNL     1      19.225   6.760   2.664  1.00  0.00    -0.324 N 
HETATM   10  C11 UNL     1      18.378   7.722   2.034  1.00  0.00     0.159 C 
HETATM   11  C12 UNL     1      17.802   3.512   6.785  1.00  0.00     0.047 C 
HETATM   12  C13 UNL     1      18.888   2.922   7.622  1.00  0.00     0.005 C 
HETATM   13  C14 UNL     1      19.457   1.675   6.984  1.00  0.00     0.001 C 
HETATM   14  C15 UNL     1      20.143   1.969   5.672  1.00  0.00     0.005 C 
HETATM   15  C16 UNL     1      20.736   3.335   5.611  1.00  0.00     0.042 C 
ENDROOT
BRANCH   1  16
HETATM   16  S1  UNL     1      21.459   7.241   1.112  1.00  0.00    -0.084 SA
BRANCH  16  17
HETATM   17  C5  UNL     1      21.452   9.025   1.452  1.00  0.00     0.185 C 
BRANCH  17  18
HETATM   18  C4  UNL     1      22.170   9.779   0.357  1.00  0.00     0.234 C 
HETATM   19  N2  UNL     1      22.002  11.164   0.301  1.00  0.00    -0.292 N 
ATOM     20  H2  UNL     1      21.403  11.601   1.002  1.00  0.00     0.172 HD
HETATM   21  O2  UNL     1      22.863   9.106  -0.421  1.00  0.00    -0.272 OA
BRANCH  19  22
HETATM   22  C3  UNL     1      22.605  11.994  -0.658  1.00  0.00     0.219 C 
BRANCH  22  23
HETATM   23  N1  UNL     1      23.964  11.977  -1.001  1.00  0.00    -0.357 N 
ATOM     24  H1  UNL     1      24.270  11.852  -1.966  1.00  0.00     0.163 HD
BRANCH  23  25
HETATM   25  C2  UNL     1      24.931  12.147   0.096  1.00  0.00     0.118 C 
HETATM   26  C1  UNL     1      25.680  10.844   0.253  1.00  0.00     0.026 C 
ENDBRANCH  23  25
ENDBRANCH  22  23
BRANCH  22  27
HETATM   27  O1  UNL     1      21.803  12.829  -1.250  1.00  0.00    -0.332 OA
ATOM     28  H1  UNL     1      20.866  12.675  -1.229  1.00  0.00     0.220 HD
ENDBRANCH  22  27
ENDBRANCH  19  22
ENDBRANCH  17  18
ENDBRANCH  16  17
ENDBRANCH   1  16
TORSDOF 7
ENDMDL
MODEL 4
REMARK VINA RESULT: -7.142798676      2.374      3.415
REMARK  7 active torsions:
REMARK  status: ('A' for Active; 'I' for Inactive)
REMARK    1  A    between atoms: C2_2  and  N1_3 
REMARK    2  A    between atoms: N1_3  and  C3_5 
REMARK    3  A    between atoms: C3_5  and  O1_6 
REMARK    4  A    between atoms: C3_5  and  N2_8 
REMARK       I    between atoms: N2_8  and  C4_10 
REMARK    5  A    between atoms: C4_10  and  C5_12 
REMARK    6  A    between atoms: C5_12  and  S1_13 
REMARK    7  A    between atoms: S1_13  and  C6_14 
ROOT
HETATM    1  C6  UNL     1      19.551   7.656   1.406  1.00  0.00     0.148 A 
HETATM    2  N3  UNL     1      20.062   8.895   1.324  1.00  0.00    -0.334 N 
ATOM      3  H3  UNL     1      19.618   9.738   1.690  1.00  0.00     0.168 HD
HETATM    4  C7  UNL     1      21.280   8.857   0.672  1.00  0.00     0.076 A 
HETATM    5  C8  UNL     1      22.261   9.710   0.282  1.00  0.00    -0.015 A 
HETATM    6  C9  UNL     1      23.330   9.169  -0.369  1.00  0.00    -0.007 A 
HETATM    7  S2  UNL     1      22.952   7.510  -0.422  1.00  0.00    -0.074 SA
HETATM    8  C10 UNL     1      21.448   7.536   0.380  1.00  0.00     0.106 A 
HETATM    9  N4  UNL     1      20.386   6.795   0.831  1.00  0.00    -0.324 N 
HETATM   10  C11 UNL     1      20.254   5.381   0.684  1.00  0.00     0.159 C 
HETATM   11  C12 UNL     1      24.572   9.781  -0.935  1.00  0.00     0.047 C 
HETATM   12  C13 UNL     1      24.792  11.120  -0.314  1.00  0.00     0.005 C 
HETATM   13  C14 UNL     1      23.917  12.173  -0.955  1.00  0.00     0.001 C 
HETATM   14  C15 UNL     1      22.449  11.912  -0.722  1.00  0.00     0.005 C 
HETATM   15  C16 UNL     1      22.173  11.203   0.561  1.00  0.00     0.042 C 
ENDROOT
BRANCH   1  16
HETATM   16  S1  UNL     1      17.998   7.199   2.160  1.00  0.00    -0.084 SA
BRANCH  16  17
HETATM   17  C5  UNL     1      18.334   5.795   3.264  1.00  0.00     0.185 C 
BRANCH  17  18
HETATM   18  C4  UNL     1      19.182   6.230   4.436  1.00  0.00     0.234 C 
HETATM   19  N2  UNL     1      20.361   6.929   4.164  1.00  0.00    -0.292 N 
ATOM     20  H2  UNL     1      20.593   7.111   3.188  1.00  0.00     0.172 HD
HETATM   21  O2  UNL     1      18.766   5.933   5.566  1.00  0.00    -0.272 OA
BRANCH  19  22
HETATM   22  C3  UNL     1      21.247   7.395   5.149  1.00  0.00     0.219 C 
BRANCH  22  23
HETATM   23  N1  UNL     1      22.594   7.717   4.935  1.00  0.00    -0.357 N 
ATOM     24  H1  UNL     1      23.341   7.265   5.464  1.00  0.00     0.163 HD
BRANCH  23  25
HETATM   25  C2  UNL     1      22.883   8.736   3.913  1.00  0.00     0.118 C 
HETATM   26  C1  UNL     1      21.987   9.922   4.184  1.00  0.00     0.026 C 
ENDBRANCH  23  25
ENDBRANCH  22  23
BRANCH  22  27
HETATM   27  O1  UNL     1      20.735   7.525   6.337  1.00  0.00    -0.332 OA
ATOM     28  H1  UNL     1      19.799   7.421   6.459  1.00  0.00     0.220 HD
ENDBRANCH  22  27
ENDBRANCH  19  22
ENDBRANCH  17  18
ENDBRANCH  16  17
ENDBRANCH   1  16
TORSDOF 7
ENDMDL
MODEL 5
REMARK VINA RESULT: -6.647648639      1.819      2.507
REMARK  7 active torsions:
REMARK  status: ('A' for Active; 'I' for Inactive)
REMARK    1  A    between atoms: C2_2  and  N1_3 
REMARK    2  A    between atoms: N1_3  and  C3_5 
REMARK    3  A    between atoms: C3_5  and  O1_6 
REMARK    4  A    between atoms: C3_5  and  N2_8 
REMARK       I    between atoms: N2_8  and  C4_10 
REMARK    5  A    between atoms: C4_10  and  C5_12 
REMARK    6  A    between atoms: C5_12  and  S1_13 
REMARK    7  A    between atoms: S1_13  and  C6_14 
ROOT
HETATM    1  C6  UNL     1      19.702   6.699   3.113  1.00  0.00     0.148 A 
HETATM    2  N3  UNL     1      20.187   6.986   1.894  1.00  0.00    -0.334 N 
ATOM      3  H3  UNL     1      19.882   6.551   1.024  1.00  0.00     0.168 HD
HETATM    4  C7  UNL     1      21.163   7.960   1.997  1.00  0.00     0.076 A 
HETATM    5  C8  UNL     1      22.002   8.658   1.191  1.00  0.00    -0.015 A 
HETATM    6  C9  UNL     1      22.828   9.563   1.791  1.00  0.00    -0.007 A 
HETATM    7  S2  UNL     1      22.424   9.422   3.440  1.00  0.00    -0.074 SA
HETATM    8  C10 UNL     1      21.218   8.222   3.334  1.00  0.00     0.106 A 
HETATM    9  N4  UNL     1      20.320   7.447   4.022  1.00  0.00    -0.324 N 
HETATM   10  C11 UNL     1      20.129   7.480   5.437  1.00  0.00     0.159 C 
HETATM   11  C12 UNL     1      23.863  10.493   1.242  1.00  0.00     0.047 C 
HETATM   12  C13 UNL     1      23.626  10.690  -0.218  1.00  0.00     0.005 C 
HETATM   13  C14 UNL     1      24.164   9.529  -1.023  1.00  0.00     0.001 C 
HETATM   14  C15 UNL     1      23.440   8.241  -0.719  1.00  0.00     0.005 C 
HETATM   15  C16 UNL     1      22.019   8.445  -0.315  1.00  0.00     0.042 C 
ENDROOT
BRANCH   1  16
HETATM   16  S1  UNL     1      18.427   5.507   3.490  1.00  0.00    -0.084 SA
BRANCH  16  17
HETATM   17  C5  UNL     1      18.256   5.463   5.298  1.00  0.00     0.185 C 
BRANCH  17  18
HETATM   18  C4  UNL     1      18.952   4.250   5.870  1.00  0.00     0.234 C 
HETATM   19  N2  UNL     1      18.372   3.628   6.978  1.00  0.00    -0.292 N 
ATOM     20  H2  UNL     1      17.507   4.022   7.348  1.00  0.00     0.172 HD
HETATM   21  O2  UNL     1      19.998   3.890   5.309  1.00  0.00    -0.272 OA
BRANCH  19  22
HETATM   22  C3  UNL     1      18.903   2.494   7.615  1.00  0.00     0.219 C 
BRANCH  22  23
HETATM   23  N1  UNL     1      20.200   1.996   7.427  1.00  0.00    -0.357 N 
ATOM     24  H1  UNL     1      21.023   2.566   7.620  1.00  0.00     0.163 HD
BRANCH  23  25
HETATM   25  C2  UNL     1      20.318   0.613   6.937  1.00  0.00     0.118 C 
HETATM   26  C1  UNL     1      19.549   0.518   5.640  1.00  0.00     0.026 C 
ENDBRANCH  23  25
ENDBRANCH  22  23
BRANCH  22  27
HETATM   27  O1  UNL     1      18.095   1.892   8.436  1.00  0.00    -0.332 OA
ATOM     28  H1  UNL     1      17.455   1.276   8.098  1.00  0.00     0.220 HD
ENDBRANCH  22  27
ENDBRANCH  19  22
ENDBRANCH  17  18
ENDBRANCH  16  17
ENDBRANCH   1  16
TORSDOF 7
ENDMDL
