MODEL 1
REMARK VINA RESULT: -8.701734545      0.000      0.000
REMARK  5 active torsions:
REMARK  status: ('A' for Active; 'I' for Inactive)
REMARK    1  A    between atoms: C3_5  and  C4_6 
REMARK    2  A    between atoms: C4_6  and  C5_7 
REMARK    3  A    between atoms: C5_7  and  C6_8 
REMARK    4  A    between atoms: C6_8  and  C7_9 
REMARK    5  A    between atoms: C7_9  and  C8_10 
ROOT
HETATM    1  C8  UNL     1      23.222  30.219   6.290  1.00  0.00    -0.045 A 
HETATM    2  C9  UNL     1      22.440  29.429   7.102  1.00  0.00     0.020 A 
HETATM    3  C10 UNL     1      21.046  29.476   7.012  1.00  0.00    -0.023 A 
HETATM    4  C11 UNL     1      20.288  28.657   7.857  1.00  0.00     0.012 A 
HETATM    5  C12 UNL     1      18.911  28.670   7.804  1.00  0.00     0.001 A 
HETATM    6  C13 UNL     1      18.319  29.517   6.889  1.00  0.00     0.001 A 
HETATM    7  C14 UNL     1      19.029  30.338   6.039  1.00  0.00     0.014 A 
HETATM    8  C15 UNL     1      20.425  30.305   6.115  1.00  0.00     0.002 A 
HETATM    9  C16 UNL     1      21.200  31.098   5.297  1.00  0.00     0.054 A 
HETATM   10  N2  UNL     1      20.582  31.901   4.419  1.00  0.00    -0.365 N 
ATOM     11  H2  UNL     1      19.562  31.915   4.375  1.00  0.00     0.165 HD
HETATM   12  C17 UNL     1      21.296  32.686   3.598  1.00  0.00     0.088 A 
HETATM   13  C18 UNL     1      22.672  32.678   3.645  1.00  0.00     0.018 A 
HETATM   14  C19 UNL     1      23.305  31.840   4.563  1.00  0.00     0.015 A 
HETATM   15  C20 UNL     1      22.578  31.042   5.398  1.00  0.00    -0.002 A 
ENDROOT
BRANCH   1  16
HETATM   16  C7  UNL     1      24.665  30.192   6.405  1.00  0.00     0.039 C 
BRANCH  16  17
HETATM   17  C6  UNL     1      25.042  30.661   7.787  1.00  0.00     0.005 C 
BRANCH  17  18
HETATM   18  C5  UNL     1      25.532  32.106   7.801  1.00  0.00     0.006 C 
BRANCH  18  19
HETATM   19  C4  UNL     1      24.615  32.841   8.736  1.00  0.00     0.057 C 
BRANCH  19  20
HETATM   20  C3  UNL     1      23.384  33.350   8.114  1.00  0.00     0.009 A 
HETATM   21  N1  UNL     1      22.133  32.973   8.377  1.00  0.00    -0.369 N 
HETATM   22  C2  UNL     1      21.278  33.659   7.606  1.00  0.00     0.088 A 
ATOM     23  H1  UNL     1      21.865  32.268   9.064  1.00  0.00     0.165 HD
HETATM   24  C1  UNL     1      22.020  34.511   6.818  1.00  0.00     0.019 A 
HETATM   25  C21 UNL     1      23.333  34.312   7.140  1.00  0.00     0.026 A 
ENDBRANCH  19  20
ENDBRANCH  18  19
ENDBRANCH  17  18
ENDBRANCH  16  17
ENDBRANCH   1  16
TORSDOF 5
ENDMDL
MODEL 2
REMARK VINA RESULT: -8.493270253      3.502      5.101
REMARK  5 active torsions:
REMARK  status: ('A' for Active; 'I' for Inactive)
REMARK    1  A    between atoms: C3_5  and  C4_6 
REMARK    2  A    between atoms: C4_6  and  C5_7 
REMARK    3  A    between atoms: C5_7  and  C6_8 
REMARK    4  A    between atoms: C6_8  and  C7_9 
REMARK    5  A    between atoms: C7_9  and  C8_10 
ROOT
HETATM    1  C8  UNL     1      23.220  29.496   7.017  1.00  0.00    -0.045 A 
HETATM    2  C9  UNL     1      22.192  28.805   7.617  1.00  0.00     0.020 A 
HETATM    3  C10 UNL     1      20.860  29.126   7.337  1.00  0.00    -0.023 A 
HETATM    4  C11 UNL     1      19.845  28.400   7.970  1.00  0.00     0.012 A 
HETATM    5  C12 UNL     1      18.519  28.682   7.725  1.00  0.00     0.001 A 
HETATM    6  C13 UNL     1      18.239  29.700   6.837  1.00  0.00     0.001 A 
HETATM    7  C14 UNL     1      19.209  30.438   6.193  1.00  0.00     0.014 A 
HETATM    8  C15 UNL     1      20.547  30.132   6.460  1.00  0.00     0.002 A 
HETATM    9  C16 UNL     1      21.571  30.827   5.854  1.00  0.00     0.054 A 
HETATM   10  N2  UNL     1      21.252  31.805   4.994  1.00  0.00    -0.365 N 
ATOM     11  H2  UNL     1      20.271  32.018   4.809  1.00  0.00     0.165 HD
HETATM   12  C17 UNL     1      22.215  32.505   4.375  1.00  0.00     0.088 A 
HETATM   13  C18 UNL     1      23.543  32.229   4.614  1.00  0.00     0.018 A 
HETATM   14  C19 UNL     1      23.863  31.211   5.512  1.00  0.00     0.015 A 
HETATM   15  C20 UNL     1      22.883  30.499   6.142  1.00  0.00    -0.002 A 
ENDROOT
BRANCH   1  16
HETATM   16  C7  UNL     1      24.599  29.183   7.330  1.00  0.00     0.039 C 
BRANCH  16  17
HETATM   17  C6  UNL     1      24.952  27.875   6.669  1.00  0.00     0.005 C 
BRANCH  17  18
HETATM   18  C5  UNL     1      26.285  27.312   7.158  1.00  0.00     0.006 C 
BRANCH  18  19
HETATM   19  C4  UNL     1      26.202  27.310   8.658  1.00  0.00     0.057 C 
BRANCH  19  20
HETATM   20  C3  UNL     1      26.839  26.154   9.306  1.00  0.00     0.009 A 
HETATM   21  N1  UNL     1      26.271  25.285  10.142  1.00  0.00    -0.369 N 
HETATM   22  C2  UNL     1      27.170  24.369  10.528  1.00  0.00     0.088 A 
ATOM     23  H1  UNL     1      25.296  25.312  10.442  1.00  0.00     0.165 HD
HETATM   24  C1  UNL     1      28.363  24.671   9.909  1.00  0.00     0.019 A 
HETATM   25  C21 UNL     1      28.149  25.785   9.149  1.00  0.00     0.026 A 
ENDBRANCH  19  20
ENDBRANCH  18  19
ENDBRANCH  17  18
ENDBRANCH  16  17
ENDBRANCH   1  16
TORSDOF 5
ENDMDL
MODEL 3
REMARK VINA RESULT: -8.483271864      2.624      4.269
REMARK  5 active torsions:
REMARK  status: ('A' for Active; 'I' for Inactive)
REMARK    1  A    between atoms: C3_5  and  C4_6 
REMARK    2  A    between atoms: C4_6  and  C5_7 
REMARK    3  A    between atoms: C5_7  and  C6_8 
REMARK    4  A    between atoms: C6_8  and  C7_9 
REMARK    5  A    between atoms: C7_9  and  C8_10 
ROOT
HETATM    1  C8  UNL     1      24.062  31.232   7.074  1.00  0.00    -0.045 A 
HETATM    2  C9  UNL     1      23.699  29.941   7.386  1.00  0.00     0.020 A 
HETATM    3  C10 UNL     1      22.353  29.600   7.548  1.00  0.00    -0.023 A 
HETATM    4  C11 UNL     1      22.027  28.277   7.865  1.00  0.00     0.012 A 
HETATM    5  C12 UNL     1      20.715  27.894   8.035  1.00  0.00     0.001 A 
HETATM    6  C13 UNL     1      19.746  28.864   7.879  1.00  0.00     0.001 A 
HETATM    7  C14 UNL     1      20.024  30.178   7.566  1.00  0.00     0.014 A 
HETATM    8  C15 UNL     1      21.365  30.538   7.400  1.00  0.00     0.002 A 
HETATM    9  C16 UNL     1      21.720  31.832   7.087  1.00  0.00     0.054 A 
HETATM   10  N2  UNL     1      20.744  32.740   6.938  1.00  0.00    -0.365 N 
ATOM     11  H2  UNL     1      19.770  32.463   7.064  1.00  0.00     0.165 HD
HETATM   12  C17 UNL     1      21.042  34.011   6.627  1.00  0.00     0.088 A 
HETATM   13  C18 UNL     1      22.351  34.401   6.456  1.00  0.00     0.018 A 
HETATM   14  C19 UNL     1      23.358  33.448   6.613  1.00  0.00     0.015 A 
HETATM   15  C20 UNL     1      23.056  32.155   6.930  1.00  0.00    -0.002 A 
ENDROOT
BRANCH   1  16
HETATM   16  C7  UNL     1      25.458  31.591   6.936  1.00  0.00     0.039 C 
BRANCH  16  17
HETATM   17  C6  UNL     1      26.040  31.778   8.314  1.00  0.00     0.005 C 
BRANCH  17  18
HETATM   18  C5  UNL     1      27.484  31.292   8.410  1.00  0.00     0.006 C 
BRANCH  18  19
HETATM   19  C4  UNL     1      27.525  29.982   7.677  1.00  0.00     0.057 C 
BRANCH  19  20
HETATM   20  C3  UNL     1      27.414  28.794   8.536  1.00  0.00     0.009 A 
HETATM   21  N1  UNL     1      28.171  28.488   9.590  1.00  0.00    -0.369 N 
HETATM   22  C2  UNL     1      27.769  27.322  10.117  1.00  0.00     0.088 A 
ATOM     23  H1  UNL     1      28.941  29.056   9.944  1.00  0.00     0.165 HD
HETATM   24  C1  UNL     1      26.709  26.868   9.364  1.00  0.00     0.019 A 
HETATM   25  C21 UNL     1      26.493  27.791   8.379  1.00  0.00     0.026 A 
ENDBRANCH  19  20
ENDBRANCH  18  19
ENDBRANCH  17  18
ENDBRANCH  16  17
ENDBRANCH   1  16
TORSDOF 5
ENDMDL
MODEL 4
REMARK VINA RESULT: -8.476173950      1.653      4.132
REMARK  5 active torsions:
REMARK  status: ('A' for Active; 'I' for Inactive)
REMARK    1  A    between atoms: C3_5  and  C4_6 
REMARK    2  A    between atoms: C4_6  and  C5_7 
REMARK    3  A    between atoms: C5_7  and  C6_8 
REMARK    4  A    between atoms: C6_8  and  C7_9 
REMARK    5  A    between atoms: C7_9  and  C8_10 
ROOT
HETATM    1  C8  UNL     1      21.075  30.781   5.639  1.00  0.00    -0.045 A 
HETATM    2  C9  UNL     1      22.405  30.529   5.885  1.00  0.00     0.020 A 
HETATM    3  C10 UNL     1      22.786  29.594   6.853  1.00  0.00    -0.023 A 
HETATM    4  C11 UNL     1      24.149  29.369   7.073  1.00  0.00     0.012 A 
HETATM    5  C12 UNL     1      24.570  28.458   8.017  1.00  0.00     0.001 A 
HETATM    6  C13 UNL     1      23.598  27.785   8.728  1.00  0.00     0.001 A 
HETATM    7  C14 UNL     1      22.246  27.977   8.542  1.00  0.00     0.014 A 
HETATM    8  C15 UNL     1      21.846  28.908   7.578  1.00  0.00     0.002 A 
HETATM    9  C16 UNL     1      20.512  29.154   7.336  1.00  0.00     0.054 A 
HETATM   10  N2  UNL     1      19.602  28.472   8.047  1.00  0.00    -0.365 N 
ATOM     11  H2  UNL     1      19.908  27.796   8.748  1.00  0.00     0.165 HD
HETATM   12  C17 UNL     1      18.291  28.673   7.842  1.00  0.00     0.088 A 
HETATM   13  C18 UNL     1      17.863  29.581   6.900  1.00  0.00     0.018 A 
HETATM   14  C19 UNL     1      18.818  30.286   6.167  1.00  0.00     0.015 A 
HETATM   15  C20 UNL     1      20.151  30.082   6.376  1.00  0.00    -0.002 A 
ENDROOT
BRANCH   1  16
HETATM   16  C7  UNL     1      20.682  31.770   4.657  1.00  0.00     0.039 C 
BRANCH  16  17
HETATM   17  C6  UNL     1      21.830  32.729   4.463  1.00  0.00     0.005 C 
BRANCH  17  18
HETATM   18  C5  UNL     1      21.541  34.112   5.043  1.00  0.00     0.006 C 
BRANCH  18  19
HETATM   19  C4  UNL     1      22.838  34.589   5.630  1.00  0.00     0.057 C 
BRANCH  19  20
HETATM   20  C3  UNL     1      23.197  33.967   6.912  1.00  0.00     0.009 A 
HETATM   21  N1  UNL     1      24.198  33.117   7.144  1.00  0.00    -0.369 N 
HETATM   22  C2  UNL     1      24.206  32.763   8.437  1.00  0.00     0.088 A 
ATOM     23  H1  UNL     1      24.859  32.785   6.443  1.00  0.00     0.165 HD
HETATM   24  C1  UNL     1      23.163  33.419   9.055  1.00  0.00     0.019 A 
HETATM   25  C21 UNL     1      22.538  34.168   8.097  1.00  0.00     0.026 A 
ENDBRANCH  19  20
ENDBRANCH  18  19
ENDBRANCH  17  18
ENDBRANCH  16  17
ENDBRANCH   1  16
TORSDOF 5
ENDMDL
MODEL 5
REMARK VINA RESULT: -8.415680438      1.687      4.326
REMARK  5 active torsions:
REMARK  status: ('A' for Active; 'I' for Inactive)
REMARK    1  A    between atoms: C3_5  and  C4_6 
REMARK    2  A    between atoms: C4_6  and  C5_7 
REMARK    3  A    between atoms: C5_7  and  C6_8 
REMARK    4  A    between atoms: C6_8  and  C7_9 
REMARK    5  A    between atoms: C7_9  and  C8_10 
ROOT
HETATM    1  C8  UNL     1      24.672  31.649   5.832  1.00  0.00    -0.045 A 
HETATM    2  C9  UNL     1      24.178  31.548   4.551  1.00  0.00     0.020 A 
HETATM    3  C10 UNL     1      23.081  32.316   4.148  1.00  0.00    -0.023 A 
HETATM    4  C11 UNL     1      22.610  32.183   2.838  1.00  0.00     0.012 A 
HETATM    5  C12 UNL     1      21.531  32.918   2.397  1.00  0.00     0.001 A 
HETATM    6  C13 UNL     1      20.943  33.783   3.297  1.00  0.00     0.001 A 
HETATM    7  C14 UNL     1      21.376  33.944   4.595  1.00  0.00     0.014 A 
HETATM    8  C15 UNL     1      22.472  33.185   5.016  1.00  0.00     0.002 A 
HETATM    9  C16 UNL     1      22.961  33.292   6.300  1.00  0.00     0.054 A 
HETATM   10  N2  UNL     1      22.361  34.150   7.138  1.00  0.00    -0.365 N 
ATOM     11  H2  UNL     1      21.561  34.697   6.817  1.00  0.00     0.165 HD
HETATM   12  C17 UNL     1      22.806  34.293   8.396  1.00  0.00     0.088 A 
HETATM   13  C18 UNL     1      23.884  33.562   8.843  1.00  0.00     0.018 A 
HETATM   14  C19 UNL     1      24.499  32.671   7.963  1.00  0.00     0.015 A 
HETATM   15  C20 UNL     1      24.047  32.526   6.684  1.00  0.00    -0.002 A 
ENDROOT
BRANCH   1  16
HETATM   16  C7  UNL     1      25.789  30.832   6.257  1.00  0.00     0.039 C 
BRANCH  16  17
HETATM   17  C6  UNL     1      25.370  29.385   6.200  1.00  0.00     0.005 C 
BRANCH  17  18
HETATM   18  C5  UNL     1      24.623  28.942   7.455  1.00  0.00     0.006 C 
BRANCH  18  19
HETATM   19  C4  UNL     1      23.292  28.431   6.982  1.00  0.00     0.057 C 
BRANCH  19  20
HETATM   20  C3  UNL     1      22.180  29.380   7.137  1.00  0.00     0.009 A 
HETATM   21  N1  UNL     1      21.875  30.095   8.220  1.00  0.00    -0.369 N 
HETATM   22  C2  UNL     1      20.790  30.844   7.981  1.00  0.00     0.088 A 
ATOM     23  H1  UNL     1      22.391  30.075   9.100  1.00  0.00     0.165 HD
HETATM   24  C1  UNL     1      20.387  30.595   6.687  1.00  0.00     0.019 A 
HETATM   25  C21 UNL     1      21.259  29.680   6.167  1.00  0.00     0.026 A 
ENDBRANCH  19  20
ENDBRANCH  18  19
ENDBRANCH  17  18
ENDBRANCH  16  17
ENDBRANCH   1  16
TORSDOF 5
ENDMDL
