MODEL 1
REMARK VINA RESULT: -8.838047905      0.000      0.000
REMARK  5 active torsions:
REMARK  status: ('A' for Active; 'I' for Inactive)
REMARK    1  A    between atoms: C5_8  and  C6_9 
REMARK    2  A    between atoms: C6_9  and  C7_10 
REMARK    3  A    between atoms: C6_9  and  C15_18 
REMARK    4  A    between atoms: C7_10  and  C8_11 
REMARK    5  A    between atoms: C8_11  and  C9_12 
ROOT
HETATM    1  C6  UNL     1      23.948  30.290   7.009  1.00  0.00     0.055 C 
ENDROOT
BRANCH   1   2
HETATM    2  C5  UNL     1      23.649  31.721   7.077  1.00  0.00    -0.011 A 
HETATM    3  C1  UNL     1      23.506  32.489   5.967  1.00  0.00     0.107 A 
HETATM    4  S1  UNL     1      23.621  31.892   4.468  1.00  0.00    -0.060 SA
HETATM    5  N1  UNL     1      23.246  33.833   6.030  1.00  0.00    -0.357 N 
HETATM    6  C2  UNL     1      23.123  34.447   7.217  1.00  0.00     0.089 A 
ATOM      7  H1  UNL     1      23.146  34.371   5.168  1.00  0.00     0.166 HD
HETATM    8  C3  UNL     1      23.263  33.690   8.365  1.00  0.00     0.018 A 
HETATM    9  C4  UNL     1      23.523  32.340   8.318  1.00  0.00     0.012 A 
ENDBRANCH   1   2
BRANCH   1  10
HETATM   10  C7  UNL     1      22.953  29.405   7.724  1.00  0.00     0.019 C 
BRANCH  10  11
HETATM   11  C8  UNL     1      22.102  28.708   6.718  1.00  0.00     0.039 C 
BRANCH  11  12
HETATM   12  C9  UNL     1      20.684  29.088   6.771  1.00  0.00    -0.058 A 
HETATM   13  C10 UNL     1      20.118  30.024   5.938  1.00  0.00     0.007 A 
HETATM   14  C11 UNL     1      18.771  30.360   6.017  1.00  0.00     0.001 A 
HETATM   15  C12 UNL     1      17.995  29.731   6.961  1.00  0.00     0.000 A 
HETATM   16  C13 UNL     1      18.522  28.788   7.814  1.00  0.00     0.001 A 
HETATM   17  C14 UNL     1      19.868  28.484   7.701  1.00  0.00     0.007 A 
ENDBRANCH  11  12
ENDBRANCH  10  11
ENDBRANCH   1  10
BRANCH   1  18
HETATM   18  C15 UNL     1      25.317  29.930   7.435  1.00  0.00    -0.050 A 
HETATM   19  C16 UNL     1      25.498  28.774   8.161  1.00  0.00     0.008 A 
HETATM   20  C17 UNL     1      26.748  28.377   8.579  1.00  0.00     0.001 A 
HETATM   21  C18 UNL     1      27.868  29.123   8.286  1.00  0.00     0.000 A 
HETATM   22  C19 UNL     1      27.665  30.276   7.559  1.00  0.00     0.001 A 
HETATM   23  C20 UNL     1      26.414  30.687   7.133  1.00  0.00     0.008 A 
ENDBRANCH   1  18
TORSDOF 5
ENDMDL
MODEL 2
REMARK VINA RESULT: -8.493122785      2.596      5.245
REMARK  5 active torsions:
REMARK  status: ('A' for Active; 'I' for Inactive)
REMARK    1  A    between atoms: C5_8  and  C6_9 
REMARK    2  A    between atoms: C6_9  and  C7_10 
REMARK    3  A    between atoms: C6_9  and  C15_18 
REMARK    4  A    between atoms: C7_10  and  C8_11 
REMARK    5  A    between atoms: C8_11  and  C9_12 
ROOT
HETATM    1  C6  UNL     1      25.067  30.126   6.482  1.00  0.00     0.055 C 
ENDROOT
BRANCH   1   2
HETATM    2  C5  UNL     1      25.981  29.524   7.452  1.00  0.00    -0.011 A 
HETATM    3  C1  UNL     1      26.324  28.211   7.415  1.00  0.00     0.107 A 
HETATM    4  S1  UNL     1      25.780  27.196   6.280  1.00  0.00    -0.060 SA
HETATM    5  N1  UNL     1      27.164  27.643   8.336  1.00  0.00    -0.357 N 
HETATM    6  C2  UNL     1      27.688  28.382   9.326  1.00  0.00     0.089 A 
ATOM      7  H1  UNL     1      27.394  26.651   8.268  1.00  0.00     0.166 HD
HETATM    8  C3  UNL     1      27.357  29.724   9.389  1.00  0.00     0.018 A 
HETATM    9  C4  UNL     1      26.515  30.308   8.472  1.00  0.00     0.012 A 
ENDBRANCH   1   2
BRANCH   1  10
HETATM   10  C7  UNL     1      25.526  31.453   5.923  1.00  0.00     0.019 C 
BRANCH  10  11
HETATM   11  C8  UNL     1      24.892  31.673   4.592  1.00  0.00     0.039 C 
BRANCH  11  12
HETATM   12  C9  UNL     1      23.672  32.491   4.641  1.00  0.00    -0.058 A 
HETATM   13  C10 UNL     1      22.538  32.206   3.918  1.00  0.00     0.007 A 
HETATM   14  C11 UNL     1      21.401  33.003   3.990  1.00  0.00     0.001 A 
HETATM   15  C12 UNL     1      21.426  34.105   4.810  1.00  0.00     0.000 A 
HETATM   16  C13 UNL     1      22.541  34.427   5.550  1.00  0.00     0.001 A 
HETATM   17  C14 UNL     1      23.651  33.605   5.449  1.00  0.00     0.007 A 
ENDBRANCH  11  12
ENDBRANCH  10  11
ENDBRANCH   1  10
BRANCH   1  18
HETATM   18  C15 UNL     1      23.670  30.249   6.951  1.00  0.00    -0.050 A 
HETATM   19  C16 UNL     1      22.736  29.353   6.481  1.00  0.00     0.008 A 
HETATM   20  C17 UNL     1      21.421  29.407   6.886  1.00  0.00     0.001 A 
HETATM   21  C18 UNL     1      20.990  30.363   7.779  1.00  0.00     0.000 A 
HETATM   22  C19 UNL     1      21.940  31.250   8.237  1.00  0.00     0.001 A 
HETATM   23  C20 UNL     1      23.264  31.207   7.838  1.00  0.00     0.008 A 
ENDBRANCH   1  18
TORSDOF 5
ENDMDL
MODEL 3
REMARK VINA RESULT: -8.453792030      2.612      5.251
REMARK  5 active torsions:
REMARK  status: ('A' for Active; 'I' for Inactive)
REMARK    1  A    between atoms: C5_8  and  C6_9 
REMARK    2  A    between atoms: C6_9  and  C7_10 
REMARK    3  A    between atoms: C6_9  and  C15_18 
REMARK    4  A    between atoms: C7_10  and  C8_11 
REMARK    5  A    between atoms: C8_11  and  C9_12 
ROOT
HETATM    1  C6  UNL     1      25.077  30.089   6.494  1.00  0.00     0.055 C 
ENDROOT
BRANCH   1   2
HETATM    2  C5  UNL     1      25.989  29.481   7.462  1.00  0.00    -0.011 A 
HETATM    3  C1  UNL     1      26.324  28.166   7.423  1.00  0.00     0.107 A 
HETATM    4  S1  UNL     1      25.772  27.156   6.287  1.00  0.00    -0.060 SA
HETATM    5  N1  UNL     1      27.163  27.591   8.342  1.00  0.00    -0.357 N 
HETATM    6  C2  UNL     1      27.692  28.326   9.332  1.00  0.00     0.089 A 
ATOM      7  H1  UNL     1      27.387  26.598   8.272  1.00  0.00     0.166 HD
HETATM    8  C3  UNL     1      27.370  29.670   9.397  1.00  0.00     0.018 A 
HETATM    9  C4  UNL     1      26.530  30.260   8.482  1.00  0.00     0.012 A 
ENDBRANCH   1   2
BRANCH   1  10
HETATM   10  C7  UNL     1      25.542  31.416   5.939  1.00  0.00     0.019 C 
BRANCH  10  11
HETATM   11  C8  UNL     1      24.896  31.649   4.615  1.00  0.00     0.039 C 
BRANCH  11  12
HETATM   12  C9  UNL     1      23.699  32.500   4.679  1.00  0.00    -0.058 A 
HETATM   13  C10 UNL     1      23.616  33.634   5.453  1.00  0.00     0.007 A 
HETATM   14  C11 UNL     1      22.466  34.415   5.489  1.00  0.00     0.001 A 
HETATM   15  C12 UNL     1      21.390  34.031   4.726  1.00  0.00     0.000 A 
HETATM   16  C13 UNL     1      21.432  32.903   3.938  1.00  0.00     0.001 A 
HETATM   17  C14 UNL     1      22.597  32.154   3.932  1.00  0.00     0.007 A 
ENDBRANCH  11  12
ENDBRANCH  10  11
ENDBRANCH   1  10
BRANCH   1  18
HETATM   18  C15 UNL     1      23.681  30.218   6.965  1.00  0.00    -0.050 A 
HETATM   19  C16 UNL     1      22.747  29.313   6.512  1.00  0.00     0.008 A 
HETATM   20  C17 UNL     1      21.434  29.373   6.919  1.00  0.00     0.001 A 
HETATM   21  C18 UNL     1      21.003  30.342   7.799  1.00  0.00     0.000 A 
HETATM   22  C19 UNL     1      21.954  31.237   8.240  1.00  0.00     0.001 A 
HETATM   23  C20 UNL     1      23.277  31.189   7.838  1.00  0.00     0.008 A 
ENDBRANCH   1  18
TORSDOF 5
ENDMDL
MODEL 4
REMARK VINA RESULT: -8.389063275      1.609      5.431
REMARK  5 active torsions:
REMARK  status: ('A' for Active; 'I' for Inactive)
REMARK    1  A    between atoms: C5_8  and  C6_9 
REMARK    2  A    between atoms: C6_9  and  C7_10 
REMARK    3  A    between atoms: C6_9  and  C15_18 
REMARK    4  A    between atoms: C7_10  and  C8_11 
REMARK    5  A    between atoms: C8_11  and  C9_12 
ROOT
HETATM    1  C6  UNL     1      23.875  30.756   6.899  1.00  0.00     0.055 C 
ENDROOT
BRANCH   1   2
HETATM    2  C5  UNL     1      23.532  32.087   6.396  1.00  0.00    -0.011 A 
HETATM    3  C1  UNL     1      23.481  33.180   7.199  1.00  0.00     0.107 A 
HETATM    4  S1  UNL     1      23.825  33.122   8.779  1.00  0.00    -0.060 SA
HETATM    5  N1  UNL     1      23.141  34.422   6.733  1.00  0.00    -0.357 N 
HETATM    6  C2  UNL     1      22.839  34.603   5.437  1.00  0.00     0.089 A 
ATOM      7  H1  UNL     1      23.117  35.215   7.374  1.00  0.00     0.166 HD
HETATM    8  C3  UNL     1      22.882  33.507   4.594  1.00  0.00     0.018 A 
HETATM    9  C4  UNL     1      23.223  32.254   5.048  1.00  0.00     0.012 A 
ENDBRANCH   1   2
BRANCH   1  10
HETATM   10  C7  UNL     1      24.817  29.973   6.014  1.00  0.00     0.019 C 
BRANCH  10  11
HETATM   11  C8  UNL     1      26.212  30.135   6.515  1.00  0.00     0.039 C 
BRANCH  11  12
HETATM   12  C9  UNL     1      26.606  29.131   7.512  1.00  0.00    -0.058 A 
HETATM   13  C10 UNL     1      27.239  29.443   8.693  1.00  0.00     0.007 A 
HETATM   14  C11 UNL     1      27.598  28.465   9.614  1.00  0.00     0.001 A 
HETATM   15  C12 UNL     1      27.307  27.155   9.324  1.00  0.00     0.000 A 
HETATM   16  C13 UNL     1      26.674  26.799   8.154  1.00  0.00     0.001 A 
HETATM   17  C14 UNL     1      26.335  27.805   7.264  1.00  0.00     0.007 A 
ENDBRANCH  11  12
ENDBRANCH  10  11
ENDBRANCH   1  10
BRANCH   1  18
HETATM   18  C15 UNL     1      22.710  29.912   7.242  1.00  0.00    -0.050 A 
HETATM   19  C16 UNL     1      22.922  28.761   7.967  1.00  0.00     0.008 A 
HETATM   20  C17 UNL     1      21.880  27.937   8.327  1.00  0.00     0.001 A 
HETATM   21  C18 UNL     1      20.582  28.235   7.975  1.00  0.00     0.000 A 
HETATM   22  C19 UNL     1      20.392  29.391   7.250  1.00  0.00     0.001 A 
HETATM   23  C20 UNL     1      21.430  30.227   6.880  1.00  0.00     0.008 A 
ENDBRANCH   1  18
TORSDOF 5
ENDMDL
MODEL 5
REMARK VINA RESULT: -8.387442133      1.607      5.450
REMARK  5 active torsions:
REMARK  status: ('A' for Active; 'I' for Inactive)
REMARK    1  A    between atoms: C5_8  and  C6_9 
REMARK    2  A    between atoms: C6_9  and  C7_10 
REMARK    3  A    between atoms: C6_9  and  C15_18 
REMARK    4  A    between atoms: C7_10  and  C8_11 
REMARK    5  A    between atoms: C8_11  and  C9_12 
ROOT
HETATM    1  C6  UNL     1      23.888  30.751   6.903  1.00  0.00     0.055 C 
ENDROOT
BRANCH   1   2
HETATM    2  C5  UNL     1      23.545  32.076   6.388  1.00  0.00    -0.011 A 
HETATM    3  C1  UNL     1      23.485  33.175   7.183  1.00  0.00     0.107 A 
HETATM    4  S1  UNL     1      23.818  33.130   8.765  1.00  0.00    -0.060 SA
HETATM    5  N1  UNL     1      23.144  34.413   6.704  1.00  0.00    -0.357 N 
HETATM    6  C2  UNL     1      22.851  34.583   5.406  1.00  0.00     0.089 A 
ATOM      7  H1  UNL     1      23.113  35.211   7.339  1.00  0.00     0.166 HD
HETATM    8  C3  UNL     1      22.904  33.481   4.571  1.00  0.00     0.018 A 
HETATM    9  C4  UNL     1      23.245  32.232   5.037  1.00  0.00     0.012 A 
ENDBRANCH   1   2
BRANCH   1  10
HETATM   10  C7  UNL     1      24.843  29.965   6.034  1.00  0.00     0.019 C 
BRANCH  10  11
HETATM   11  C8  UNL     1      26.227  30.106   6.571  1.00  0.00     0.039 C 
BRANCH  11  12
HETATM   12  C9  UNL     1      26.603  29.055   7.527  1.00  0.00    -0.058 A 
HETATM   13  C10 UNL     1      26.361  27.717   7.317  1.00  0.00     0.007 A 
HETATM   14  C11 UNL     1      26.732  26.749   8.244  1.00  0.00     0.001 A 
HETATM   15  C12 UNL     1      27.355  27.155   9.399  1.00  0.00     0.000 A 
HETATM   16  C13 UNL     1      27.616  28.484   9.648  1.00  0.00     0.001 A 
HETATM   17  C14 UNL     1      27.230  29.414   8.698  1.00  0.00     0.007 A 
ENDBRANCH  11  12
ENDBRANCH  10  11
ENDBRANCH   1  10
BRANCH   1  18
HETATM   18  C15 UNL     1      22.723  29.904   7.240  1.00  0.00    -0.050 A 
HETATM   19  C16 UNL     1      22.934  28.757   7.972  1.00  0.00     0.008 A 
HETATM   20  C17 UNL     1      21.891  27.930   8.326  1.00  0.00     0.001 A 
HETATM   21  C18 UNL     1      20.595  28.221   7.961  1.00  0.00     0.000 A 
HETATM   22  C19 UNL     1      20.407  29.373   7.229  1.00  0.00     0.001 A 
HETATM   23  C20 UNL     1      21.446  30.212   6.865  1.00  0.00     0.008 A 
ENDBRANCH   1  18
TORSDOF 5
ENDMDL
