MODEL 1
REMARK VINA RESULT: -9.808373689      0.000      0.000
REMARK  5 active torsions:
REMARK  status: ('A' for Active; 'I' for Inactive)
REMARK    1  A    between atoms: C2_2  and  C3_3 
REMARK    2  A    between atoms: C3_3  and  C4_4 
REMARK    3  A    between atoms: C4_4  and  C5_5 
REMARK    4  A    between atoms: C5_5  and  C6_6 
REMARK    5  A    between atoms: C6_6  and  C7_7 
ROOT
HETATM    1  C7  UNL     1      21.487  31.796   5.273  1.00  0.00    -0.030 A 
HETATM    2  C8  UNL     1      20.204  31.445   5.593  1.00  0.00     0.021 A 
HETATM    3  C9  UNL     1      19.867  30.395   6.398  1.00  0.00    -0.024 A 
HETATM    4  C10 UNL     1      18.547  30.089   6.684  1.00  0.00     0.012 A 
HETATM    5  C11 UNL     1      18.201  29.036   7.492  1.00  0.00     0.001 A 
HETATM    6  C12 UNL     1      19.187  28.264   8.031  1.00  0.00     0.001 A 
HETATM    7  C13 UNL     1      20.533  28.571   7.742  1.00  0.00     0.013 A 
HETATM    8  C14 UNL     1      20.893  29.622   6.936  1.00  0.00    -0.012 A 
HETATM    9  C15 UNL     1      22.211  29.921   6.654  1.00  0.00     0.016 A 
HETATM   10  C16 UNL     1      22.489  31.012   5.821  1.00  0.00     0.051 A 
HETATM   11  N1  UNL     1      23.826  31.089   5.703  1.00  0.00    -0.354 N 
ATOM     12  H1  UNL     1      24.327  31.788   5.155  1.00  0.00     0.166 HD
HETATM   13  C17 UNL     1      24.403  30.110   6.414  1.00  0.00     0.046 A 
HETATM   14  C18 UNL     1      25.755  29.834   6.561  1.00  0.00     0.047 A 
HETATM   15  C19 UNL     1      26.063  28.757   7.358  1.00  0.00     0.090 A 
HETATM   16  N2  UNL     1      25.108  28.033   7.945  1.00  0.00    -0.374 N 
ATOM     17  H2  UNL     1      25.391  27.243   8.526  1.00  0.00     0.164 HD
HETATM   18  C20 UNL     1      23.777  28.290   7.811  1.00  0.00     0.102 A 
HETATM   19  C21 UNL     1      23.421  29.354   7.027  1.00  0.00     0.019 A 
ENDROOT
BRANCH   1  20
HETATM   20  C6  UNL     1      21.791  32.960   4.393  1.00  0.00     0.041 C 
BRANCH  20  21
HETATM   21  C5  UNL     1      21.748  34.189   5.242  1.00  0.00     0.005 C 
BRANCH  21  22
HETATM   22  C4  UNL     1      22.945  34.440   6.068  1.00  0.00     0.000 C 
BRANCH  22  23
HETATM   23  C3  UNL     1      22.683  34.695   7.520  1.00  0.00    -0.000 C 
BRANCH  23  24
HETATM   24  C2  UNL     1      22.860  33.433   8.338  1.00  0.00    -0.005 C 
HETATM   25  C1  UNL     1      24.296  33.134   8.653  1.00  0.00     0.005 C 
ENDBRANCH  23  24
ENDBRANCH  22  23
ENDBRANCH  21  22
ENDBRANCH  20  21
ENDBRANCH   1  20
TORSDOF 5
ENDMDL
MODEL 2
REMARK VINA RESULT: -9.552969444      1.511      4.202
REMARK  5 active torsions:
REMARK  status: ('A' for Active; 'I' for Inactive)
REMARK    1  A    between atoms: C2_2  and  C3_3 
REMARK    2  A    between atoms: C3_3  and  C4_4 
REMARK    3  A    between atoms: C4_4  and  C5_5 
REMARK    4  A    between atoms: C5_5  and  C6_6 
REMARK    5  A    between atoms: C6_6  and  C7_7 
ROOT
HETATM    1  C7  UNL     1      22.986  31.703   5.128  1.00  0.00    -0.030 A 
HETATM    2  C8  UNL     1      24.265  31.300   5.398  1.00  0.00     0.021 A 
HETATM    3  C9  UNL     1      24.590  30.255   6.214  1.00  0.00    -0.024 A 
HETATM    4  C10 UNL     1      25.906  29.895   6.450  1.00  0.00     0.012 A 
HETATM    5  C11 UNL     1      26.240  28.845   7.268  1.00  0.00     0.001 A 
HETATM    6  C12 UNL     1      25.246  28.133   7.870  1.00  0.00     0.001 A 
HETATM    7  C13 UNL     1      23.903  28.497   7.634  1.00  0.00     0.013 A 
HETATM    8  C14 UNL     1      23.556  29.543   6.818  1.00  0.00    -0.012 A 
HETATM    9  C15 UNL     1      22.241  29.897   6.588  1.00  0.00     0.016 A 
HETATM   10  C16 UNL     1      21.975  30.980   5.739  1.00  0.00     0.051 A 
HETATM   11  N1  UNL     1      20.639  31.119   5.682  1.00  0.00    -0.354 N 
ATOM     12  H1  UNL     1      20.147  31.828   5.140  1.00  0.00     0.166 HD
HETATM   13  C17 UNL     1      20.051  30.187   6.445  1.00  0.00     0.046 A 
HETATM   14  C18 UNL     1      18.697  29.981   6.663  1.00  0.00     0.047 A 
HETATM   15  C19 UNL     1      18.376  28.940   7.501  1.00  0.00     0.090 A 
HETATM   16  N2  UNL     1      19.322  28.184   8.063  1.00  0.00    -0.374 N 
ATOM     17  H2  UNL     1      19.031  27.425   8.678  1.00  0.00     0.164 HD
HETATM   18  C20 UNL     1      20.657  28.373   7.859  1.00  0.00     0.102 A 
HETATM   19  C21 UNL     1      21.024  29.399   7.031  1.00  0.00     0.019 A 
ENDROOT
BRANCH   1  20
HETATM   20  C6  UNL     1      22.695  32.850   4.220  1.00  0.00     0.041 C 
BRANCH  20  21
HETATM   21  C5  UNL     1      23.064  34.102   4.946  1.00  0.00     0.005 C 
BRANCH  21  22
HETATM   22  C4  UNL     1      22.253  34.417   6.138  1.00  0.00     0.000 C 
BRANCH  22  23
HETATM   23  C3  UNL     1      23.027  34.691   7.390  1.00  0.00    -0.000 C 
BRANCH  23  24
HETATM   24  C2  UNL     1      22.979  33.507   8.333  1.00  0.00    -0.005 C 
HETATM   25  C1  UNL     1      24.341  33.016   8.728  1.00  0.00     0.005 C 
ENDBRANCH  23  24
ENDBRANCH  22  23
ENDBRANCH  21  22
ENDBRANCH  20  21
ENDBRANCH   1  20
TORSDOF 5
ENDMDL
MODEL 3
REMARK VINA RESULT: -9.451826070      1.143      1.594
REMARK  5 active torsions:
REMARK  status: ('A' for Active; 'I' for Inactive)
REMARK    1  A    between atoms: C2_2  and  C3_3 
REMARK    2  A    between atoms: C3_3  and  C4_4 
REMARK    3  A    between atoms: C4_4  and  C5_5 
REMARK    4  A    between atoms: C5_5  and  C6_6 
REMARK    5  A    between atoms: C6_6  and  C7_7 
ROOT
HETATM    1  C7  UNL     1      23.139  31.518   5.751  1.00  0.00    -0.030 A 
HETATM    2  C8  UNL     1      21.859  31.076   5.946  1.00  0.00     0.021 A 
HETATM    3  C9  UNL     1      21.522  29.994   6.707  1.00  0.00    -0.024 A 
HETATM    4  C10 UNL     1      20.206  29.593   6.865  1.00  0.00     0.012 A 
HETATM    5  C11 UNL     1      19.860  28.507   7.629  1.00  0.00     0.001 A 
HETATM    6  C12 UNL     1      20.843  27.797   8.253  1.00  0.00     0.001 A 
HETATM    7  C13 UNL     1      22.186  28.201   8.094  1.00  0.00     0.013 A 
HETATM    8  C14 UNL     1      22.545  29.285   7.333  1.00  0.00    -0.012 A 
HETATM    9  C15 UNL     1      23.859  29.678   7.180  1.00  0.00     0.016 A 
HETATM   10  C16 UNL     1      24.138  30.798   6.385  1.00  0.00     0.051 A 
HETATM   11  N1  UNL     1      25.471  30.968   6.394  1.00  0.00    -0.354 N 
ATOM     12  H1  UNL     1      25.970  31.708   5.901  1.00  0.00     0.166 HD
HETATM   13  C17 UNL     1      26.046  30.021   7.149  1.00  0.00     0.046 A 
HETATM   14  C18 UNL     1      27.394  29.837   7.419  1.00  0.00     0.047 A 
HETATM   15  C19 UNL     1      27.700  28.772   8.233  1.00  0.00     0.090 A 
HETATM   16  N2  UNL     1      26.748  27.975   8.723  1.00  0.00    -0.374 N 
ATOM     17  H2  UNL     1      27.030  27.199   9.321  1.00  0.00     0.164 HD
HETATM   18  C20 UNL     1      25.420  28.143   8.466  1.00  0.00     0.102 A 
HETATM   19  C21 UNL     1      25.066  29.190   7.660  1.00  0.00     0.019 A 
ENDROOT
BRANCH   1  20
HETATM   20  C6  UNL     1      23.442  32.714   4.913  1.00  0.00     0.041 C 
BRANCH  20  21
HETATM   21  C5  UNL     1      22.657  33.859   5.464  1.00  0.00     0.005 C 
BRANCH  21  22
HETATM   22  C4  UNL     1      23.202  34.481   6.686  1.00  0.00     0.000 C 
BRANCH  22  23
HETATM   23  C3  UNL     1      22.346  34.358   7.908  1.00  0.00    -0.000 C 
BRANCH  23  24
HETATM   24  C2  UNL     1      22.868  33.281   8.836  1.00  0.00    -0.005 C 
HETATM   25  C1  UNL     1      24.364  33.288   8.960  1.00  0.00     0.005 C 
ENDBRANCH  23  24
ENDBRANCH  22  23
ENDBRANCH  21  22
ENDBRANCH  20  21
ENDBRANCH   1  20
TORSDOF 5
ENDMDL
MODEL 4
REMARK VINA RESULT: -8.859231790      1.789      4.797
REMARK  5 active torsions:
REMARK  status: ('A' for Active; 'I' for Inactive)
REMARK    1  A    between atoms: C2_2  and  C3_3 
REMARK    2  A    between atoms: C3_3  and  C4_4 
REMARK    3  A    between atoms: C4_4  and  C5_5 
REMARK    4  A    between atoms: C5_5  and  C6_6 
REMARK    5  A    between atoms: C6_6  and  C7_7 
ROOT
HETATM    1  C7  UNL     1      23.444  32.866   7.985  1.00  0.00    -0.030 A 
HETATM    2  C8  UNL     1      24.798  32.672   7.947  1.00  0.00     0.021 A 
HETATM    3  C9  UNL     1      25.402  31.449   7.898  1.00  0.00    -0.024 A 
HETATM    4  C10 UNL     1      26.780  31.317   7.862  1.00  0.00     0.012 A 
HETATM    5  C11 UNL     1      27.395  30.091   7.811  1.00  0.00     0.001 A 
HETATM    6  C12 UNL     1      26.625  28.965   7.797  1.00  0.00     0.001 A 
HETATM    7  C13 UNL     1      25.221  29.095   7.835  1.00  0.00     0.013 A 
HETATM    8  C14 UNL     1      24.594  30.314   7.884  1.00  0.00    -0.012 A 
HETATM    9  C15 UNL     1      23.220  30.439   7.921  1.00  0.00     0.016 A 
HETATM   10  C16 UNL     1      22.662  31.723   7.971  1.00  0.00     0.051 A 
HETATM   11  N1  UNL     1      21.326  31.574   8.000  1.00  0.00    -0.354 N 
ATOM     12  H1  UNL     1      20.652  32.338   8.038  1.00  0.00     0.166 HD
HETATM   13  C17 UNL     1      21.013  30.270   7.971  1.00  0.00     0.046 A 
HETATM   14  C18 UNL     1      19.755  29.687   7.987  1.00  0.00     0.047 A 
HETATM   15  C19 UNL     1      19.731  28.313   7.949  1.00  0.00     0.090 A 
HETATM   16  N2  UNL     1      20.859  27.601   7.901  1.00  0.00    -0.374 N 
ATOM     17  H2  UNL     1      20.786  26.584   7.874  1.00  0.00     0.164 HD
HETATM   18  C20 UNL     1      22.102  28.159   7.884  1.00  0.00     0.102 A 
HETATM   19  C21 UNL     1      22.176  29.525   7.921  1.00  0.00     0.019 A 
ENDROOT
BRANCH   1  20
HETATM   20  C6  UNL     1      22.843  34.230   8.031  1.00  0.00     0.041 C 
BRANCH  20  21
HETATM   21  C5  UNL     1      22.992  34.832   6.672  1.00  0.00     0.005 C 
BRANCH  21  22
HETATM   22  C4  UNL     1      22.233  34.173   5.592  1.00  0.00     0.000 C 
BRANCH  22  23
HETATM   23  C3  UNL     1      23.053  33.658   4.450  1.00  0.00    -0.000 C 
BRANCH  23  24
HETATM   24  C2  UNL     1      23.026  32.145   4.394  1.00  0.00    -0.005 C 
HETATM   25  C1  UNL     1      24.395  31.532   4.407  1.00  0.00     0.005 C 
ENDBRANCH  23  24
ENDBRANCH  22  23
ENDBRANCH  21  22
ENDBRANCH  20  21
ENDBRANCH   1  20
TORSDOF 5
ENDMDL
MODEL 5
REMARK VINA RESULT: -8.800065061      1.340      2.501
REMARK  5 active torsions:
REMARK  status: ('A' for Active; 'I' for Inactive)
REMARK    1  A    between atoms: C2_2  and  C3_3 
REMARK    2  A    between atoms: C3_3  and  C4_4 
REMARK    3  A    between atoms: C4_4  and  C5_5 
REMARK    4  A    between atoms: C5_5  and  C6_6 
REMARK    5  A    between atoms: C6_6  and  C7_7 
ROOT
HETATM    1  C7  UNL     1      22.365  32.755   7.189  1.00  0.00    -0.030 A 
HETATM    2  C8  UNL     1      21.057  32.355   7.220  1.00  0.00     0.021 A 
HETATM    3  C9  UNL     1      20.647  31.067   7.411  1.00  0.00    -0.024 A 
HETATM    4  C10 UNL     1      19.306  30.724   7.430  1.00  0.00     0.012 A 
HETATM    5  C11 UNL     1      18.885  29.432   7.623  1.00  0.00     0.001 A 
HETATM    6  C12 UNL     1      19.817  28.453   7.800  1.00  0.00     0.001 A 
HETATM    7  C13 UNL     1      21.186  28.798   7.779  1.00  0.00     0.013 A 
HETATM    8  C14 UNL     1      21.618  30.085   7.589  1.00  0.00    -0.012 A 
HETATM    9  C15 UNL     1      22.958  30.420   7.569  1.00  0.00     0.016 A 
HETATM   10  C16 UNL     1      23.313  31.761   7.369  1.00  0.00     0.051 A 
HETATM   11  N1  UNL     1      24.655  31.822   7.391  1.00  0.00    -0.354 N 
ATOM     12  H1  UNL     1      25.205  32.673   7.271  1.00  0.00     0.166 HD
HETATM   13  C17 UNL     1      25.164  30.599   7.594  1.00  0.00     0.046 A 
HETATM   14  C18 UNL     1      26.497  30.224   7.683  1.00  0.00     0.047 A 
HETATM   15  C19 UNL     1      26.730  28.887   7.898  1.00  0.00     0.090 A 
HETATM   16  N2  UNL     1      25.724  28.016   8.010  1.00  0.00    -0.374 N 
ATOM     17  H2  UNL     1      25.952  27.034   8.168  1.00  0.00     0.164 HD
HETATM   18  C20 UNL     1      24.410  28.368   7.925  1.00  0.00     0.102 A 
HETATM   19  C21 UNL     1      24.129  29.690   7.711  1.00  0.00     0.019 A 
ENDROOT
BRANCH   1  20
HETATM   20  C6  UNL     1      22.750  34.181   6.983  1.00  0.00     0.041 C 
BRANCH  20  21
HETATM   21  C5  UNL     1      22.553  34.495   5.536  1.00  0.00     0.005 C 
BRANCH  21  22
HETATM   22  C4  UNL     1      23.405  33.744   4.594  1.00  0.00     0.000 C 
BRANCH  22  23
HETATM   23  C3  UNL     1      22.718  32.652   3.834  1.00  0.00    -0.000 C 
BRANCH  23  24
HETATM   24  C2  UNL     1      21.319  33.065   3.428  1.00  0.00    -0.005 C 
HETATM   25  C1  UNL     1      21.184  33.313   1.954  1.00  0.00     0.005 C 
ENDBRANCH  23  24
ENDBRANCH  22  23
ENDBRANCH  21  22
ENDBRANCH  20  21
ENDBRANCH   1  20
TORSDOF 5
ENDMDL
