MODEL 1
REMARK VINA RESULT: -9.311196631      0.000      0.000
REMARK  5 active torsions:
REMARK  status: ('A' for Active; 'I' for Inactive)
REMARK    1  A    between atoms: C10_11  and  C11_12 
REMARK    2  A    between atoms: C11_12  and  C12_13 
REMARK    3  A    between atoms: C12_13  and  C13_14 
REMARK    4  A    between atoms: C13_14  and  C14_15 
REMARK    5  A    between atoms: C14_15  and  C15_16 
ROOT
HETATM    1  C1  UNL     1      22.645  34.809   7.118  1.00  0.00     0.001 A 
HETATM    2  C2  UNL     1      23.149  34.300   8.292  1.00  0.00     0.001 A 
HETATM    3  C3  UNL     1      23.936  33.186   8.356  1.00  0.00     0.013 A 
HETATM    4  C4  UNL     1      24.239  32.538   7.169  1.00  0.00    -0.014 A 
HETATM    5  C5  UNL     1      23.746  33.029   5.985  1.00  0.00    -0.025 A 
HETATM    6  C6  UNL     1      22.948  34.165   5.947  1.00  0.00     0.012 A 
HETATM    7  C7  UNL     1      23.983  32.465   4.743  1.00  0.00     0.013 A 
HETATM    8  C8  UNL     1      24.770  31.338   4.744  1.00  0.00     0.021 A 
HETATM    9  C9  UNL     1      25.279  30.830   5.948  1.00  0.00     0.016 A 
HETATM   10  S1  UNL     1      26.273  29.474   6.321  1.00  0.00    -0.094 SA
HETATM   11  C10 UNL     1      26.356  29.661   8.007  1.00  0.00    -0.016 A 
HETATM   12  C18 UNL     1      25.605  30.776   8.240  1.00  0.00     0.028 A 
HETATM   13  C19 UNL     1      25.048  31.381   7.172  1.00  0.00    -0.007 A 
ENDROOT
BRANCH  11  14
HETATM   14  C11 UNL     1      27.084  28.795   8.979  1.00  0.00     0.046 C 
BRANCH  14  15
HETATM   15  C12 UNL     1      26.480  27.418   8.884  1.00  0.00     0.005 C 
BRANCH  15  16
HETATM   16  C13 UNL     1      27.452  26.331   9.280  1.00  0.00     0.006 C 
BRANCH  16  17
HETATM   17  C14 UNL     1      26.657  25.281  10.023  1.00  0.00     0.058 C 
BRANCH  17  18
HETATM   18  C15 UNL     1      27.555  24.341  10.749  1.00  0.00     0.025 A 
HETATM   19  C16 UNL     1      27.942  23.075  10.372  1.00  0.00     0.113 A 
HETATM   20  N1  UNL     1      28.769  22.551  11.314  1.00  0.00    -0.360 N 
HETATM   21  C17 UNL     1      28.876  23.507  12.259  1.00  0.00     0.180 A 
ATOM     22  H1  UNL     1      29.212  21.632  11.307  1.00  0.00     0.166 HD
HETATM   23  N2  UNL     1      28.150  24.585  11.928  1.00  0.00    -0.355 N 
ATOM     24  H2  UNL     1      28.064  25.441  12.476  1.00  0.00     0.166 HD
ENDBRANCH  17  18
ENDBRANCH  16  17
ENDBRANCH  15  16
ENDBRANCH  14  15
ENDBRANCH  11  14
TORSDOF 5
ENDMDL
MODEL 2
REMARK VINA RESULT: -9.275465671      3.671      4.707
REMARK  5 active torsions:
REMARK  status: ('A' for Active; 'I' for Inactive)
REMARK    1  A    between atoms: C10_11  and  C11_12 
REMARK    2  A    between atoms: C11_12  and  C12_13 
REMARK    3  A    between atoms: C12_13  and  C13_14 
REMARK    4  A    between atoms: C13_14  and  C14_15 
REMARK    5  A    between atoms: C14_15  and  C15_16 
ROOT
HETATM    1  C1  UNL     1      18.771  28.418   7.840  1.00  0.00     0.001 A 
HETATM    2  C2  UNL     1      20.032  28.021   8.217  1.00  0.00     0.001 A 
HETATM    3  C3  UNL     1      21.177  28.603   7.754  1.00  0.00     0.013 A 
HETATM    4  C4  UNL     1      21.054  29.649   6.854  1.00  0.00    -0.014 A 
HETATM    5  C5  UNL     1      19.803  30.062   6.463  1.00  0.00    -0.025 A 
HETATM    6  C6  UNL     1      18.654  29.453   6.950  1.00  0.00     0.012 A 
HETATM    7  C7  UNL     1      19.561  31.094   5.572  1.00  0.00     0.013 A 
HETATM    8  C8  UNL     1      20.678  31.719   5.070  1.00  0.00     0.021 A 
HETATM    9  C9  UNL     1      21.958  31.305   5.464  1.00  0.00     0.016 A 
HETATM   10  S1  UNL     1      23.543  31.841   5.052  1.00  0.00    -0.094 SA
HETATM   11  C10 UNL     1      24.445  30.762   6.004  1.00  0.00    -0.016 A 
HETATM   12  C18 UNL     1      23.489  30.008   6.620  1.00  0.00     0.028 A 
HETATM   13  C19 UNL     1      22.201  30.290   6.340  1.00  0.00    -0.007 A 
ENDROOT
BRANCH  11  14
HETATM   14  C11 UNL     1      25.930  30.681   6.118  1.00  0.00     0.046 C 
BRANCH  14  15
HETATM   15  C12 UNL     1      26.336  31.579   7.257  1.00  0.00     0.005 C 
BRANCH  15  16
HETATM   16  C13 UNL     1      26.910  30.810   8.424  1.00  0.00     0.006 C 
BRANCH  16  17
HETATM   17  C14 UNL     1      27.487  29.528   7.865  1.00  0.00     0.058 C 
BRANCH  17  18
HETATM   18  C15 UNL     1      27.606  28.486   8.921  1.00  0.00     0.025 A 
HETATM   19  C16 UNL     1      26.989  27.256   8.975  1.00  0.00     0.113 A 
HETATM   20  N1  UNL     1      27.364  26.607  10.107  1.00  0.00    -0.360 N 
HETATM   21  C17 UNL     1      28.208  27.451  10.734  1.00  0.00     0.180 A 
ATOM     22  H1  UNL     1      27.070  25.680  10.416  1.00  0.00     0.166 HD
HETATM   23  N2  UNL     1      28.358  28.582  10.029  1.00  0.00    -0.355 N 
ATOM     24  H2  UNL     1      28.943  29.377  10.289  1.00  0.00     0.166 HD
ENDBRANCH  17  18
ENDBRANCH  16  17
ENDBRANCH  15  16
ENDBRANCH  14  15
ENDBRANCH  11  14
TORSDOF 5
ENDMDL
MODEL 3
REMARK VINA RESULT: -9.254129039      3.622      3.926
REMARK  5 active torsions:
REMARK  status: ('A' for Active; 'I' for Inactive)
REMARK    1  A    between atoms: C10_11  and  C11_12 
REMARK    2  A    between atoms: C11_12  and  C12_13 
REMARK    3  A    between atoms: C12_13  and  C13_14 
REMARK    4  A    between atoms: C13_14  and  C14_15 
REMARK    5  A    between atoms: C14_15  and  C15_16 
ROOT
HETATM    1  C1  UNL     1      17.932  29.154   7.251  1.00  0.00     0.001 A 
HETATM    2  C2  UNL     1      18.881  28.445   7.949  1.00  0.00     0.001 A 
HETATM    3  C3  UNL     1      20.224  28.654   7.823  1.00  0.00     0.013 A 
HETATM    4  C4  UNL     1      20.647  29.637   6.942  1.00  0.00    -0.014 A 
HETATM    5  C5  UNL     1      19.716  30.358   6.234  1.00  0.00    -0.025 A 
HETATM    6  C6  UNL     1      18.354  30.124   6.381  1.00  0.00     0.012 A 
HETATM    7  C7  UNL     1      20.022  31.359   5.330  1.00  0.00     0.013 A 
HETATM    8  C8  UNL     1      21.362  31.616   5.160  1.00  0.00     0.021 A 
HETATM    9  C9  UNL     1      22.319  30.887   5.879  1.00  0.00     0.016 A 
HETATM   10  S1  UNL     1      24.041  30.934   5.921  1.00  0.00    -0.094 SA
HETATM   11  C10 UNL     1      24.313  29.707   7.062  1.00  0.00    -0.016 A 
HETATM   12  C18 UNL     1      23.055  29.287   7.383  1.00  0.00     0.028 A 
HETATM   13  C19 UNL     1      22.023  29.900   6.770  1.00  0.00    -0.007 A 
ENDROOT
BRANCH  11  14
HETATM   14  C11 UNL     1      25.628  29.222   7.573  1.00  0.00     0.046 C 
BRANCH  14  15
HETATM   15  C12 UNL     1      25.990  27.998   6.773  1.00  0.00     0.005 C 
BRANCH  15  16
HETATM   16  C13 UNL     1      26.398  26.835   7.646  1.00  0.00     0.006 C 
BRANCH  16  17
HETATM   17  C14 UNL     1      26.475  27.356   9.064  1.00  0.00     0.058 C 
BRANCH  17  18
HETATM   18  C15 UNL     1      27.112  26.360   9.969  1.00  0.00     0.025 A 
HETATM   19  C16 UNL     1      26.755  25.046  10.170  1.00  0.00     0.113 A 
HETATM   20  N1  UNL     1      27.592  24.479  11.078  1.00  0.00    -0.360 N 
HETATM   21  C17 UNL     1      28.453  25.458  11.422  1.00  0.00     0.180 A 
ATOM     22  H1  UNL     1      27.572  23.520  11.425  1.00  0.00     0.166 HD
HETATM   23  N2  UNL     1      28.171  26.591  10.760  1.00  0.00    -0.355 N 
ATOM     24  H2  UNL     1      28.674  27.475  10.844  1.00  0.00     0.166 HD
ENDBRANCH  17  18
ENDBRANCH  16  17
ENDBRANCH  15  16
ENDBRANCH  14  15
ENDBRANCH  11  14
TORSDOF 5
ENDMDL
MODEL 4
REMARK VINA RESULT: -9.122136189      4.754      9.205
REMARK  5 active torsions:
REMARK  status: ('A' for Active; 'I' for Inactive)
REMARK    1  A    between atoms: C10_11  and  C11_12 
REMARK    2  A    between atoms: C11_12  and  C12_13 
REMARK    3  A    between atoms: C12_13  and  C13_14 
REMARK    4  A    between atoms: C13_14  and  C14_15 
REMARK    5  A    between atoms: C14_15  and  C15_16 
ROOT
HETATM    1  C1  UNL     1      29.015  22.757  11.305  1.00  0.00     0.001 A 
HETATM    2  C2  UNL     1      27.913  22.752  10.484  1.00  0.00     0.001 A 
HETATM    3  C3  UNL     1      27.469  23.852   9.808  1.00  0.00     0.013 A 
HETATM    4  C4  UNL     1      28.173  25.036   9.964  1.00  0.00    -0.014 A 
HETATM    5  C5  UNL     1      29.278  25.063  10.780  1.00  0.00    -0.025 A 
HETATM    6  C6  UNL     1      29.709  23.929  11.456  1.00  0.00     0.012 A 
HETATM    7  C7  UNL     1      30.055  26.186  11.009  1.00  0.00     0.013 A 
HETATM    8  C8  UNL     1      29.657  27.327  10.355  1.00  0.00     0.021 A 
HETATM    9  C9  UNL     1      28.531  27.308   9.519  1.00  0.00     0.016 A 
HETATM   10  S1  UNL     1      27.759  28.517   8.565  1.00  0.00    -0.094 SA
HETATM   11  C10 UNL     1      26.500  27.579   7.917  1.00  0.00    -0.016 A 
HETATM   12  C18 UNL     1      26.710  26.346   8.461  1.00  0.00     0.028 A 
HETATM   13  C19 UNL     1      27.764  26.206   9.291  1.00  0.00    -0.007 A 
ENDROOT
BRANCH  11  14
HETATM   14  C11 UNL     1      25.430  28.026   6.979  1.00  0.00     0.046 C 
BRANCH  14  15
HETATM   15  C12 UNL     1      24.227  28.378   7.814  1.00  0.00     0.005 C 
BRANCH  15  16
HETATM   16  C13 UNL     1      22.944  28.362   7.016  1.00  0.00     0.006 C 
BRANCH  16  17
HETATM   17  C14 UNL     1      21.810  28.248   8.011  1.00  0.00     0.058 C 
BRANCH  17  18
HETATM   18  C15 UNL     1      20.531  28.738   7.426  1.00  0.00     0.025 A 
HETATM   19  C16 UNL     1      20.350  29.480   6.281  1.00  0.00     0.113 A 
HETATM   20  N1  UNL     1      19.026  29.720   6.097  1.00  0.00    -0.360 N 
HETATM   21  C17 UNL     1      18.412  29.120   7.137  1.00  0.00     0.180 A 
ATOM     22  H1  UNL     1      18.590  30.243   5.337  1.00  0.00     0.166 HD
HETATM   23  N2  UNL     1      19.309  28.528   7.940  1.00  0.00    -0.355 N 
ATOM     24  H2  UNL     1      19.098  28.010   8.793  1.00  0.00     0.166 HD
ENDBRANCH  17  18
ENDBRANCH  16  17
ENDBRANCH  15  16
ENDBRANCH  14  15
ENDBRANCH  11  14
TORSDOF 5
ENDMDL
MODEL 5
REMARK VINA RESULT: -9.058058134      3.496      3.785
REMARK  5 active torsions:
REMARK  status: ('A' for Active; 'I' for Inactive)
REMARK    1  A    between atoms: C10_11  and  C11_12 
REMARK    2  A    between atoms: C11_12  and  C12_13 
REMARK    3  A    between atoms: C12_13  and  C13_14 
REMARK    4  A    between atoms: C13_14  and  C14_15 
REMARK    5  A    between atoms: C14_15  and  C15_16 
ROOT
HETATM    1  C1  UNL     1      18.115  29.184   7.316  1.00  0.00     0.001 A 
HETATM    2  C2  UNL     1      19.077  28.425   7.940  1.00  0.00     0.001 A 
HETATM    3  C3  UNL     1      20.418  28.611   7.764  1.00  0.00     0.013 A 
HETATM    4  C4  UNL     1      20.825  29.623   6.909  1.00  0.00    -0.014 A 
HETATM    5  C5  UNL     1      19.881  30.394   6.275  1.00  0.00    -0.025 A 
HETATM    6  C6  UNL     1      18.522  30.183   6.471  1.00  0.00     0.012 A 
HETATM    7  C7  UNL     1      20.171  31.428   5.402  1.00  0.00     0.013 A 
HETATM    8  C8  UNL     1      21.508  31.664   5.185  1.00  0.00     0.021 A 
HETATM    9  C9  UNL     1      22.478  30.883   5.828  1.00  0.00     0.016 A 
HETATM   10  S1  UNL     1      24.201  30.893   5.796  1.00  0.00    -0.094 SA
HETATM   11  C10 UNL     1      24.494  29.610   6.870  1.00  0.00    -0.016 A 
HETATM   12  C18 UNL     1      23.241  29.204   7.228  1.00  0.00     0.028 A 
HETATM   13  C19 UNL     1      22.198  29.865   6.688  1.00  0.00    -0.007 A 
ENDROOT
BRANCH  11  14
HETATM   14  C11 UNL     1      25.818  29.076   7.301  1.00  0.00     0.046 C 
BRANCH  14  15
HETATM   15  C12 UNL     1      25.550  28.012   8.334  1.00  0.00     0.005 C 
BRANCH  15  16
HETATM   16  C13 UNL     1      26.792  27.629   9.104  1.00  0.00     0.006 C 
BRANCH  16  17
HETATM   17  C14 UNL     1      26.938  26.128   8.983  1.00  0.00     0.058 C 
BRANCH  17  18
HETATM   18  C15 UNL     1      27.547  25.546  10.210  1.00  0.00     0.025 A 
HETATM   19  C16 UNL     1      28.211  26.203  11.223  1.00  0.00     0.113 A 
HETATM   20  N1  UNL     1      28.612  25.307  12.162  1.00  0.00    -0.360 N 
HETATM   21  C17 UNL     1      28.188  24.109  11.710  1.00  0.00     0.180 A 
ATOM     22  H1  UNL     1      29.124  25.499  13.023  1.00  0.00     0.166 HD
HETATM   23  N2  UNL     1      27.548  24.244  10.538  1.00  0.00    -0.355 N 
ATOM     24  H2  UNL     1      27.134  23.489   9.991  1.00  0.00     0.166 HD
ENDBRANCH  17  18
ENDBRANCH  16  17
ENDBRANCH  15  16
ENDBRANCH  14  15
ENDBRANCH  11  14
TORSDOF 5
ENDMDL
