MODEL 1
REMARK VINA RESULT: -8.094168499      0.000      0.000
REMARK  12 active torsions:
REMARK  status: ('A' for Active; 'I' for Inactive)
REMARK    1  A    between atoms: C4_5  and  S1_6 
REMARK    2  A    between atoms: S1_6  and  N2_9 
REMARK    3  A    between atoms: N2_9  and  C5_11 
REMARK    4  A    between atoms: C6_17  and  C7_18 
REMARK    5  A    between atoms: C7_18  and  O4_19 
REMARK    6  A    between atoms: C7_18  and  O5_21 
REMARK    7  A    between atoms: O5_21  and  N5_22 
REMARK    8  A    between atoms: C8_25  and  O6_26 
REMARK    9  A    between atoms: C8_25  and  O7_28 
REMARK   10  A    between atoms: C9_30  and  O8_31 
REMARK   11  A    between atoms: C10_33  and  O9_34 
REMARK   12  A    between atoms: C11_36  and  O10_37 
ROOT
HETATM    1  C5  UNL     1      23.542  -2.608   9.765  1.00  0.00     0.167 A 
HETATM    2  N3  UNL     1      22.749  -3.058   8.796  1.00  0.00    -0.223 N 
ATOM      3  H3  UNL     1      22.301  -3.973   8.763  1.00  0.00     0.198 HD
HETATM    4  O3  UNL     1      22.647  -2.127   7.906  1.00  0.00    -0.155 OA
HETATM    5  N4  UNL     1      23.333  -1.079   8.234  1.00  0.00    -0.237 N 
ATOM      6  H4  UNL     1      23.410  -0.216   7.697  1.00  0.00     0.197 HD
HETATM    7  C6  UNL     1      23.924  -1.336   9.415  1.00  0.00     0.137 A 
ENDROOT
BRANCH   1   8
HETATM    8  N2  UNL     1      23.893  -3.193  10.804  1.00  0.00    -0.262 N 
ATOM      9  H2  UNL     1      24.651  -2.790  11.354  1.00  0.00     0.180 HD
BRANCH   8  10
HETATM   10  S1  UNL     1      23.047  -4.879  11.450  1.00  0.00     0.267 S 
HETATM   11  O1  UNL     1      23.797  -5.322  12.088  1.00  0.00    -0.200 OA
HETATM   12  O2  UNL     1      22.523  -5.954  10.105  1.00  0.00    -0.200 OA
BRANCH  10  13
HETATM   13  C4  UNL     1      21.461  -4.354  12.666  1.00  0.00     0.115 A 
HETATM   14  C3  UNL     1      20.274  -3.999  12.169  1.00  0.00     0.030 A 
HETATM   15  C2  UNL     1      19.240  -3.582  13.023  1.00  0.00     0.031 A 
HETATM   16  C1  UNL     1      19.475  -3.549  14.359  1.00  0.00     0.082 A 
HETATM   17  N1  UNL     1      18.453  -3.134  15.242  1.00  0.00    -0.099 NA
HETATM   18  C11 UNL     1      20.710  -3.923  14.832  1.00  0.00     0.124 A 
HETATM   19  C10 UNL     1      21.745  -4.340  13.968  1.00  0.00     0.124 A 
BRANCH  18  20
HETATM   20  O10 UNL     1      20.918  -3.879  16.204  1.00  0.00    -0.356 OA
ATOM     21  H10 UNL     1      21.715  -3.468  16.518  1.00  0.00     0.218 HD
ENDBRANCH  18  20
BRANCH  19  22
HETATM   22  O9  UNL     1      22.920  -4.681  14.564  1.00  0.00    -0.356 OA
ATOM     23  H9  UNL     1      23.041  -5.089  15.413  1.00  0.00     0.218 HD
ENDBRANCH  19  22
ENDBRANCH  10  13
ENDBRANCH   8  10
ENDBRANCH   1   8
BRANCH   7  24
HETATM   24  C7  UNL     1      24.822  -0.395  10.180  1.00  0.00     0.338 C 
BRANCH  24  25
HETATM   25  O4  UNL     1      24.341   0.892   9.863  1.00  0.00    -0.364 OA
ATOM     26  H4  UNL     1      24.229   0.879   8.920  1.00  0.00     0.213 HD
ENDBRANCH  24  25
BRANCH  24  27
HETATM   27  O5  UNL     1      24.769  -0.601  11.543  1.00  0.00    -0.244 OA
BRANCH  27  28
HETATM   28  N5  UNL     1      23.751   0.015  12.158  1.00  0.00    -0.052 NA
HETATM   29  N6  UNL     1      24.196   1.224  12.711  1.00  0.00    -0.023 NA
HETATM   30  N7  UNL     1      23.323   1.501  13.770  1.00  0.00    -0.058 NA
HETATM   31  C8  UNL     1      23.115   0.223  14.381  1.00  0.00     0.299 C 
HETATM   32  C9  UNL     1      23.152  -0.735  13.214  1.00  0.00     0.321 C 
BRANCH  31  33
HETATM   33  O6  UNL     1      21.922   0.169  15.074  1.00  0.00    -0.348 OA
ATOM     34  H6  UNL     1      21.973  -0.411  15.826  1.00  0.00     0.214 HD
ENDBRANCH  31  33
BRANCH  31  35
HETATM   35  O7  UNL     1      24.148  -0.084  15.272  1.00  0.00    -0.348 OA
ATOM     36  H7  UNL     1      23.823  -0.155  16.162  1.00  0.00     0.214 HD
ENDBRANCH  31  35
BRANCH  32  37
HETATM   37  O8  UNL     1      23.818  -1.887  13.575  1.00  0.00    -0.371 OA
ATOM     38  H8  UNL     1      23.671  -2.638  13.012  1.00  0.00     0.212 HD
ENDBRANCH  32  37
ENDBRANCH  27  28
ENDBRANCH  24  27
ENDBRANCH   7  24
TORSDOF 12
ENDMDL
MODEL 2
REMARK VINA RESULT: -8.058254454      2.329      5.034
REMARK  12 active torsions:
REMARK  status: ('A' for Active; 'I' for Inactive)
REMARK    1  A    between atoms: C4_5  and  S1_6 
REMARK    2  A    between atoms: S1_6  and  N2_9 
REMARK    3  A    between atoms: N2_9  and  C5_11 
REMARK    4  A    between atoms: C6_17  and  C7_18 
REMARK    5  A    between atoms: C7_18  and  O4_19 
REMARK    6  A    between atoms: C7_18  and  O5_21 
REMARK    7  A    between atoms: O5_21  and  N5_22 
REMARK    8  A    between atoms: C8_25  and  O6_26 
REMARK    9  A    between atoms: C8_25  and  O7_28 
REMARK   10  A    between atoms: C9_30  and  O8_31 
REMARK   11  A    between atoms: C10_33  and  O9_34 
REMARK   12  A    between atoms: C11_36  and  O10_37 
ROOT
HETATM    1  C5  UNL     1      24.510  -2.390  10.532  1.00  0.00     0.167 A 
HETATM    2  N3  UNL     1      25.042  -3.320  11.321  1.00  0.00    -0.223 N 
ATOM      3  H3  UNL     1      25.551  -3.153  12.188  1.00  0.00     0.198 HD
HETATM    4  O3  UNL     1      24.799  -4.473  10.790  1.00  0.00    -0.155 OA
HETATM    5  N4  UNL     1      24.130  -4.357   9.688  1.00  0.00    -0.237 N 
ATOM      6  H4  UNL     1      23.818  -5.121   9.088  1.00  0.00     0.197 HD
HETATM    7  C6  UNL     1      23.920  -3.044   9.479  1.00  0.00     0.137 A 
ENDROOT
BRANCH   1   8
HETATM    8  N2  UNL     1      24.520  -1.157  10.685  1.00  0.00    -0.262 N 
ATOM      9  H2  UNL     1      25.150  -0.603  10.104  1.00  0.00     0.180 HD
BRANCH   8  10
HETATM   10  S1  UNL     1      23.368  -0.207  12.005  1.00  0.00     0.267 S 
HETATM   11  O1  UNL     1      22.483   0.053  11.444  1.00  0.00    -0.200 OA
HETATM   12  O2  UNL     1      24.188   1.212  12.749  1.00  0.00    -0.200 OA
BRANCH  10  13
HETATM   13  C4  UNL     1      22.790  -1.585  13.432  1.00  0.00     0.115 A 
HETATM   14  C3  UNL     1      22.019  -2.633  13.135  1.00  0.00     0.030 A 
HETATM   15  C2  UNL     1      21.589  -3.510  14.143  1.00  0.00     0.031 A 
HETATM   16  C1  UNL     1      21.975  -3.269  15.422  1.00  0.00     0.082 A 
HETATM   17  N1  UNL     1      21.558  -4.135  16.457  1.00  0.00    -0.099 NA
HETATM   18  C11 UNL     1      22.770  -2.180  15.688  1.00  0.00     0.124 A 
HETATM   19  C10 UNL     1      23.198  -1.302  14.669  1.00  0.00     0.124 A 
BRANCH  18  20
HETATM   20  O10 UNL     1      23.148  -1.961  17.005  1.00  0.00    -0.356 OA
ATOM     21  H10 UNL     1      22.679  -1.297  17.497  1.00  0.00     0.218 HD
ENDBRANCH  18  20
BRANCH  19  22
HETATM   22  O9  UNL     1      23.979  -0.261  15.067  1.00  0.00    -0.356 OA
ATOM     23  H9  UNL     1      24.324  -0.096  15.936  1.00  0.00     0.218 HD
ENDBRANCH  19  22
ENDBRANCH  10  13
ENDBRANCH   8  10
ENDBRANCH   1   8
BRANCH   7  24
HETATM   24  C7  UNL     1      23.180  -2.441   8.310  1.00  0.00     0.338 C 
BRANCH  24  25
HETATM   25  O4  UNL     1      22.045  -3.262   8.147  1.00  0.00    -0.364 OA
ATOM     26  H4  UNL     1      21.685  -3.008   7.305  1.00  0.00     0.213 HD
ENDBRANCH  24  25
BRANCH  24  27
HETATM   27  O5  UNL     1      22.796  -1.137   8.542  1.00  0.00    -0.244 OA
BRANCH  27  28
HETATM   28  N5  UNL     1      22.887  -0.334   7.472  1.00  0.00    -0.052 NA
HETATM   29  N6  UNL     1      23.570  -0.996   6.442  1.00  0.00    -0.023 NA
HETATM   30  N7  UNL     1      24.126   0.012   5.646  1.00  0.00    -0.058 NA
HETATM   31  C8  UNL     1      24.591   0.976   6.597  1.00  0.00     0.299 C 
HETATM   32  C9  UNL     1      23.572   0.895   7.708  1.00  0.00     0.321 C 
BRANCH  31  33
HETATM   33  O6  UNL     1      24.680   2.241   6.049  1.00  0.00    -0.348 OA
ATOM     34  H6  UNL     1      24.920   2.894   6.697  1.00  0.00     0.214 HD
ENDBRANCH  31  33
BRANCH  31  35
HETATM   35  O7  UNL     1      25.852   0.629   7.091  1.00  0.00    -0.348 OA
ATOM     36  H7  UNL     1      26.469   0.483   6.383  1.00  0.00     0.214 HD
ENDBRANCH  31  35
BRANCH  32  37
HETATM   37  O8  UNL     1      24.202   0.999   8.929  1.00  0.00    -0.371 OA
ATOM     38  H8  UNL     1      25.117   0.743   8.940  1.00  0.00     0.212 HD
ENDBRANCH  32  37
ENDBRANCH  27  28
ENDBRANCH  24  27
ENDBRANCH   7  24
TORSDOF 12
ENDMDL
MODEL 3
REMARK VINA RESULT: -8.023614202      2.105      5.123
REMARK  12 active torsions:
REMARK  status: ('A' for Active; 'I' for Inactive)
REMARK    1  A    between atoms: C4_5  and  S1_6 
REMARK    2  A    between atoms: S1_6  and  N2_9 
REMARK    3  A    between atoms: N2_9  and  C5_11 
REMARK    4  A    between atoms: C6_17  and  C7_18 
REMARK    5  A    between atoms: C7_18  and  O4_19 
REMARK    6  A    between atoms: C7_18  and  O5_21 
REMARK    7  A    between atoms: O5_21  and  N5_22 
REMARK    8  A    between atoms: C8_25  and  O6_26 
REMARK    9  A    between atoms: C8_25  and  O7_28 
REMARK   10  A    between atoms: C9_30  and  O8_31 
REMARK   11  A    between atoms: C10_33  and  O9_34 
REMARK   12  A    between atoms: C11_36  and  O10_37 
ROOT
HETATM    1  C5  UNL     1      20.070  -3.818  13.011  1.00  0.00     0.167 A 
HETATM    2  N3  UNL     1      18.932  -3.234  13.381  1.00  0.00    -0.223 N 
ATOM      3  H3  UNL     1      18.456  -3.358  14.274  1.00  0.00     0.198 HD
HETATM    4  O3  UNL     1      18.540  -2.482  12.406  1.00  0.00    -0.155 OA
HETATM    5  N4  UNL     1      19.361  -2.535  11.407  1.00  0.00    -0.237 N 
ATOM      6  H4  UNL     1      19.270  -2.030  10.524  1.00  0.00     0.197 HD
HETATM    7  C6  UNL     1      20.356  -3.376  11.743  1.00  0.00     0.137 A 
ENDROOT
BRANCH   1   8
HETATM    8  N2  UNL     1      20.770  -4.613  13.660  1.00  0.00    -0.262 N 
ATOM      9  H2  UNL     1      20.728  -5.603  13.418  1.00  0.00     0.180 HD
BRANCH   8  10
HETATM   10  S1  UNL     1      21.971  -4.053  15.149  1.00  0.00     0.267 S 
HETATM   11  O1  UNL     1      22.919  -4.510  14.910  1.00  0.00    -0.200 OA
HETATM   12  O2  UNL     1      21.337  -4.522  16.767  1.00  0.00    -0.200 OA
BRANCH  10  13
HETATM   13  C4  UNL     1      22.236  -2.009  15.001  1.00  0.00     0.115 A 
HETATM   14  C3  UNL     1      21.600  -1.151  15.802  1.00  0.00     0.030 A 
HETATM   15  C2  UNL     1      21.752   0.233  15.627  1.00  0.00     0.031 A 
HETATM   16  C1  UNL     1      22.557   0.677  14.628  1.00  0.00     0.082 A 
HETATM   17  N1  UNL     1      22.728   2.066  14.428  1.00  0.00    -0.099 NA
HETATM   18  C11 UNL     1      23.195  -0.237  13.824  1.00  0.00     0.124 A 
HETATM   19  C10 UNL     1      23.037  -1.628  14.006  1.00  0.00     0.124 A 
BRANCH  18  20
HETATM   20  O10 UNL     1      24.011   0.249  12.813  1.00  0.00    -0.356 OA
ATOM     21  H10 UNL     1      24.462  -0.383  12.266  1.00  0.00     0.218 HD
ENDBRANCH  18  20
BRANCH  19  22
HETATM   22  O9  UNL     1      23.722  -2.424  13.142  1.00  0.00    -0.356 OA
ATOM     23  H9  UNL     1      23.466  -3.279  12.816  1.00  0.00     0.218 HD
ENDBRANCH  19  22
ENDBRANCH  10  13
ENDBRANCH   8  10
ENDBRANCH   1   8
BRANCH   7  24
HETATM   24  C7  UNL     1      21.539  -3.740  10.880  1.00  0.00     0.338 C 
BRANCH  24  25
HETATM   25  O4  UNL     1      21.242  -5.031  10.397  1.00  0.00    -0.364 OA
ATOM     26  H4  UNL     1      21.915  -5.587  10.771  1.00  0.00     0.213 HD
ENDBRANCH  24  25
BRANCH  24  27
HETATM   27  O5  UNL     1      21.717  -2.866   9.828  1.00  0.00    -0.244 OA
BRANCH  27  28
HETATM   28  N5  UNL     1      22.619  -1.902  10.055  1.00  0.00    -0.052 NA
HETATM   29  N6  UNL     1      21.987  -0.787  10.621  1.00  0.00    -0.023 NA
HETATM   30  N7  UNL     1      22.791   0.311  10.295  1.00  0.00    -0.058 NA
HETATM   31  C8  UNL     1      23.184   0.055   8.942  1.00  0.00     0.299 C 
HETATM   32  C9  UNL     1      23.311  -1.449   8.892  1.00  0.00     0.321 C 
BRANCH  31  33
HETATM   33  O6  UNL     1      24.361   0.698   8.614  1.00  0.00    -0.348 OA
ATOM     34  H6  UNL     1      24.601   1.353   9.259  1.00  0.00     0.214 HD
ENDBRANCH  31  33
BRANCH  31  35
HETATM   35  O7  UNL     1      22.197   0.472   8.044  1.00  0.00    -0.348 OA
ATOM     36  H7  UNL     1      22.427   0.241   7.151  1.00  0.00     0.214 HD
ENDBRANCH  31  35
BRANCH  32  37
HETATM   37  O8  UNL     1      22.824  -1.920   7.691  1.00  0.00    -0.371 OA
ATOM     38  H8  UNL     1      22.228  -1.338   7.236  1.00  0.00     0.212 HD
ENDBRANCH  32  37
ENDBRANCH  27  28
ENDBRANCH  24  27
ENDBRANCH   7  24
TORSDOF 12
ENDMDL
MODEL 4
REMARK VINA RESULT: -7.975570934      1.905      2.372
REMARK  12 active torsions:
REMARK  status: ('A' for Active; 'I' for Inactive)
REMARK    1  A    between atoms: C4_5  and  S1_6 
REMARK    2  A    between atoms: S1_6  and  N2_9 
REMARK    3  A    between atoms: N2_9  and  C5_11 
REMARK    4  A    between atoms: C6_17  and  C7_18 
REMARK    5  A    between atoms: C7_18  and  O4_19 
REMARK    6  A    between atoms: C7_18  and  O5_21 
REMARK    7  A    between atoms: O5_21  and  N5_22 
REMARK    8  A    between atoms: C8_25  and  O6_26 
REMARK    9  A    between atoms: C8_25  and  O7_28 
REMARK   10  A    between atoms: C9_30  and  O8_31 
REMARK   11  A    between atoms: C10_33  and  O9_34 
REMARK   12  A    between atoms: C11_36  and  O10_37 
ROOT
HETATM    1  C5  UNL     1      24.535  -1.829  11.332  1.00  0.00     0.167 A 
HETATM    2  N3  UNL     1      25.604  -1.560  10.586  1.00  0.00    -0.223 N 
ATOM      3  H3  UNL     1      26.437  -2.141  10.498  1.00  0.00     0.198 HD
HETATM    4  O3  UNL     1      25.397  -0.430   9.994  1.00  0.00    -0.155 OA
HETATM    5  N4  UNL     1      24.243   0.065  10.307  1.00  0.00    -0.237 N 
ATOM      6  H4  UNL     1      23.851   0.944   9.968  1.00  0.00     0.197 HD
HETATM    7  C6  UNL     1      23.653  -0.792  11.161  1.00  0.00     0.137 A 
ENDROOT
BRANCH   1   8
HETATM    8  N2  UNL     1      24.335  -2.819  12.056  1.00  0.00    -0.262 N 
ATOM      9  H2  UNL     1      24.552  -2.743  13.050  1.00  0.00     0.180 HD
BRANCH   8  10
HETATM   10  S1  UNL     1      23.610  -4.546  11.374  1.00  0.00     0.267 S 
HETATM   11  O1  UNL     1      24.329  -5.281  11.702  1.00  0.00    -0.200 OA
HETATM   12  O2  UNL     1      23.354  -4.538   9.593  1.00  0.00    -0.200 OA
BRANCH  10  13
HETATM   13  C4  UNL     1      21.853  -4.929  12.393  1.00  0.00     0.115 A 
HETATM   14  C3  UNL     1      20.820  -5.547  11.817  1.00  0.00     0.030 A 
HETATM   15  C2  UNL     1      19.617  -5.729  12.518  1.00  0.00     0.031 A 
HETATM   16  C1  UNL     1      19.530  -5.264  13.790  1.00  0.00     0.082 A 
HETATM   17  N1  UNL     1      18.333  -5.433  14.520  1.00  0.00    -0.099 NA
HETATM   18  C11 UNL     1      20.616  -4.633  14.349  1.00  0.00     0.124 A 
HETATM   19  C10 UNL     1      21.822  -4.454  13.637  1.00  0.00     0.124 A 
BRANCH  18  20
HETATM   20  O10 UNL     1      20.496  -4.170  15.652  1.00  0.00    -0.356 OA
ATOM     21  H10 UNL     1      21.218  -4.334  16.248  1.00  0.00     0.218 HD
ENDBRANCH  18  20
BRANCH  19  22
HETATM   22  O9  UNL     1      22.819  -3.812  14.305  1.00  0.00    -0.356 OA
ATOM     23  H9  UNL     1      22.776  -2.968  14.738  1.00  0.00     0.218 HD
ENDBRANCH  19  22
ENDBRANCH  10  13
ENDBRANCH   8  10
ENDBRANCH   1   8
BRANCH   7  24
HETATM   24  C7  UNL     1      22.291  -0.620  11.788  1.00  0.00     0.338 C 
BRANCH  24  25
HETATM   25  O4  UNL     1      21.395  -1.171  10.849  1.00  0.00    -0.364 OA
ATOM     26  H4  UNL     1      20.838  -0.446  10.595  1.00  0.00     0.213 HD
ENDBRANCH  24  25
BRANCH  24  27
HETATM   27  O5  UNL     1      22.177  -1.274  12.997  1.00  0.00    -0.244 OA
BRANCH  27  28
HETATM   28  N5  UNL     1      22.594  -0.563  14.053  1.00  0.00    -0.052 NA
HETATM   29  N6  UNL     1      23.824  -1.061  14.502  1.00  0.00    -0.023 NA
HETATM   30  N7  UNL     1      23.904  -0.712  15.855  1.00  0.00    -0.058 NA
HETATM   31  C8  UNL     1      22.578  -0.940  16.343  1.00  0.00     0.299 C 
HETATM   32  C9  UNL     1      21.703  -0.575  15.167  1.00  0.00     0.321 C 
BRANCH  31  33
HETATM   33  O6  UNL     1      22.302  -0.184  17.465  1.00  0.00    -0.348 OA
ATOM     34  H6  UNL     1      21.586   0.423  17.318  1.00  0.00     0.214 HD
ENDBRANCH  31  33
BRANCH  31  35
HETATM   35  O7  UNL     1      22.385  -2.286  16.670  1.00  0.00    -0.348 OA
ATOM     36  H7  UNL     1      21.612  -2.401  17.209  1.00  0.00     0.214 HD
ENDBRANCH  31  35
BRANCH  32  37
HETATM   37  O8  UNL     1      20.650  -1.459  15.075  1.00  0.00    -0.371 OA
ATOM     38  H8  UNL     1      20.648  -2.161  15.715  1.00  0.00     0.212 HD
ENDBRANCH  32  37
ENDBRANCH  27  28
ENDBRANCH  24  27
ENDBRANCH   7  24
TORSDOF 12
ENDMDL
MODEL 5
REMARK VINA RESULT: -7.946921733      2.515      5.771
REMARK  12 active torsions:
REMARK  status: ('A' for Active; 'I' for Inactive)
REMARK    1  A    between atoms: C4_5  and  S1_6 
REMARK    2  A    between atoms: S1_6  and  N2_9 
REMARK    3  A    between atoms: N2_9  and  C5_11 
REMARK    4  A    between atoms: C6_17  and  C7_18 
REMARK    5  A    between atoms: C7_18  and  O4_19 
REMARK    6  A    between atoms: C7_18  and  O5_21 
REMARK    7  A    between atoms: O5_21  and  N5_22 
REMARK    8  A    between atoms: C8_25  and  O6_26 
REMARK    9  A    between atoms: C8_25  and  O7_28 
REMARK   10  A    between atoms: C9_30  and  O8_31 
REMARK   11  A    between atoms: C10_33  and  O9_34 
REMARK   12  A    between atoms: C11_36  and  O10_37 
ROOT
HETATM    1  C5  UNL     1      18.597  -3.576  13.374  1.00  0.00     0.167 A 
HETATM    2  N3  UNL     1      17.352  -3.723  12.926  1.00  0.00    -0.223 N 
ATOM      3  H3  UNL     1      16.950  -3.268  12.107  1.00  0.00     0.198 HD
HETATM    4  O3  UNL     1      16.745  -4.547  13.715  1.00  0.00    -0.155 OA
HETATM    5  N4  UNL     1      17.523  -4.956  14.664  1.00  0.00    -0.237 N 
ATOM      6  H4  UNL     1      17.276  -5.609  15.408  1.00  0.00     0.197 HD
HETATM    7  C6  UNL     1      18.719  -4.363  14.491  1.00  0.00     0.137 A 
ENDROOT
BRANCH   1   8
HETATM    8  N2  UNL     1      19.505  -2.872  12.899  1.00  0.00    -0.262 N 
ATOM      9  H2  UNL     1      19.634  -1.932  13.274  1.00  0.00     0.180 HD
BRANCH   8  10
HETATM   10  S1  UNL     1      20.721  -3.487  11.445  1.00  0.00     0.267 S 
HETATM   11  O1  UNL     1      20.142  -3.354  10.543  1.00  0.00    -0.200 OA
HETATM   12  O2  UNL     1      21.295  -5.176  11.686  1.00  0.00    -0.200 OA
BRANCH  10  13
HETATM   13  C4  UNL     1      22.298  -2.155  11.347  1.00  0.00     0.115 A 
HETATM   14  C3  UNL     1      22.109  -0.842  11.206  1.00  0.00     0.030 A 
HETATM   15  C2  UNL     1      23.205   0.026  11.074  1.00  0.00     0.031 A 
HETATM   16  C1  UNL     1      24.455  -0.500  11.093  1.00  0.00     0.082 A 
HETATM   17  N1  UNL     1      25.577   0.348  10.962  1.00  0.00    -0.099 NA
HETATM   18  C11 UNL     1      24.609  -1.858  11.240  1.00  0.00     0.124 A 
HETATM   19  C10 UNL     1      23.502  -2.724  11.372  1.00  0.00     0.124 A 
BRANCH  18  20
HETATM   20  O10 UNL     1      25.901  -2.365  11.257  1.00  0.00    -0.356 OA
ATOM     21  H10 UNL     1      26.006  -3.307  11.329  1.00  0.00     0.218 HD
ENDBRANCH  18  20
BRANCH  19  22
HETATM   22  O9  UNL     1      23.792  -4.046  11.509  1.00  0.00    -0.356 OA
ATOM     23  H9  UNL     1      24.360  -4.575  10.961  1.00  0.00     0.218 HD
ENDBRANCH  19  22
ENDBRANCH  10  13
ENDBRANCH   8  10
ENDBRANCH   1   8
BRANCH   7  24
HETATM   24  C7  UNL     1      19.934  -4.548  15.367  1.00  0.00     0.338 C 
BRANCH  24  25
HETATM   25  O4  UNL     1      20.902  -5.119  14.515  1.00  0.00    -0.364 OA
ATOM     26  H4  UNL     1      21.696  -5.141  15.036  1.00  0.00     0.213 HD
ENDBRANCH  24  25
BRANCH  24  27
HETATM   27  O5  UNL     1      20.399  -3.359  15.888  1.00  0.00    -0.244 OA
BRANCH  27  28
HETATM   28  N5  UNL     1      21.656  -3.054  15.539  1.00  0.00    -0.052 NA
HETATM   29  N6  UNL     1      22.541  -3.497  16.532  1.00  0.00    -0.023 NA
HETATM   30  N7  UNL     1      23.674  -2.682  16.421  1.00  0.00    -0.058 NA
HETATM   31  C8  UNL     1      23.132  -1.379  16.175  1.00  0.00     0.299 C 
HETATM   32  C9  UNL     1      21.901  -1.662  15.348  1.00  0.00     0.321 C 
BRANCH  31  33
HETATM   33  O6  UNL     1      24.032  -0.558  15.525  1.00  0.00    -0.348 OA
ATOM     34  H6  UNL     1      23.631   0.255  15.240  1.00  0.00     0.214 HD
ENDBRANCH  31  33
BRANCH  31  35
HETATM   35  O7  UNL     1      22.761  -0.754  17.370  1.00  0.00    -0.348 OA
ATOM     36  H7  UNL     1      23.509  -0.645  17.946  1.00  0.00     0.214 HD
ENDBRANCH  31  35
BRANCH  32  37
HETATM   37  O8  UNL     1      20.877  -0.822  15.732  1.00  0.00    -0.371 OA
ATOM     38  H8  UNL     1      20.310  -0.522  15.031  1.00  0.00     0.212 HD
ENDBRANCH  32  37
ENDBRANCH  27  28
ENDBRANCH  24  27
ENDBRANCH   7  24
TORSDOF 12
ENDMDL
