MODEL 1
REMARK VINA RESULT: -6.559632493      0.000      0.000
REMARK  15 active torsions:
REMARK  status: ('A' for Active; 'I' for Inactive)
REMARK    1  A    between atoms: C4_7  and  C5_8 
REMARK    2  A    between atoms: C5_8  and  O1_9 
REMARK    3  A    between atoms: C5_8  and  C6_11 
REMARK    4  A    between atoms: C7_13  and  N3_14 
REMARK    5  A    between atoms: N3_14  and  C8_17 
REMARK    6  A    between atoms: C8_17  and  O3_18 
REMARK    7  A    between atoms: C8_17  and  C9_20 
REMARK    8  A    between atoms: C10_23  and  O6_24 
REMARK    9  A    between atoms: C10_23  and  C11_26 
REMARK   10  A    between atoms: C12_27  and  N4_28 
REMARK   11  A    between atoms: N4_28  and  O7_29 
REMARK   12  A    between atoms: N4_28  and  N5_31 
REMARK   13  A    between atoms: N5_31  and  O8_32 
REMARK   14  A    between atoms: C13_34  and  O9_35 
REMARK   15  A    between atoms: C14_39  and  N7_40 
ROOT
HETATM    1  N1  UNL     1      24.914   1.772   5.642  1.00  0.00    -0.190 NA
HETATM    2  C1  UNL     1      24.636   1.154   6.600  1.00  0.00     0.121 C 
HETATM    3  C2  UNL     1      24.293   0.416   7.787  1.00  0.00     0.157 A 
HETATM    4  N2  UNL     1      23.108   0.601   8.396  1.00  0.00    -0.352 N 
ATOM      5  H2  UNL     1      22.431   1.268   8.024  1.00  0.00     0.166 HD
HETATM    6  C3  UNL     1      22.826  -0.114   9.515  1.00  0.00     0.117 A 
HETATM    7  C4  UNL     1      23.719  -1.022  10.038  1.00  0.00     0.058 A 
HETATM    8  N6  UNL     1      24.907  -1.218   9.440  1.00  0.00    -0.340 N 
ATOM      9  H6  UNL     1      25.582  -1.885   9.813  1.00  0.00     0.167 HD
HETATM   10  C14 UNL     1      25.177  -0.497   8.325  1.00  0.00     0.137 A 
ENDROOT
BRANCH  10  11
HETATM   11  N7  UNL     1      26.299  -0.679   7.754  1.00  0.00    -0.383 N 
ATOM     12  H72 UNL     1      26.485  -0.169   6.891  1.00  0.00     0.157 HD
ATOM     13  H71 UNL     1      26.969  -1.321   8.176  1.00  0.00     0.157 HD
ENDBRANCH  10  11
BRANCH   7  14
HETATM   14  C5  UNL     1      23.402  -1.800  11.270  1.00  0.00     0.201 C 
BRANCH  14  15
HETATM   15  O1  UNL     1      24.120  -1.251  12.334  1.00  0.00    -0.387 OA
ATOM     16  H1  UNL     1      24.364  -1.954  12.924  1.00  0.00     0.210 HD
ENDBRANCH  14  15
BRANCH  14  17
HETATM   17  C6  UNL     1      21.934  -1.664  11.619  1.00  0.00     0.192 C 
HETATM   18  O2  UNL     1      21.858  -1.214  12.923  1.00  0.00    -0.345 OA
HETATM   19  C7  UNL     1      21.439  -2.232  13.734  1.00  0.00     0.375 C 
HETATM   20  C10 UNL     1      20.394  -2.911  12.848  1.00  0.00     0.203 C 
HETATM   21  C13 UNL     1      21.226  -3.017  11.568  1.00  0.00     0.201 C 
BRANCH  19  22
HETATM   22  N3  UNL     1      20.911  -1.836  14.991  1.00  0.00    -0.008 N 
ATOM     23  H32 UNL     1      19.900  -1.713  14.952  1.00  0.00     0.284 HD
ATOM     24  H31 UNL     1      20.951  -2.596  15.670  1.00  0.00     0.284 HD
BRANCH  22  25
HETATM   25  C8  UNL     1      21.568  -0.653  15.483  1.00  0.00     0.424 C 
BRANCH  25  26
HETATM   26  O3  UNL     1      20.847  -0.017  16.485  1.00  0.00    -0.362 OA
ATOM     27  H3  UNL     1      21.106  -0.295  17.356  1.00  0.00     0.212 HD
ENDBRANCH  25  26
BRANCH  25  28
HETATM   28  C9  UNL     1      22.921  -1.000  15.982  1.00  0.00     0.232 C 
HETATM   29  O4  UNL     1      23.949  -0.522  15.397  1.00  0.00    -0.645 OA
HETATM   30  O5  UNL     1      23.140  -1.831  17.070  1.00  0.00    -0.645 OA
ENDBRANCH  25  28
ENDBRANCH  22  25
ENDBRANCH  19  22
BRANCH  20  31
HETATM   31  O6  UNL     1      19.313  -2.065  12.614  1.00  0.00    -0.371 OA
ATOM     32  H6  UNL     1      19.542  -1.383  11.994  1.00  0.00     0.212 HD
ENDBRANCH  20  31
BRANCH  20  33
HETATM   33  C11 UNL     1      20.025  -4.191  13.388  1.00  0.00    -0.034 C 
HETATM   34  C12 UNL     1      19.695  -5.261  13.842  1.00  0.00     0.061 C 
BRANCH  34  35
HETATM   35  N4  UNL     1      19.292  -6.501  14.354  1.00  0.00    -0.094 N 
BRANCH  35  36
HETATM   36  O7  UNL     1      19.105  -7.590  13.566  1.00  0.00    -0.262 OA
ATOM     37  H7  UNL     1      18.391  -8.202  13.700  1.00  0.00     0.247 HD
ENDBRANCH  35  36
BRANCH  35  38
HETATM   38  N5  UNL     1      19.072  -6.628  15.728  1.00  0.00     0.056 NA
BRANCH  38  39
HETATM   39  O8  UNL     1      19.803  -5.760  16.449  1.00  0.00    -0.275 OA
ATOM     40  H8  UNL     1      20.079  -6.122  17.283  1.00  0.00     0.240 HD
ENDBRANCH  38  39
ENDBRANCH  35  38
ENDBRANCH  34  35
ENDBRANCH  20  33
BRANCH  21  41
HETATM   41  O9  UNL     1      20.456  -3.178  10.447  1.00  0.00    -0.389 OA
ATOM     42  H9  UNL     1      19.525  -3.103  10.621  1.00  0.00     0.210 HD
ENDBRANCH  21  41
ENDBRANCH  14  17
ENDBRANCH   7  14
TORSDOF 15
ENDMDL
MODEL 2
REMARK VINA RESULT: -6.382050843      4.047      8.802
REMARK  15 active torsions:
REMARK  status: ('A' for Active; 'I' for Inactive)
REMARK    1  A    between atoms: C4_7  and  C5_8 
REMARK    2  A    between atoms: C5_8  and  O1_9 
REMARK    3  A    between atoms: C5_8  and  C6_11 
REMARK    4  A    between atoms: C7_13  and  N3_14 
REMARK    5  A    between atoms: N3_14  and  C8_17 
REMARK    6  A    between atoms: C8_17  and  O3_18 
REMARK    7  A    between atoms: C8_17  and  C9_20 
REMARK    8  A    between atoms: C10_23  and  O6_24 
REMARK    9  A    between atoms: C10_23  and  C11_26 
REMARK   10  A    between atoms: C12_27  and  N4_28 
REMARK   11  A    between atoms: N4_28  and  O7_29 
REMARK   12  A    between atoms: N4_28  and  N5_31 
REMARK   13  A    between atoms: N5_31  and  O8_32 
REMARK   14  A    between atoms: C13_34  and  O9_35 
REMARK   15  A    between atoms: C14_39  and  N7_40 
ROOT
HETATM    1  N1  UNL     1      22.268  -3.534  16.646  1.00  0.00    -0.190 NA
HETATM    2  C1  UNL     1      22.518  -2.867  15.714  1.00  0.00     0.121 C 
HETATM    3  C2  UNL     1      22.805  -2.037  14.574  1.00  0.00     0.157 A 
HETATM    4  N2  UNL     1      22.867  -0.698  14.692  1.00  0.00    -0.352 N 
ATOM      5  H2  UNL     1      22.714  -0.249  15.596  1.00  0.00     0.166 HD
HETATM    6  C3  UNL     1      23.138   0.047  13.590  1.00  0.00     0.117 A 
HETATM    7  C4  UNL     1      23.351  -0.532  12.360  1.00  0.00     0.058 A 
HETATM    8  N6  UNL     1      23.293  -1.869  12.226  1.00  0.00    -0.340 N 
ATOM      9  H6  UNL     1      23.447  -2.316  11.322  1.00  0.00     0.167 HD
HETATM   10  C14 UNL     1      23.021  -2.601  13.333  1.00  0.00     0.137 A 
ENDROOT
BRANCH  10  11
HETATM   11  N7  UNL     1      22.964  -3.866  13.212  1.00  0.00    -0.383 N 
ATOM     12  H72 UNL     1      22.731  -4.249  12.297  1.00  0.00     0.157 HD
ATOM     13  H71 UNL     1      23.153  -4.449  14.028  1.00  0.00     0.157 HD
ENDBRANCH  10  11
BRANCH   7  14
HETATM   14  C5  UNL     1      23.645   0.295  11.154  1.00  0.00     0.201 C 
BRANCH  14  15
HETATM   15  O1  UNL     1      24.969   0.729  11.230  1.00  0.00    -0.387 OA
ATOM     16  H1  UNL     1      24.999   1.646  10.983  1.00  0.00     0.210 HD
ENDBRANCH  14  15
BRANCH  14  17
HETATM   17  C6  UNL     1      23.533  -0.544   9.897  1.00  0.00     0.192 C 
HETATM   18  O2  UNL     1      24.747  -1.176   9.712  1.00  0.00    -0.345 OA
HETATM   19  C7  UNL     1      25.408  -0.599   8.663  1.00  0.00     0.375 C 
HETATM   20  C10 UNL     1      24.257  -0.338   7.690  1.00  0.00     0.203 C 
HETATM   21  C13 UNL     1      23.289   0.332   8.669  1.00  0.00     0.201 C 
BRANCH  19  22
HETATM   22  N3  UNL     1      26.442  -1.381   8.085  1.00  0.00    -0.008 N 
ATOM     23  H32 UNL     1      26.352  -2.365   8.336  1.00  0.00     0.284 HD
ATOM     24  H31 UNL     1      26.328  -1.466   7.075  1.00  0.00     0.284 HD
BRANCH  22  25
HETATM   25  C8  UNL     1      27.740  -0.864   8.429  1.00  0.00     0.424 C 
BRANCH  25  26
HETATM   26  O3  UNL     1      27.893   0.474   8.084  1.00  0.00    -0.362 OA
ATOM     27  H3  UNL     1      27.753   1.060   8.818  1.00  0.00     0.212 HD
ENDBRANCH  25  26
BRANCH  25  28
HETATM   28  C9  UNL     1      27.982  -1.037   9.882  1.00  0.00     0.232 C 
HETATM   29  O4  UNL     1      28.289  -2.189  10.335  1.00  0.00    -0.645 OA
HETATM   30  O5  UNL     1      27.892   0.001  10.797  1.00  0.00    -0.645 OA
ENDBRANCH  25  28
ENDBRANCH  22  25
ENDBRANCH  19  22
BRANCH  20  31
HETATM   31  O6  UNL     1      23.697  -1.533   7.248  1.00  0.00    -0.371 OA
ATOM     32  H6  UNL     1      22.799  -1.404   6.967  1.00  0.00     0.212 HD
ENDBRANCH  20  31
BRANCH  20  33
HETATM   33  C11 UNL     1      24.678   0.535   6.629  1.00  0.00    -0.034 C 
HETATM   34  C12 UNL     1      25.042   1.252   5.727  1.00  0.00     0.061 C 
BRANCH  34  35
HETATM   35  N4  UNL     1      25.457   2.066   4.664  1.00  0.00    -0.094 N 
BRANCH  35  36
HETATM   36  O7  UNL     1      24.587   2.795   3.920  1.00  0.00    -0.262 OA
ATOM     37  H7  UNL     1      24.795   3.663   3.595  1.00  0.00     0.247 HD
ENDBRANCH  35  36
BRANCH  35  38
HETATM   38  N5  UNL     1      26.818   2.133   4.355  1.00  0.00     0.056 NA
BRANCH  38  39
HETATM   39  O8  UNL     1      27.599   1.732   5.373  1.00  0.00    -0.275 OA
ATOM     40  H8  UNL     1      27.211   1.909   6.222  1.00  0.00     0.240 HD
ENDBRANCH  38  39
ENDBRANCH  35  38
ENDBRANCH  34  35
ENDBRANCH  20  33
BRANCH  21  41
HETATM   41  O9  UNL     1      21.990   0.299   8.235  1.00  0.00    -0.389 OA
ATOM     42  H9  UNL     1      21.842  -0.343   7.550  1.00  0.00     0.210 HD
ENDBRANCH  21  41
ENDBRANCH  14  17
ENDBRANCH   7  14
TORSDOF 15
ENDMDL
MODEL 3
REMARK VINA RESULT: -6.273911990      2.398      4.555
REMARK  15 active torsions:
REMARK  status: ('A' for Active; 'I' for Inactive)
REMARK    1  A    between atoms: C4_7  and  C5_8 
REMARK    2  A    between atoms: C5_8  and  O1_9 
REMARK    3  A    between atoms: C5_8  and  C6_11 
REMARK    4  A    between atoms: C7_13  and  N3_14 
REMARK    5  A    between atoms: N3_14  and  C8_17 
REMARK    6  A    between atoms: C8_17  and  O3_18 
REMARK    7  A    between atoms: C8_17  and  C9_20 
REMARK    8  A    between atoms: C10_23  and  O6_24 
REMARK    9  A    between atoms: C10_23  and  C11_26 
REMARK   10  A    between atoms: C12_27  and  N4_28 
REMARK   11  A    between atoms: N4_28  and  O7_29 
REMARK   12  A    between atoms: N4_28  and  N5_31 
REMARK   13  A    between atoms: N5_31  and  O8_32 
REMARK   14  A    between atoms: C13_34  and  O9_35 
REMARK   15  A    between atoms: C14_39  and  N7_40 
ROOT
HETATM    1  N1  UNL     1      26.823   0.039   5.786  1.00  0.00    -0.190 NA
HETATM    2  C1  UNL     1      26.092  -0.003   6.703  1.00  0.00     0.121 C 
HETATM    3  C2  UNL     1      25.199  -0.032   7.831  1.00  0.00     0.157 A 
HETATM    4  N2  UNL     1      24.089   0.729   7.852  1.00  0.00    -0.352 N 
ATOM      5  H2  UNL     1      23.862   1.337   7.066  1.00  0.00     0.166 HD
HETATM    6  C3  UNL     1      23.275   0.672   8.938  1.00  0.00     0.117 A 
HETATM    7  C4  UNL     1      23.556  -0.141  10.011  1.00  0.00     0.058 A 
HETATM    8  N6  UNL     1      24.661  -0.908  10.004  1.00  0.00    -0.340 N 
ATOM      9  H6  UNL     1      24.886  -1.517  10.791  1.00  0.00     0.167 HD
HETATM   10  C14 UNL     1      25.466  -0.842   8.916  1.00  0.00     0.137 A 
ENDROOT
BRANCH  10  11
HETATM   11  N7  UNL     1      26.512  -1.565   8.904  1.00  0.00    -0.383 N 
ATOM     12  H72 UNL     1      27.261  -1.310   8.260  1.00  0.00     0.157 HD
ATOM     13  H71 UNL     1      26.566  -2.366   9.532  1.00  0.00     0.157 HD
ENDBRANCH  10  11
BRANCH   7  14
HETATM   14  C5  UNL     1      22.658  -0.194  11.201  1.00  0.00     0.201 C 
BRANCH  14  15
HETATM   15  O1  UNL     1      21.958  -1.401  11.171  1.00  0.00    -0.387 OA
ATOM     16  H1  UNL     1      22.062  -1.785  10.308  1.00  0.00     0.210 HD
ENDBRANCH  14  15
BRANCH  14  17
HETATM   17  C6  UNL     1      23.472  -0.194  12.479  1.00  0.00     0.192 C 
HETATM   18  O2  UNL     1      23.403  -1.466  13.013  1.00  0.00    -0.345 OA
HETATM   19  C7  UNL     1      22.600  -1.455  14.119  1.00  0.00     0.375 C 
HETATM   20  C10 UNL     1      22.987  -0.121  14.759  1.00  0.00     0.203 C 
HETATM   21  C13 UNL     1      22.876   0.761  13.513  1.00  0.00     0.201 C 
BRANCH  19  22
HETATM   22  N3  UNL     1      22.763  -2.551  15.006  1.00  0.00    -0.008 N 
ATOM     23  H32 UNL     1      23.747  -2.772  15.152  1.00  0.00     0.284 HD
ATOM     24  H31 UNL     1      22.516  -2.299  15.963  1.00  0.00     0.284 HD
BRANCH  22  25
HETATM   25  C8  UNL     1      22.024  -3.701  14.555  1.00  0.00     0.424 C 
BRANCH  25  26
HETATM   26  O3  UNL     1      22.802  -4.850  14.499  1.00  0.00    -0.362 OA
ATOM     27  H3  UNL     1      23.727  -4.662  14.395  1.00  0.00     0.212 HD
ENDBRANCH  25  26
BRANCH  25  28
HETATM   28  C9  UNL     1      20.857  -3.928  15.442  1.00  0.00     0.232 C 
HETATM   29  O4  UNL     1      21.017  -4.552  16.542  1.00  0.00    -0.645 OA
HETATM   30  O5  UNL     1      19.575  -3.494  15.139  1.00  0.00    -0.645 OA
ENDBRANCH  25  28
ENDBRANCH  22  25
ENDBRANCH  19  22
BRANCH  20  31
HETATM   31  O6  UNL     1      24.314  -0.138  15.182  1.00  0.00    -0.371 OA
ATOM     32  H6  UNL     1      24.384  -0.483  16.064  1.00  0.00     0.212 HD
ENDBRANCH  20  31
BRANCH  20  33
HETATM   33  C11 UNL     1      22.052   0.239  15.789  1.00  0.00    -0.034 C 
HETATM   34  C12 UNL     1      21.281   0.538  16.670  1.00  0.00     0.061 C 
BRANCH  34  35
HETATM   35  N4  UNL     1      20.405   0.897  17.702  1.00  0.00    -0.094 N 
BRANCH  35  36
HETATM   36  O7  UNL     1      19.222   1.523  17.471  1.00  0.00    -0.262 OA
ATOM     37  H7  UNL     1      18.430   1.313  17.953  1.00  0.00     0.247 HD
ENDBRANCH  35  36
BRANCH  35  38
HETATM   38  N5  UNL     1      20.756   0.604  19.022  1.00  0.00     0.056 NA
BRANCH  38  39
HETATM   39  O8  UNL     1      19.788   0.928  19.897  1.00  0.00    -0.275 OA
ATOM     40  H8  UNL     1      20.132   1.313  20.695  1.00  0.00     0.240 HD
ENDBRANCH  38  39
ENDBRANCH  35  38
ENDBRANCH  34  35
ENDBRANCH  20  33
BRANCH  21  41
HETATM   41  O9  UNL     1      23.577   1.932  13.628  1.00  0.00    -0.389 OA
ATOM     42  H9  UNL     1      24.504   1.831  13.445  1.00  0.00     0.210 HD
ENDBRANCH  21  41
ENDBRANCH  14  17
ENDBRANCH   7  14
TORSDOF 15
ENDMDL
MODEL 4
REMARK VINA RESULT: -6.224944794      0.916      1.557
REMARK  15 active torsions:
REMARK  status: ('A' for Active; 'I' for Inactive)
REMARK    1  A    between atoms: C4_7  and  C5_8 
REMARK    2  A    between atoms: C5_8  and  O1_9 
REMARK    3  A    between atoms: C5_8  and  C6_11 
REMARK    4  A    between atoms: C7_13  and  N3_14 
REMARK    5  A    between atoms: N3_14  and  C8_17 
REMARK    6  A    between atoms: C8_17  and  O3_18 
REMARK    7  A    between atoms: C8_17  and  C9_20 
REMARK    8  A    between atoms: C10_23  and  O6_24 
REMARK    9  A    between atoms: C10_23  and  C11_26 
REMARK   10  A    between atoms: C12_27  and  N4_28 
REMARK   11  A    between atoms: N4_28  and  O7_29 
REMARK   12  A    between atoms: N4_28  and  N5_31 
REMARK   13  A    between atoms: N5_31  and  O8_32 
REMARK   14  A    between atoms: C13_34  and  O9_35 
REMARK   15  A    between atoms: C14_39  and  N7_40 
ROOT
HETATM    1  N1  UNL     1      25.570   1.209   5.747  1.00  0.00    -0.190 NA
HETATM    2  C1  UNL     1      25.275   0.590   6.699  1.00  0.00     0.121 C 
HETATM    3  C2  UNL     1      24.918  -0.189   7.854  1.00  0.00     0.157 A 
HETATM    4  N2  UNL     1      25.787  -1.063   8.395  1.00  0.00    -0.352 N 
ATOM      5  H2  UNL     1      26.717  -1.184   7.993  1.00  0.00     0.166 HD
HETATM    6  C3  UNL     1      25.407  -1.779   9.484  1.00  0.00     0.117 A 
HETATM    7  C4  UNL     1      24.160  -1.634  10.046  1.00  0.00     0.058 A 
HETATM    8  N6  UNL     1      23.280  -0.765   9.518  1.00  0.00    -0.340 N 
ATOM      9  H6  UNL     1      22.351  -0.644   9.921  1.00  0.00     0.167 HD
HETATM   10  C14 UNL     1      23.671  -0.057   8.431  1.00  0.00     0.137 A 
ENDROOT
BRANCH  10  11
HETATM   11  N7  UNL     1      22.843   0.767   7.927  1.00  0.00    -0.383 N 
ATOM     12  H72 UNL     1      22.674   1.641   8.424  1.00  0.00     0.157 HD
ATOM     13  H71 UNL     1      22.380   0.527   7.050  1.00  0.00     0.157 HD
ENDBRANCH  10  11
BRANCH   7  14
HETATM   14  C5  UNL     1      23.750  -2.429  11.240  1.00  0.00     0.201 C 
BRANCH  14  15
HETATM   15  O1  UNL     1      24.604  -2.106  12.296  1.00  0.00    -0.387 OA
ATOM     16  H1  UNL     1      25.499  -2.241  12.009  1.00  0.00     0.210 HD
ENDBRANCH  14  15
BRANCH  14  17
HETATM   17  C6  UNL     1      22.352  -2.044  11.677  1.00  0.00     0.192 C 
HETATM   18  O2  UNL     1      22.421  -1.670  13.005  1.00  0.00    -0.345 OA
HETATM   19  C7  UNL     1      21.854  -2.640  13.784  1.00  0.00     0.375 C 
HETATM   20  C10 UNL     1      20.661  -3.058  12.923  1.00  0.00     0.203 C 
HETATM   21  C13 UNL     1      21.400  -3.237  11.595  1.00  0.00     0.201 C 
BRANCH  19  22
HETATM   22  N3  UNL     1      21.468  -2.232  15.088  1.00  0.00    -0.008 N 
ATOM     23  H32 UNL     1      21.169  -1.258  15.102  1.00  0.00     0.284 HD
ATOM     24  H31 UNL     1      20.592  -2.670  15.374  1.00  0.00     0.284 HD
BRANCH  22  25
HETATM   25  C8  UNL     1      22.518  -2.477  16.042  1.00  0.00     0.424 C 
BRANCH  25  26
HETATM   26  O3  UNL     1      23.496  -3.335  15.555  1.00  0.00    -0.362 OA
ATOM     27  H3  UNL     1      23.581  -3.296  14.610  1.00  0.00     0.212 HD
ENDBRANCH  25  26
BRANCH  25  28
HETATM   28  C9  UNL     1      23.136  -1.192  16.450  1.00  0.00     0.232 C 
HETATM   29  O4  UNL     1      24.026  -0.659  15.707  1.00  0.00    -0.645 OA
HETATM   30  O5  UNL     1      22.797  -0.520  17.615  1.00  0.00    -0.645 OA
ENDBRANCH  25  28
ENDBRANCH  22  25
ENDBRANCH  19  22
BRANCH  20  31
HETATM   31  O6  UNL     1      19.749  -2.014  12.795  1.00  0.00    -0.371 OA
ATOM     32  H6  UNL     1      19.120  -2.023  13.506  1.00  0.00     0.212 HD
ENDBRANCH  20  31
BRANCH  20  33
HETATM   33  C11 UNL     1      20.083  -4.278  13.415  1.00  0.00    -0.034 C 
HETATM   34  C12 UNL     1      19.582  -5.293  13.840  1.00  0.00     0.061 C 
BRANCH  34  35
HETATM   35  N4  UNL     1      18.978  -6.459  14.327  1.00  0.00    -0.094 N 
BRANCH  35  36
HETATM   36  O7  UNL     1      18.091  -7.182  13.597  1.00  0.00    -0.262 OA
ATOM     37  H7  UNL     1      17.538  -6.790  12.930  1.00  0.00     0.247 HD
ENDBRANCH  35  36
BRANCH  35  38
HETATM   38  N5  UNL     1      19.298  -6.900  15.613  1.00  0.00     0.056 NA
BRANCH  38  39
HETATM   39  O8  UNL     1      19.596  -5.888  16.447  1.00  0.00    -0.275 OA
ATOM     40  H8  UNL     1      20.529  -5.719  16.496  1.00  0.00     0.240 HD
ENDBRANCH  38  39
ENDBRANCH  35  38
ENDBRANCH  34  35
ENDBRANCH  20  33
BRANCH  21  41
HETATM   41  O9  UNL     1      20.563  -3.183  10.512  1.00  0.00    -0.389 OA
ATOM     42  H9  UNL     1      20.153  -2.333  10.401  1.00  0.00     0.210 HD
ENDBRANCH  21  41
ENDBRANCH  14  17
ENDBRANCH   7  14
TORSDOF 15
ENDMDL
MODEL 5
REMARK VINA RESULT: -6.114243719      0.853      1.376
REMARK  15 active torsions:
REMARK  status: ('A' for Active; 'I' for Inactive)
REMARK    1  A    between atoms: C4_7  and  C5_8 
REMARK    2  A    between atoms: C5_8  and  O1_9 
REMARK    3  A    between atoms: C5_8  and  C6_11 
REMARK    4  A    between atoms: C7_13  and  N3_14 
REMARK    5  A    between atoms: N3_14  and  C8_17 
REMARK    6  A    between atoms: C8_17  and  O3_18 
REMARK    7  A    between atoms: C8_17  and  C9_20 
REMARK    8  A    between atoms: C10_23  and  O6_24 
REMARK    9  A    between atoms: C10_23  and  C11_26 
REMARK   10  A    between atoms: C12_27  and  N4_28 
REMARK   11  A    between atoms: N4_28  and  O7_29 
REMARK   12  A    between atoms: N4_28  and  N5_31 
REMARK   13  A    between atoms: N5_31  and  O8_32 
REMARK   14  A    between atoms: C13_34  and  O9_35 
REMARK   15  A    between atoms: C14_39  and  N7_40 
ROOT
HETATM    1  N1  UNL     1      24.937   1.763   5.637  1.00  0.00    -0.190 NA
HETATM    2  C1  UNL     1      24.675   1.085   6.558  1.00  0.00     0.121 C 
HETATM    3  C2  UNL     1      24.349   0.272   7.700  1.00  0.00     0.157 A 
HETATM    4  N2  UNL     1      23.126   0.326   8.259  1.00  0.00    -0.352 N 
ATOM      5  H2  UNL     1      22.409   0.944   7.879  1.00  0.00     0.166 HD
HETATM    6  C3  UNL     1      22.862  -0.456   9.337  1.00  0.00     0.117 A 
HETATM    7  C4  UNL     1      23.810  -1.300   9.869  1.00  0.00     0.058 A 
HETATM    8  N6  UNL     1      25.036  -1.365   9.321  1.00  0.00    -0.340 N 
ATOM      9  H6  UNL     1      25.752  -1.984   9.701  1.00  0.00     0.167 HD
HETATM   10  C14 UNL     1      25.288  -0.579   8.246  1.00  0.00     0.137 A 
ENDROOT
BRANCH  10  11
HETATM   11  N7  UNL     1      26.446  -0.637   7.724  1.00  0.00    -0.383 N 
ATOM     12  H72 UNL     1      26.526  -1.010   6.778  1.00  0.00     0.157 HD
ATOM     13  H71 UNL     1      27.248  -0.311   8.263  1.00  0.00     0.157 HD
ENDBRANCH  10  11
BRANCH   7  14
HETATM   14  C5  UNL     1      23.511  -2.152  11.056  1.00  0.00     0.201 C 
BRANCH  14  15
HETATM   15  O1  UNL     1      24.408  -1.820  12.072  1.00  0.00    -0.387 OA
ATOM     16  H1  UNL     1      23.982  -1.969  12.908  1.00  0.00     0.210 HD
ENDBRANCH  14  15
BRANCH  14  17
HETATM   17  C6  UNL     1      22.123  -1.855  11.585  1.00  0.00     0.192 C 
HETATM   18  O2  UNL     1      22.257  -1.468  12.904  1.00  0.00    -0.345 OA
HETATM   19  C7  UNL     1      21.807  -2.468  13.722  1.00  0.00     0.375 C 
HETATM   20  C10 UNL     1      20.588  -2.966  12.944  1.00  0.00     0.203 C 
HETATM   21  C13 UNL     1      21.246  -3.106  11.569  1.00  0.00     0.201 C 
BRANCH  19  22
HETATM   22  N3  UNL     1      21.484  -2.078  15.047  1.00  0.00    -0.008 N 
ATOM     23  H32 UNL     1      21.294  -1.078  15.108  1.00  0.00     0.284 HD
ATOM     24  H31 UNL     1      20.568  -2.428  15.329  1.00  0.00     0.284 HD
BRANCH  22  25
HETATM   25  C8  UNL     1      22.511  -2.478  15.973  1.00  0.00     0.424 C 
BRANCH  25  26
HETATM   26  O3  UNL     1      23.400  -3.394  15.425  1.00  0.00    -0.362 OA
ATOM     27  H3  UNL     1      23.838  -3.919  16.084  1.00  0.00     0.212 HD
ENDBRANCH  25  26
BRANCH  25  28
HETATM   28  C9  UNL     1      23.251  -1.284  16.450  1.00  0.00     0.232 C 
HETATM   29  O4  UNL     1      23.983  -0.632  15.635  1.00  0.00    -0.645 OA
HETATM   30  O5  UNL     1      23.193  -0.825  17.758  1.00  0.00    -0.645 OA
ENDBRANCH  25  28
ENDBRANCH  22  25
ENDBRANCH  19  22
BRANCH  20  31
HETATM   31  O6  UNL     1      19.605  -1.983  12.875  1.00  0.00    -0.371 OA
ATOM     32  H6  UNL     1      18.958  -2.194  12.213  1.00  0.00     0.212 HD
ENDBRANCH  20  31
BRANCH  20  33
HETATM   33  C11 UNL     1      20.123  -4.218  13.476  1.00  0.00    -0.034 C 
HETATM   34  C12 UNL     1      19.749  -5.270  13.938  1.00  0.00     0.061 C 
BRANCH  34  35
HETATM   35  N4  UNL     1      19.319  -6.481  14.495  1.00  0.00    -0.094 N 
BRANCH  35  36
HETATM   36  O7  UNL     1      19.334  -6.715  15.833  1.00  0.00    -0.262 OA
ATOM     37  H7  UNL     1      20.136  -6.890  16.311  1.00  0.00     0.247 HD
ENDBRANCH  35  36
BRANCH  35  38
HETATM   38  N5  UNL     1      18.856  -7.490  13.648  1.00  0.00     0.056 NA
BRANCH  38  39
HETATM   39  O8  UNL     1      17.668  -7.193  13.093  1.00  0.00    -0.275 OA
ATOM     40  H8  UNL     1      17.218  -6.491  13.549  1.00  0.00     0.240 HD
ENDBRANCH  38  39
ENDBRANCH  35  38
ENDBRANCH  34  35
ENDBRANCH  20  33
BRANCH  21  41
HETATM   41  O9  UNL     1      20.337  -3.112  10.545  1.00  0.00    -0.389 OA
ATOM     42  H9  UNL     1      19.559  -3.621  10.740  1.00  0.00     0.210 HD
ENDBRANCH  21  41
ENDBRANCH  14  17
ENDBRANCH   7  14
TORSDOF 15
ENDMDL
