MODEL 1
REMARK VINA RESULT: -8.157112029      0.000      0.000
REMARK  8 active torsions:
REMARK  status: ('A' for Active; 'I' for Inactive)
REMARK    1  A    between atoms: C3_3  and  C5_5 
REMARK    2  A    between atoms: C5_5  and  C6_6 
REMARK    3  A    between atoms: C5_5  and  N2_27 
REMARK    4  A    between atoms: C7_7  and  C8_8 
REMARK    5  A    between atoms: C10_10  and  C11_11 
REMARK    6  A    between atoms: N1_18  and  C18_19 
REMARK    7  A    between atoms: C18_19  and  C20_21 
REMARK    8  A    between atoms: N2_27  and  C23_29 
ROOT
HETATM    1  C11 UNL     1      35.708  23.264   6.907  1.00  0.00     0.026 C 
HETATM    2  C12 UNL     1      36.679  23.644   5.797  1.00  0.00    -0.010 C 
HETATM    3  C13 UNL     1      37.222  22.359   5.192  1.00  0.00     0.010 C 
HETATM    4  C14 UNL     1      37.794  24.523   6.251  1.00  0.00     0.005 C 
HETATM    5  C15 UNL     1      38.103  24.462   7.708  1.00  0.00     0.007 C 
HETATM    6  C16 UNL     1      36.925  24.549   8.613  1.00  0.00     0.017 C 
HETATM    7  C17 UNL     1      36.783  25.958   9.207  1.00  0.00     0.132 C 
HETATM    8  N1  UNL     1      36.152  26.645   8.097  1.00  0.00    -0.337 N 
HETATM    9  C21 UNL     1      35.400  25.706   7.301  1.00  0.00     0.225 C 
HETATM   10  O3  UNL     1      34.737  26.060   6.294  1.00  0.00    -0.273 OA
HETATM   11  C22 UNL     1      35.607  24.393   7.923  1.00  0.00     0.091 C 
ENDROOT
BRANCH   1  12
HETATM   12  C10 UNL     1      34.383  22.943   6.400  1.00  0.00    -0.014 C 
HETATM   13  C8  UNL     1      33.495  22.141   6.965  1.00  0.00    -0.066 C 
HETATM   14  C9  UNL     1      32.219  22.015   6.186  1.00  0.00     0.048 C 
BRANCH  13  15
HETATM   15  C7  UNL     1      33.759  21.464   8.206  1.00  0.00     0.005 C 
HETATM   16  C6  UNL     1      33.108  21.340   9.307  1.00  0.00     0.003 C 
BRANCH  16  17
HETATM   17  C5  UNL     1      31.810  21.838   9.775  1.00  0.00     0.128 C 
BRANCH  17  18
HETATM   18  C3  UNL     1      31.140  20.821  10.665  1.00  0.00    -0.062 C 
HETATM   19  C2  UNL     1      31.488  19.550  10.684  1.00  0.00    -0.026 C 
HETATM   20  C1  UNL     1      30.873  18.521  11.527  1.00  0.00     0.036 C 
HETATM   21  C4  UNL     1      30.049  21.289  11.545  1.00  0.00     0.045 C 
ENDBRANCH  17  18
BRANCH  17  22
HETATM   22  N2  UNL     1      31.748  23.145  10.268  1.00  0.00    -0.407 N 
ATOM     23  H2  UNL     1      31.099  23.773   9.795  1.00  0.00     0.154 HD
BRANCH  22  24
HETATM   24  C23 UNL     1      32.456  23.683  11.312  1.00  0.00     0.069 C 
HETATM   25  C24 UNL     1      31.710  24.438  12.390  1.00  0.00     0.031 C 
HETATM   26  C25 UNL     1      33.697  24.503  11.028  1.00  0.00     0.031 C 
ENDBRANCH  22  24
ENDBRANCH  17  22
ENDBRANCH  16  17
ENDBRANCH  13  15
ENDBRANCH   1  12
BRANCH   8  27
HETATM   27  C18 UNL     1      36.286  28.068   7.860  1.00  0.00     0.184 C 
HETATM   28  C19 UNL     1      37.643  28.334   7.209  1.00  0.00     0.044 C 
BRANCH  27  29
HETATM   29  C20 UNL     1      36.218  28.835   9.122  1.00  0.00     0.196 C 
HETATM   30  O1  UNL     1      37.199  29.529   9.460  1.00  0.00    -0.646 OA
HETATM   31  O2  UNL     1      35.091  28.788   9.915  1.00  0.00    -0.646 OA
ENDBRANCH  27  29
ENDBRANCH   8  27
TORSDOF 8
ENDMDL
MODEL 2
REMARK VINA RESULT: -8.146202308      4.207      6.551
REMARK  8 active torsions:
REMARK  status: ('A' for Active; 'I' for Inactive)
REMARK    1  A    between atoms: C3_3  and  C5_5 
REMARK    2  A    between atoms: C5_5  and  C6_6 
REMARK    3  A    between atoms: C5_5  and  N2_27 
REMARK    4  A    between atoms: C7_7  and  C8_8 
REMARK    5  A    between atoms: C10_10  and  C11_11 
REMARK    6  A    between atoms: N1_18  and  C18_19 
REMARK    7  A    between atoms: C18_19  and  C20_21 
REMARK    8  A    between atoms: N2_27  and  C23_29 
ROOT
HETATM    1  C11 UNL     1      37.829  24.201   5.020  1.00  0.00     0.026 C 
HETATM    2  C12 UNL     1      37.995  25.470   4.194  1.00  0.00    -0.010 C 
HETATM    3  C13 UNL     1      36.668  26.212   4.206  1.00  0.00     0.010 C 
HETATM    4  C14 UNL     1      38.443  25.220   2.795  1.00  0.00     0.005 C 
HETATM    5  C15 UNL     1      38.155  23.857   2.266  1.00  0.00     0.007 C 
HETATM    6  C16 UNL     1      38.515  22.733   3.172  1.00  0.00     0.017 C 
HETATM    7  C17 UNL     1      39.837  22.078   2.748  1.00  0.00     0.132 C 
HETATM    8  N1  UNL     1      40.785  23.017   3.315  1.00  0.00    -0.337 N 
HETATM    9  C21 UNL     1      40.200  23.677   4.457  1.00  0.00     0.225 C 
HETATM   10  O3  UNL     1      40.833  24.519   5.141  1.00  0.00    -0.273 OA
HETATM   11  C22 UNL     1      38.836  23.150   4.571  1.00  0.00     0.091 C 
ENDROOT
BRANCH   1  12
HETATM   12  C10 UNL     1      37.979  24.443   6.446  1.00  0.00    -0.014 C 
HETATM   13  C8  UNL     1      37.004  24.558   7.334  1.00  0.00    -0.066 C 
HETATM   14  C9  UNL     1      37.491  24.811   8.730  1.00  0.00     0.048 C 
BRANCH  13  15
HETATM   15  C7  UNL     1      35.618  24.450   6.963  1.00  0.00     0.005 C 
HETATM   16  C6  UNL     1      34.638  23.738   7.389  1.00  0.00     0.003 C 
BRANCH  16  17
HETATM   17  C5  UNL     1      34.507  22.723   8.441  1.00  0.00     0.128 C 
BRANCH  17  18
HETATM   18  C3  UNL     1      33.589  23.207   9.536  1.00  0.00    -0.062 C 
HETATM   19  C2  UNL     1      32.323  22.849   9.616  1.00  0.00    -0.026 C 
HETATM   20  C1  UNL     1      31.389  23.288  10.656  1.00  0.00     0.036 C 
HETATM   21  C4  UNL     1      34.151  24.123  10.549  1.00  0.00     0.045 C 
ENDBRANCH  17  18
BRANCH  17  22
HETATM   22  N2  UNL     1      34.269  21.401   8.051  1.00  0.00    -0.407 N 
ATOM     23  H2  UNL     1      34.374  20.693   8.778  1.00  0.00     0.154 HD
BRANCH  22  24
HETATM   24  C23 UNL     1      33.912  20.943   6.809  1.00  0.00     0.069 C 
HETATM   25  C24 UNL     1      34.962  20.885   5.721  1.00  0.00     0.031 C 
HETATM   26  C25 UNL     1      32.667  21.488   6.143  1.00  0.00     0.031 C 
ENDBRANCH  22  24
ENDBRANCH  17  22
ENDBRANCH  16  17
ENDBRANCH  13  15
ENDBRANCH   1  12
BRANCH   8  27
HETATM   27  C18 UNL     1      42.114  23.230   2.779  1.00  0.00     0.184 C 
HETATM   28  C19 UNL     1      42.022  24.211   1.610  1.00  0.00     0.044 C 
BRANCH  27  29
HETATM   29  C20 UNL     1      42.706  21.970   2.283  1.00  0.00     0.196 C 
HETATM   30  O1  UNL     1      43.371  21.265   3.069  1.00  0.00    -0.646 OA
HETATM   31  O2  UNL     1      42.529  21.577   0.973  1.00  0.00    -0.646 OA
ENDBRANCH  27  29
ENDBRANCH   8  27
TORSDOF 8
ENDMDL
MODEL 3
REMARK VINA RESULT: -8.102384764      1.780      3.503
REMARK  8 active torsions:
REMARK  status: ('A' for Active; 'I' for Inactive)
REMARK    1  A    between atoms: C3_3  and  C5_5 
REMARK    2  A    between atoms: C5_5  and  C6_6 
REMARK    3  A    between atoms: C5_5  and  N2_27 
REMARK    4  A    between atoms: C7_7  and  C8_8 
REMARK    5  A    between atoms: C10_10  and  C11_11 
REMARK    6  A    between atoms: N1_18  and  C18_19 
REMARK    7  A    between atoms: C18_19  and  C20_21 
REMARK    8  A    between atoms: N2_27  and  C23_29 
ROOT
HETATM    1  C11 UNL     1      36.268  24.840   8.613  1.00  0.00     0.026 C 
HETATM    2  C12 UNL     1      35.802  25.381   7.268  1.00  0.00    -0.010 C 
HETATM    3  C13 UNL     1      35.019  24.281   6.568  1.00  0.00     0.010 C 
HETATM    4  C14 UNL     1      36.912  25.868   6.400  1.00  0.00     0.005 C 
HETATM    5  C15 UNL     1      38.256  25.297   6.702  1.00  0.00     0.007 C 
HETATM    6  C16 UNL     1      38.637  25.293   8.140  1.00  0.00     0.017 C 
HETATM    7  C17 UNL     1      39.601  26.443   8.464  1.00  0.00     0.132 C 
HETATM    8  N1  UNL     1      38.663  27.543   8.577  1.00  0.00    -0.337 N 
HETATM    9  C21 UNL     1      37.369  27.047   8.976  1.00  0.00     0.225 C 
HETATM   10  O3  UNL     1      36.389  27.809   9.169  1.00  0.00    -0.273 OA
HETATM   11  C22 UNL     1      37.510  25.590   9.077  1.00  0.00     0.091 C 
ENDROOT
BRANCH   1  12
HETATM   12  C10 UNL     1      35.235  24.927   9.634  1.00  0.00    -0.014 C 
HETATM   13  C8  UNL     1      34.521  23.925  10.121  1.00  0.00    -0.066 C 
HETATM   14  C9  UNL     1      33.530  24.346  11.164  1.00  0.00     0.048 C 
BRANCH  13  15
HETATM   15  C7  UNL     1      34.699  22.571   9.668  1.00  0.00     0.005 C 
HETATM   16  C6  UNL     1      33.893  21.597   9.440  1.00  0.00     0.003 C 
BRANCH  16  17
HETATM   17  C5  UNL     1      32.437  21.444   9.545  1.00  0.00     0.128 C 
BRANCH  17  18
HETATM   18  C3  UNL     1      31.769  21.823   8.247  1.00  0.00    -0.062 C 
HETATM   19  C2  UNL     1      32.325  21.614   7.070  1.00  0.00    -0.026 C 
HETATM   20  C1  UNL     1      31.722  21.961   5.780  1.00  0.00     0.036 C 
HETATM   21  C4  UNL     1      30.436  22.457   8.318  1.00  0.00     0.045 C 
ENDBRANCH  17  18
BRANCH  17  22
HETATM   22  N2  UNL     1      31.940  20.266  10.110  1.00  0.00    -0.407 N 
ATOM     23  H2  UNL     1      32.406  19.403   9.832  1.00  0.00     0.154 HD
BRANCH  22  24
HETATM   24  C23 UNL     1      30.901  20.133  10.995  1.00  0.00     0.069 C 
HETATM   25  C24 UNL     1      30.472  21.335  11.807  1.00  0.00     0.031 C 
HETATM   26  C25 UNL     1      30.888  18.967  11.960  1.00  0.00     0.031 C 
ENDBRANCH  22  24
ENDBRANCH  17  22
ENDBRANCH  16  17
ENDBRANCH  13  15
ENDBRANCH   1  12
BRANCH   8  27
HETATM   27  C18 UNL     1      39.018  28.923   8.315  1.00  0.00     0.184 C 
HETATM   28  C19 UNL     1      39.939  28.973   7.096  1.00  0.00     0.044 C 
BRANCH  27  29
HETATM   29  C20 UNL     1      39.731  29.525   9.460  1.00  0.00     0.196 C 
HETATM   30  O1  UNL     1      39.090  29.796  10.496  1.00  0.00    -0.646 OA
HETATM   31  O2  UNL     1      41.084  29.786   9.390  1.00  0.00    -0.646 OA
ENDBRANCH  27  29
ENDBRANCH   8  27
TORSDOF 8
ENDMDL
MODEL 4
REMARK VINA RESULT: -8.098473347      3.738      6.517
REMARK  8 active torsions:
REMARK  status: ('A' for Active; 'I' for Inactive)
REMARK    1  A    between atoms: C3_3  and  C5_5 
REMARK    2  A    between atoms: C5_5  and  C6_6 
REMARK    3  A    between atoms: C5_5  and  N2_27 
REMARK    4  A    between atoms: C7_7  and  C8_8 
REMARK    5  A    between atoms: C10_10  and  C11_11 
REMARK    6  A    between atoms: N1_18  and  C18_19 
REMARK    7  A    between atoms: C18_19  and  C20_21 
REMARK    8  A    between atoms: N2_27  and  C23_29 
ROOT
HETATM    1  C11 UNL     1      38.409  24.981   6.360  1.00  0.00     0.026 C 
HETATM    2  C12 UNL     1      37.258  25.032   5.364  1.00  0.00    -0.010 C 
HETATM    3  C13 UNL     1      35.958  24.924   6.145  1.00  0.00     0.010 C 
HETATM    4  C14 UNL     1      37.328  23.979   4.312  1.00  0.00     0.005 C 
HETATM    5  C15 UNL     1      38.131  22.774   4.668  1.00  0.00     0.007 C 
HETATM    6  C16 UNL     1      39.466  23.052   5.263  1.00  0.00     0.017 C 
HETATM    7  C17 UNL     1      40.585  22.881   4.226  1.00  0.00     0.132 C 
HETATM    8  N1  UNL     1      40.485  24.146   3.525  1.00  0.00    -0.337 N 
HETATM    9  C21 UNL     1      39.944  25.154   4.404  1.00  0.00     0.225 C 
HETATM   10  O3  UNL     1      39.784  26.346   4.040  1.00  0.00    -0.273 OA
HETATM   11  C22 UNL     1      39.671  24.475   5.676  1.00  0.00     0.091 C 
ENDROOT
BRANCH   1  12
HETATM   12  C10 UNL     1      38.670  26.273   6.974  1.00  0.00    -0.014 C 
HETATM   13  C8  UNL     1      38.597  26.564   8.263  1.00  0.00    -0.066 C 
HETATM   14  C9  UNL     1      38.924  27.995   8.574  1.00  0.00     0.048 C 
BRANCH  13  15
HETATM   15  C7  UNL     1      38.233  25.581   9.247  1.00  0.00     0.005 C 
HETATM   16  C6  UNL     1      37.117  25.221   9.773  1.00  0.00     0.003 C 
BRANCH  16  17
HETATM   17  C5  UNL     1      35.728  25.660   9.596  1.00  0.00     0.128 C 
BRANCH  17  18
HETATM   18  C3  UNL     1      34.770  24.553   9.960  1.00  0.00    -0.062 C 
HETATM   19  C2  UNL     1      34.476  23.566   9.138  1.00  0.00    -0.026 C 
HETATM   20  C1  UNL     1      33.554  22.467   9.438  1.00  0.00     0.036 C 
HETATM   21  C4  UNL     1      34.143  24.597  11.296  1.00  0.00     0.045 C 
ENDBRANCH  17  18
BRANCH  17  22
HETATM   22  N2  UNL     1      35.365  26.909  10.109  1.00  0.00    -0.407 N 
ATOM     23  H2  UNL     1      35.378  26.999  11.125  1.00  0.00     0.154 HD
BRANCH  22  24
HETATM   24  C23 UNL     1      34.995  28.029   9.409  1.00  0.00     0.069 C 
HETATM   25  C24 UNL     1      35.136  28.031   7.903  1.00  0.00     0.031 C 
HETATM   26  C25 UNL     1      35.483  29.388   9.864  1.00  0.00     0.031 C 
ENDBRANCH  22  24
ENDBRANCH  17  22
ENDBRANCH  16  17
ENDBRANCH  13  15
ENDBRANCH   1  12
BRANCH   8  27
HETATM   27  C18 UNL     1      40.879  24.325   2.142  1.00  0.00     0.184 C 
HETATM   28  C19 UNL     1      39.661  24.092   1.249  1.00  0.00     0.044 C 
BRANCH  27  29
HETATM   29  C20 UNL     1      41.931  23.365   1.751  1.00  0.00     0.196 C 
HETATM   30  O1  UNL     1      41.634  22.418   0.994  1.00  0.00    -0.646 OA
HETATM   31  O2  UNL     1      43.223  23.508   2.215  1.00  0.00    -0.646 OA
ENDBRANCH  27  29
ENDBRANCH   8  27
TORSDOF 8
ENDMDL
MODEL 5
REMARK VINA RESULT: -8.003705273      4.392      6.767
REMARK  8 active torsions:
REMARK  status: ('A' for Active; 'I' for Inactive)
REMARK    1  A    between atoms: C3_3  and  C5_5 
REMARK    2  A    between atoms: C5_5  and  C6_6 
REMARK    3  A    between atoms: C5_5  and  N2_27 
REMARK    4  A    between atoms: C7_7  and  C8_8 
REMARK    5  A    between atoms: C10_10  and  C11_11 
REMARK    6  A    between atoms: N1_18  and  C18_19 
REMARK    7  A    between atoms: C18_19  and  C20_21 
REMARK    8  A    between atoms: N2_27  and  C23_29 
ROOT
HETATM    1  C11 UNL     1      38.180  23.881   4.731  1.00  0.00     0.026 C 
HETATM    2  C12 UNL     1      39.255  24.211   5.758  1.00  0.00    -0.010 C 
HETATM    3  C13 UNL     1      38.563  24.732   7.008  1.00  0.00     0.010 C 
HETATM    4  C14 UNL     1      40.267  25.191   5.272  1.00  0.00     0.005 C 
HETATM    5  C15 UNL     1      39.822  26.068   4.152  1.00  0.00     0.007 C 
HETATM    6  C16 UNL     1      39.144  25.368   3.027  1.00  0.00     0.017 C 
HETATM    7  C17 UNL     1      40.096  25.173   1.839  1.00  0.00     0.132 C 
HETATM    8  N1  UNL     1      40.839  24.012   2.290  1.00  0.00    -0.337 N 
HETATM    9  C21 UNL     1      40.029  23.230   3.192  1.00  0.00     0.225 C 
HETATM   10  O3  UNL     1      40.439  22.157   3.700  1.00  0.00    -0.273 OA
HETATM   11  C22 UNL     1      38.760  23.954   3.325  1.00  0.00     0.091 C 
ENDROOT
BRANCH   1  12
HETATM   12  C10 UNL     1      37.588  22.570   4.948  1.00  0.00    -0.014 C 
HETATM   13  C8  UNL     1      36.369  22.320   5.398  1.00  0.00    -0.066 C 
HETATM   14  C9  UNL     1      36.062  20.856   5.515  1.00  0.00     0.048 C 
BRANCH  13  15
HETATM   15  C7  UNL     1      35.450  23.373   5.738  1.00  0.00     0.005 C 
HETATM   16  C6  UNL     1      34.902  23.753   6.836  1.00  0.00     0.003 C 
BRANCH  16  17
HETATM   17  C5  UNL     1      34.975  23.275   8.221  1.00  0.00     0.128 C 
BRANCH  17  18
HETATM   18  C3  UNL     1      35.173  24.429   9.172  1.00  0.00    -0.062 C 
HETATM   19  C2  UNL     1      35.434  25.654   8.763  1.00  0.00    -0.026 C 
HETATM   20  C1  UNL     1      35.635  26.810   9.640  1.00  0.00     0.036 C 
HETATM   21  C4  UNL     1      35.068  24.154  10.619  1.00  0.00     0.045 C 
ENDBRANCH  17  18
BRANCH  17  22
HETATM   22  N2  UNL     1      34.015  22.353   8.648  1.00  0.00    -0.407 N 
ATOM     23  H2  UNL     1      34.231  21.844   9.505  1.00  0.00     0.154 HD
BRANCH  22  24
HETATM   24  C23 UNL     1      32.817  22.051   8.053  1.00  0.00     0.069 C 
HETATM   25  C24 UNL     1      31.541  22.222   8.847  1.00  0.00     0.031 C 
HETATM   26  C25 UNL     1      32.661  20.738   7.314  1.00  0.00     0.031 C 
ENDBRANCH  22  24
ENDBRANCH  17  22
ENDBRANCH  16  17
ENDBRANCH  13  15
ENDBRANCH   1  12
BRANCH   8  27
HETATM   27  C18 UNL     1      42.196  23.723   1.872  1.00  0.00     0.184 C 
HETATM   28  C19 UNL     1      42.861  25.023   1.423  1.00  0.00     0.044 C 
BRANCH  27  29
HETATM   29  C20 UNL     1      42.222  22.773   0.740  1.00  0.00     0.196 C 
HETATM   30  O1  UNL     1      42.410  21.562   0.973  1.00  0.00    -0.646 OA
HETATM   31  O2  UNL     1      42.042  23.215  -0.554  1.00  0.00    -0.646 OA
ENDBRANCH  27  29
ENDBRANCH   8  27
TORSDOF 8
ENDMDL
