MODEL 1
REMARK VINA RESULT: -10.292239992      0.000      0.000
REMARK  7 active torsions:
REMARK  status: ('A' for Active; 'I' for Inactive)
REMARK       I    between atoms: C1_2  and  N1_3 
REMARK    1  A    between atoms: C1_2  and  C10_13 
REMARK    2  A    between atoms: N1_3  and  C2_5 
REMARK    3  A    between atoms: C2_5  and  C3_6 
REMARK    4  A    between atoms: C14_17  and  C15_18 
REMARK    5  A    between atoms: C15_18  and  N2_19 
REMARK       I    between atoms: N2_19  and  C16_21 
REMARK    6  A    between atoms: C16_21  and  C17_23 
REMARK    7  A    between atoms: C17_23  and  C18_24 
ROOT
HETATM    1  C10 UNL     1      33.887  23.622   9.652  1.00  0.00     0.032 A 
HETATM    2  C11 UNL     1      33.093  22.891   8.765  1.00  0.00     0.017 A 
HETATM    3  C12 UNL     1      31.799  22.564   9.140  1.00  0.00     0.002 A 
HETATM    4  C13 UNL     1      31.320  22.953  10.353  1.00  0.00     0.009 A 
HETATM    5  C14 UNL     1      32.101  23.682  11.244  1.00  0.00    -0.040 A 
HETATM    6  C26 UNL     1      33.381  24.014  10.894  1.00  0.00     0.026 A 
ENDROOT
BRANCH   5   7
HETATM    7  C15 UNL     1      31.489  24.092  12.528  1.00  0.00     0.161 C 
BRANCH   7   8
HETATM    8  N2  UNL     1      30.576  23.047  12.915  1.00  0.00    -0.356 N 
HETATM    9  C16 UNL     1      30.777  22.114  13.974  1.00  0.00     0.227 C 
HETATM   10  O2  UNL     1      31.801  22.119  14.690  1.00  0.00    -0.273 OA
ATOM     11  H2  UNL     1      29.708  22.968  12.384  1.00  0.00     0.162 HD
BRANCH   9  12
HETATM   12  C17 UNL     1      29.729  21.071  14.260  1.00  0.00     0.044 A 
HETATM   13  C24 UNL     1      29.460  20.944  15.732  1.00  0.00     0.021 A 
HETATM   14  C25 UNL     1      28.404  21.415  14.779  1.00  0.00     0.021 A 
BRANCH  12  15
HETATM   15  C18 UNL     1      29.986  19.751  13.556  1.00  0.00     0.003 C 
HETATM   16  C19 UNL     1      28.742  18.931  13.431  1.00  0.00     0.006 C 
HETATM   17  C20 UNL     1      29.046  17.586  12.844  1.00  0.00     0.000 C 
HETATM   18  C21 UNL     1      29.859  17.619  11.583  1.00  0.00     0.000 C 
HETATM   19  C22 UNL     1      30.952  18.642  11.616  1.00  0.00     0.000 C 
HETATM   20  C23 UNL     1      30.491  19.978  12.133  1.00  0.00     0.006 C 
ENDBRANCH  12  15
ENDBRANCH   9  12
ENDBRANCH   7   8
ENDBRANCH   5   7
BRANCH   1  21
HETATM   21  C1  UNL     1      35.250  23.954   9.245  1.00  0.00     0.251 C 
HETATM   22  O1  UNL     1      36.038  24.447  10.096  1.00  0.00    -0.268 OA
HETATM   23  N1  UNL     1      35.667  23.723   7.911  1.00  0.00    -0.356 N 
ATOM     24  H1  UNL     1      35.006  23.317   7.249  1.00  0.00     0.162 HD
BRANCH  23  25
HETATM   25  C2  UNL     1      37.020  24.050   7.453  1.00  0.00     0.128 C 
BRANCH  25  26
HETATM   26  C3  UNL     1      36.954  24.016   5.944  1.00  0.00     0.008 C 
HETATM   27  C4  UNL     1      37.142  22.576   5.440  1.00  0.00     0.011 C 
HETATM   28  C5  UNL     1      38.194  22.657   4.384  1.00  0.00    -0.014 C 
HETATM   29  C6  UNL     1      39.524  22.861   5.062  1.00  0.00     0.005 C 
HETATM   30  C9  UNL     1      37.937  24.076   3.850  1.00  0.00     0.010 C 
HETATM   31  C7  UNL     1      39.415  24.276   5.624  1.00  0.00     0.005 C 
HETATM   32  C8  UNL     1      38.035  24.752   5.238  1.00  0.00    -0.009 C 
ENDBRANCH  25  26
ENDBRANCH  23  25
ENDBRANCH   1  21
TORSDOF 7
ENDMDL
MODEL 2
REMARK VINA RESULT: -10.120208436      1.971      2.622
REMARK  7 active torsions:
REMARK  status: ('A' for Active; 'I' for Inactive)
REMARK       I    between atoms: C1_2  and  N1_3 
REMARK    1  A    between atoms: C1_2  and  C10_13 
REMARK    2  A    between atoms: N1_3  and  C2_5 
REMARK    3  A    between atoms: C2_5  and  C3_6 
REMARK    4  A    between atoms: C14_17  and  C15_18 
REMARK    5  A    between atoms: C15_18  and  N2_19 
REMARK       I    between atoms: N2_19  and  C16_21 
REMARK    6  A    between atoms: C16_21  and  C17_23 
REMARK    7  A    between atoms: C17_23  and  C18_24 
ROOT
HETATM    1  C10 UNL     1      33.650  23.230   8.981  1.00  0.00     0.032 A 
HETATM    2  C11 UNL     1      32.818  22.434   8.192  1.00  0.00     0.017 A 
HETATM    3  C12 UNL     1      31.556  22.107   8.666  1.00  0.00     0.002 A 
HETATM    4  C13 UNL     1      31.146  22.561   9.881  1.00  0.00     0.009 A 
HETATM    5  C14 UNL     1      31.964  23.357  10.677  1.00  0.00    -0.040 A 
HETATM    6  C26 UNL     1      33.213  23.689  10.227  1.00  0.00     0.026 A 
ENDROOT
BRANCH   5   7
HETATM    7  C15 UNL     1      31.424  23.832  11.969  1.00  0.00     0.161 C 
BRANCH   7   8
HETATM    8  N2  UNL     1      30.547  22.804  12.467  1.00  0.00    -0.356 N 
HETATM    9  C16 UNL     1      30.679  22.128  13.716  1.00  0.00     0.227 C 
HETATM   10  O2  UNL     1      31.601  22.377  14.521  1.00  0.00    -0.273 OA
ATOM     11  H2  UNL     1      29.761  22.536  11.874  1.00  0.00     0.162 HD
BRANCH   9  12
HETATM   12  C17 UNL     1      29.681  21.068  14.101  1.00  0.00     0.044 A 
HETATM   13  C24 UNL     1      29.472  21.016  15.587  1.00  0.00     0.021 A 
HETATM   14  C25 UNL     1      28.364  21.395  14.651  1.00  0.00     0.021 A 
BRANCH  12  15
HETATM   15  C18 UNL     1      29.959  19.720  13.462  1.00  0.00     0.003 C 
HETATM   16  C19 UNL     1      28.732  18.868  13.391  1.00  0.00     0.006 C 
HETATM   17  C20 UNL     1      29.059  17.502  12.870  1.00  0.00     0.000 C 
HETATM   18  C21 UNL     1      29.860  17.488  11.601  1.00  0.00     0.000 C 
HETATM   19  C22 UNL     1      30.932  18.533  11.571  1.00  0.00     0.000 C 
HETATM   20  C23 UNL     1      30.447  19.884  12.024  1.00  0.00     0.006 C 
ENDBRANCH  12  15
ENDBRANCH   9  12
ENDBRANCH   7   8
ENDBRANCH   5   7
BRANCH   1  21
HETATM   21  C1  UNL     1      34.977  23.561   8.470  1.00  0.00     0.251 C 
HETATM   22  O1  UNL     1      35.315  23.137   7.332  1.00  0.00    -0.268 OA
HETATM   23  N1  UNL     1      35.861  24.347   9.249  1.00  0.00    -0.356 N 
ATOM     24  H1  UNL     1      35.552  24.679  10.163  1.00  0.00     0.162 HD
BRANCH  23  25
HETATM   25  C2  UNL     1      37.205  24.696   8.784  1.00  0.00     0.128 C 
BRANCH  25  26
HETATM   26  C3  UNL     1      37.241  26.205   8.748  1.00  0.00     0.008 C 
HETATM   27  C4  UNL     1      35.861  26.775   9.118  1.00  0.00     0.011 C 
HETATM   28  C5  UNL     1      35.539  27.765   8.048  1.00  0.00    -0.014 C 
HETATM   29  C6  UNL     1      35.171  27.004   6.801  1.00  0.00     0.005 C 
HETATM   30  C9  UNL     1      36.954  28.236   7.675  1.00  0.00     0.010 C 
HETATM   31  C7  UNL     1      36.494  26.375   6.373  1.00  0.00     0.005 C 
HETATM   32  C8  UNL     1      37.497  26.811   7.415  1.00  0.00    -0.009 C 
ENDBRANCH  25  26
ENDBRANCH  23  25
ENDBRANCH   1  21
TORSDOF 7
ENDMDL
MODEL 3
REMARK VINA RESULT: -9.902106485      3.219      5.520
REMARK  7 active torsions:
REMARK  status: ('A' for Active; 'I' for Inactive)
REMARK       I    between atoms: C1_2  and  N1_3 
REMARK    1  A    between atoms: C1_2  and  C10_13 
REMARK    2  A    between atoms: N1_3  and  C2_5 
REMARK    3  A    between atoms: C2_5  and  C3_6 
REMARK    4  A    between atoms: C14_17  and  C15_18 
REMARK    5  A    between atoms: C15_18  and  N2_19 
REMARK       I    between atoms: N2_19  and  C16_21 
REMARK    6  A    between atoms: C16_21  and  C17_23 
REMARK    7  A    between atoms: C17_23  and  C18_24 
ROOT
HETATM    1  C10 UNL     1      37.301  24.532   7.264  1.00  0.00     0.032 A 
HETATM    2  C11 UNL     1      38.342  25.328   7.746  1.00  0.00     0.017 A 
HETATM    3  C12 UNL     1      38.359  25.666   9.091  1.00  0.00     0.002 A 
HETATM    4  C13 UNL     1      37.374  25.222   9.918  1.00  0.00     0.009 A 
HETATM    5  C14 UNL     1      36.332  24.427   9.450  1.00  0.00    -0.040 A 
HETATM    6  C26 UNL     1      36.297  24.085   8.126  1.00  0.00     0.026 A 
ENDROOT
BRANCH   5   7
HETATM    7  C15 UNL     1      35.322  23.964  10.426  1.00  0.00     0.161 C 
BRANCH   7   8
HETATM    8  N2  UNL     1      34.397  23.121   9.712  1.00  0.00    -0.356 N 
HETATM    9  C16 UNL     1      32.987  23.069   9.919  1.00  0.00     0.227 C 
HETATM   10  O2  UNL     1      32.404  23.777  10.767  1.00  0.00    -0.273 OA
ATOM     11  H2  UNL     1      34.785  22.507   8.996  1.00  0.00     0.162 HD
BRANCH   9  12
HETATM   12  C17 UNL     1      32.146  22.131   9.094  1.00  0.00     0.044 A 
HETATM   13  C24 UNL     1      31.575  21.019   9.926  1.00  0.00     0.021 A 
HETATM   14  C25 UNL     1      30.695  22.031   9.257  1.00  0.00     0.021 A 
BRANCH  12  15
HETATM   15  C18 UNL     1      32.833  21.667   7.822  1.00  0.00     0.003 C 
HETATM   16  C19 UNL     1      33.211  22.813   6.939  1.00  0.00     0.006 C 
HETATM   17  C20 UNL     1      33.776  22.323   5.640  1.00  0.00     0.000 C 
HETATM   18  C21 UNL     1      34.864  21.298   5.774  1.00  0.00     0.000 C 
HETATM   19  C22 UNL     1      34.598  20.296   6.854  1.00  0.00     0.000 C 
HETATM   20  C23 UNL     1      34.131  20.927   8.138  1.00  0.00     0.006 C 
ENDBRANCH  12  15
ENDBRANCH   9  12
ENDBRANCH   7   8
ENDBRANCH   5   7
BRANCH   1  21
HETATM   21  C1  UNL     1      37.294  24.190   5.844  1.00  0.00     0.251 C 
HETATM   22  O1  UNL     1      36.537  24.831   5.066  1.00  0.00    -0.268 OA
HETATM   23  N1  UNL     1      38.129  23.153   5.361  1.00  0.00    -0.356 N 
ATOM     24  H1  UNL     1      38.735  22.659   6.017  1.00  0.00     0.162 HD
BRANCH  23  25
HETATM   25  C2  UNL     1      38.149  22.767   3.948  1.00  0.00     0.128 C 
BRANCH  25  26
HETATM   26  C3  UNL     1      39.578  22.370   3.659  1.00  0.00     0.008 C 
HETATM   27  C4  UNL     1      40.546  23.372   4.309  1.00  0.00     0.011 C 
HETATM   28  C5  UNL     1      41.500  23.762   3.230  1.00  0.00    -0.014 C 
HETATM   29  C6  UNL     1      40.782  24.687   2.281  1.00  0.00     0.005 C 
HETATM   30  C9  UNL     1      41.515  22.470   2.396  1.00  0.00     0.010 C 
HETATM   31  C7  UNL     1      39.768  23.770   1.602  1.00  0.00     0.005 C 
HETATM   32  C8  UNL     1      39.978  22.412   2.228  1.00  0.00    -0.009 C 
ENDBRANCH  25  26
ENDBRANCH  23  25
ENDBRANCH   1  21
TORSDOF 7
ENDMDL
MODEL 4
REMARK VINA RESULT: -9.829983882      2.421     10.071
REMARK  7 active torsions:
REMARK  status: ('A' for Active; 'I' for Inactive)
REMARK       I    between atoms: C1_2  and  N1_3 
REMARK    1  A    between atoms: C1_2  and  C10_13 
REMARK    2  A    between atoms: N1_3  and  C2_5 
REMARK    3  A    between atoms: C2_5  and  C3_6 
REMARK    4  A    between atoms: C14_17  and  C15_18 
REMARK    5  A    between atoms: C15_18  and  N2_19 
REMARK       I    between atoms: N2_19  and  C16_21 
REMARK    6  A    between atoms: C16_21  and  C17_23 
REMARK    7  A    between atoms: C17_23  and  C18_24 
ROOT
HETATM    1  C10 UNL     1      32.471  22.232   8.157  1.00  0.00     0.032 A 
HETATM    2  C11 UNL     1      31.594  21.843   7.141  1.00  0.00     0.017 A 
HETATM    3  C12 UNL     1      32.057  21.806   5.835  1.00  0.00     0.002 A 
HETATM    4  C13 UNL     1      33.347  22.143   5.558  1.00  0.00     0.009 A 
HETATM    5  C14 UNL     1      34.230  22.530   6.560  1.00  0.00    -0.040 A 
HETATM    6  C26 UNL     1      33.792  22.575   7.856  1.00  0.00     0.026 A 
ENDROOT
BRANCH   5   7
HETATM    7  C15 UNL     1      35.622  22.848   6.173  1.00  0.00     0.161 C 
BRANCH   7   8
HETATM    8  N2  UNL     1      36.229  23.527   7.289  1.00  0.00    -0.356 N 
HETATM    9  C16 UNL     1      36.406  24.937   7.410  1.00  0.00     0.227 C 
HETATM   10  O2  UNL     1      36.036  25.740   6.529  1.00  0.00    -0.273 OA
ATOM     11  H2  UNL     1      36.561  22.948   8.061  1.00  0.00     0.162 HD
BRANCH   9  12
HETATM   12  C17 UNL     1      37.064  25.504   8.641  1.00  0.00     0.044 A 
HETATM   13  C24 UNL     1      36.097  26.299   9.470  1.00  0.00     0.021 A 
HETATM   14  C25 UNL     1      36.729  25.043   9.990  1.00  0.00     0.021 A 
BRANCH  12  15
HETATM   15  C18 UNL     1      38.371  26.218   8.350  1.00  0.00     0.003 C 
HETATM   16  C19 UNL     1      39.264  26.265   9.548  1.00  0.00     0.006 C 
HETATM   17  C20 UNL     1      40.491  27.078   9.268  1.00  0.00     0.000 C 
HETATM   18  C21 UNL     1      41.216  26.711   8.007  1.00  0.00     0.000 C 
HETATM   19  C22 UNL     1      40.294  26.404   6.867  1.00  0.00     0.000 C 
HETATM   20  C23 UNL     1      39.159  25.497   7.259  1.00  0.00     0.006 C 
ENDBRANCH  12  15
ENDBRANCH   9  12
ENDBRANCH   7   8
ENDBRANCH   5   7
BRANCH   1  21
HETATM   21  C1  UNL     1      31.967  22.271   9.526  1.00  0.00     0.251 C 
HETATM   22  O1  UNL     1      32.395  23.163  10.308  1.00  0.00    -0.268 OA
HETATM   23  N1  UNL     1      31.013  21.318   9.958  1.00  0.00    -0.356 N 
ATOM     24  H1  UNL     1      30.683  20.614   9.297  1.00  0.00     0.162 HD
BRANCH  23  25
HETATM   25  C2  UNL     1      30.486  21.310  11.325  1.00  0.00     0.128 C 
BRANCH  25  26
HETATM   26  C3  UNL     1      29.954  19.913  11.545  1.00  0.00     0.008 C 
HETATM   27  C4  UNL     1      28.441  19.961  11.819  1.00  0.00     0.011 C 
HETATM   28  C5  UNL     1      28.234  19.145  13.051  1.00  0.00    -0.014 C 
HETATM   29  C6  UNL     1      28.729  19.943  14.230  1.00  0.00     0.005 C 
HETATM   30  C9  UNL     1      29.380  18.131  12.905  1.00  0.00     0.010 C 
HETATM   31  C7  UNL     1      30.240  19.970  14.023  1.00  0.00     0.005 C 
HETATM   32  C8  UNL     1      30.480  19.207  12.742  1.00  0.00    -0.009 C 
ENDBRANCH  25  26
ENDBRANCH  23  25
ENDBRANCH   1  21
TORSDOF 7
ENDMDL
MODEL 5
REMARK VINA RESULT: -9.824158563      2.919     10.015
REMARK  7 active torsions:
REMARK  status: ('A' for Active; 'I' for Inactive)
REMARK       I    between atoms: C1_2  and  N1_3 
REMARK    1  A    between atoms: C1_2  and  C10_13 
REMARK    2  A    between atoms: N1_3  and  C2_5 
REMARK    3  A    between atoms: C2_5  and  C3_6 
REMARK    4  A    between atoms: C14_17  and  C15_18 
REMARK    5  A    between atoms: C15_18  and  N2_19 
REMARK       I    between atoms: N2_19  and  C16_21 
REMARK    6  A    between atoms: C16_21  and  C17_23 
REMARK    7  A    between atoms: C17_23  and  C18_24 
ROOT
HETATM    1  C10 UNL     1      32.705  22.386   8.242  1.00  0.00     0.032 A 
HETATM    2  C11 UNL     1      31.950  21.896   7.174  1.00  0.00     0.017 A 
HETATM    3  C12 UNL     1      32.521  21.863   5.911  1.00  0.00     0.002 A 
HETATM    4  C13 UNL     1      33.796  22.301   5.726  1.00  0.00     0.009 A 
HETATM    5  C14 UNL     1      34.559  22.790   6.783  1.00  0.00    -0.040 A 
HETATM    6  C26 UNL     1      34.013  22.833   8.037  1.00  0.00     0.026 A 
ENDROOT
BRANCH   5   7
HETATM    7  C15 UNL     1      35.947  23.216   6.497  1.00  0.00     0.161 C 
BRANCH   7   8
HETATM    8  N2  UNL     1      36.333  24.132   7.539  1.00  0.00    -0.356 N 
HETATM    9  C16 UNL     1      37.261  25.205   7.403  1.00  0.00     0.227 C 
HETATM   10  O2  UNL     1      37.844  25.459   6.327  1.00  0.00    -0.273 OA
ATOM     11  H2  UNL     1      35.904  24.001   8.456  1.00  0.00     0.162 HD
BRANCH   9  12
HETATM   12  C17 UNL     1      37.569  26.082   8.588  1.00  0.00     0.044 A 
HETATM   13  C24 UNL     1      37.527  25.310   9.875  1.00  0.00     0.021 A 
HETATM   14  C25 UNL     1      38.795  25.934   9.375  1.00  0.00     0.021 A 
BRANCH  12  15
HETATM   15  C18 UNL     1      36.766  27.370   8.608  1.00  0.00     0.003 C 
HETATM   16  C19 UNL     1      37.607  28.561   8.276  1.00  0.00     0.006 C 
HETATM   17  C20 UNL     1      36.821  29.828   8.421  1.00  0.00     0.000 C 
HETATM   18  C21 UNL     1      35.495  29.829   7.719  1.00  0.00     0.000 C 
HETATM   19  C22 UNL     1      34.767  28.526   7.836  1.00  0.00     0.000 C 
HETATM   20  C23 UNL     1      35.648  27.336   7.569  1.00  0.00     0.006 C 
ENDBRANCH  12  15
ENDBRANCH   9  12
ENDBRANCH   7   8
ENDBRANCH   5   7
BRANCH   1  21
HETATM   21  C1  UNL     1      32.088  22.419   9.565  1.00  0.00     0.251 C 
HETATM   22  O1  UNL     1      32.424  23.327  10.372  1.00  0.00    -0.268 OA
HETATM   23  N1  UNL     1      31.129  21.441   9.925  1.00  0.00    -0.356 N 
ATOM     24  H1  UNL     1      30.874  20.724   9.245  1.00  0.00     0.162 HD
BRANCH  23  25
HETATM   25  C2  UNL     1      30.490  21.427  11.243  1.00  0.00     0.128 C 
BRANCH  25  26
HETATM   26  C3  UNL     1      30.009  20.009  11.444  1.00  0.00     0.008 C 
HETATM   27  C4  UNL     1      28.512  20.004  11.794  1.00  0.00     0.011 C 
HETATM   28  C5  UNL     1      28.389  19.145  13.008  1.00  0.00    -0.014 C 
HETATM   29  C6  UNL     1      28.920  19.919  14.186  1.00  0.00     0.005 C 
HETATM   30  C9  UNL     1      29.554  18.170  12.772  1.00  0.00     0.010 C 
HETATM   31  C7  UNL     1      30.418  19.998  13.906  1.00  0.00     0.005 C 
HETATM   32  C8  UNL     1      30.614  19.282  12.590  1.00  0.00    -0.009 C 
ENDBRANCH  25  26
ENDBRANCH  23  25
ENDBRANCH   1  21
TORSDOF 7
ENDMDL
