MODEL 1
REMARK VINA RESULT: -8.891564034      0.000      0.000
REMARK  8 active torsions:
REMARK  status: ('A' for Active; 'I' for Inactive)
REMARK    1  A    between atoms: C2_2  and  C4_4 
REMARK    2  A    between atoms: C4_4  and  N1_5 
REMARK    3  A    between atoms: N1_5  and  C5_8 
REMARK    4  A    between atoms: C5_8  and  C6_9 
REMARK    5  A    between atoms: C6_9  and  C7_10 
REMARK    6  A    between atoms: C7_10  and  N2_11 
REMARK    7  A    between atoms: N2_11  and  O1_12 
REMARK       I    between atoms: N2_11  and  C8_14 
REMARK    8  A    between atoms: C8_14  and  C9_16 
ROOT
HETATM    1  C9  UNL     1      37.188  25.621   7.694  1.00  0.00     0.002 C 
HETATM    2  C10 UNL     1      36.392  25.863   6.454  1.00  0.00     0.044 C 
HETATM    3  C11 UNL     1      36.751  25.110   5.224  1.00  0.00    -0.021 C 
HETATM    4  C12 UNL     1      36.261  23.874   5.263  1.00  0.00    -0.020 C 
HETATM    5  C13 UNL     1      35.564  23.789   6.561  1.00  0.00    -0.014 C 
HETATM    6  C14 UNL     1      35.055  25.156   6.652  1.00  0.00     0.027 C 
HETATM    7  C15 UNL     1      36.682  23.336   7.470  1.00  0.00     0.023 C 
HETATM    8  C16 UNL     1      36.836  24.443   8.518  1.00  0.00     0.022 C 
HETATM    9  C17 UNL     1      35.680  24.365   9.387  1.00  0.00     0.010 C 
HETATM   10  C18 UNL     1      34.854  23.076   9.257  1.00  0.00     0.007 C 
HETATM   11  C19 UNL     1      33.967  22.932   8.102  1.00  0.00     0.002 C 
HETATM   12  C20 UNL     1      32.865  21.922   8.421  1.00  0.00    -0.043 C 
HETATM   13  C21 UNL     1      33.284  20.948   9.510  1.00  0.00     0.015 C 
HETATM   14  C22 UNL     1      31.629  22.621   9.016  1.00  0.00     0.015 C 
HETATM   15  C23 UNL     1      32.420  21.140   7.249  1.00  0.00     0.009 C 
HETATM   16  C24 UNL     1      32.397  21.820   5.936  1.00  0.00     0.002 C 
HETATM   17  C25 UNL     1      33.364  22.952   5.761  1.00  0.00     0.010 C 
HETATM   18  C26 UNL     1      34.525  22.727   6.735  1.00  0.00    -0.029 C 
HETATM   19  C27 UNL     1      35.160  21.415   6.445  1.00  0.00     0.016 C 
ENDROOT
BRANCH   1  20
HETATM   20  C8  UNL     1      37.419  26.861   8.439  1.00  0.00     0.270 C 
HETATM   21  N2  UNL     1      38.647  27.320   8.969  1.00  0.00    -0.225 N 
HETATM   22  O2  UNL     1      36.403  27.600   8.623  1.00  0.00    -0.266 OA
BRANCH  21  23
HETATM   23  C7  UNL     1      39.914  26.642   8.915  1.00  0.00     0.161 C 
BRANCH  23  24
HETATM   24  C6  UNL     1      40.941  27.076   9.896  1.00  0.00     0.050 C 
BRANCH  24  25
HETATM   25  C5  UNL     1      42.355  26.688   9.451  1.00  0.00     0.234 C 
BRANCH  25  26
HETATM   26  N1  UNL     1      43.358  26.973  10.432  1.00  0.00    -0.072 N 
ATOM     27  H12 UNL     1      43.622  27.957  10.457  1.00  0.00     0.277 HD
ATOM     28  H11 UNL     1      44.273  26.595  10.187  1.00  0.00     0.277 HD
BRANCH  26  29
HETATM   29  C4  UNL     1      42.866  26.483  11.716  1.00  0.00     0.265 C 
BRANCH  29  30
HETATM   30  C2  UNL     1      43.267  27.479  12.726  1.00  0.00    -0.068 C 
HETATM   31  C1  UNL     1      42.911  27.389  13.993  1.00  0.00     0.015 C 
HETATM   32  C3  UNL     1      44.104  28.637  12.309  1.00  0.00     0.044 C 
ENDBRANCH  29  30
ENDBRANCH  26  29
ENDBRANCH  25  26
ENDBRANCH  24  25
ENDBRANCH  23  24
ENDBRANCH  21  23
BRANCH  21  33
HETATM   33  O1  UNL     1      38.707  28.542   9.620  1.00  0.00    -0.285 OA
ATOM     34  H1  UNL     1      37.887  29.021   9.596  1.00  0.00     0.245 HD
ENDBRANCH  21  33
ENDBRANCH   1  20
TORSDOF 8
ENDMDL
MODEL 2
REMARK VINA RESULT: -8.738640413      2.361      3.698
REMARK  8 active torsions:
REMARK  status: ('A' for Active; 'I' for Inactive)
REMARK    1  A    between atoms: C2_2  and  C4_4 
REMARK    2  A    between atoms: C4_4  and  N1_5 
REMARK    3  A    between atoms: N1_5  and  C5_8 
REMARK    4  A    between atoms: C5_8  and  C6_9 
REMARK    5  A    between atoms: C6_9  and  C7_10 
REMARK    6  A    between atoms: C7_10  and  N2_11 
REMARK    7  A    between atoms: N2_11  and  O1_12 
REMARK       I    between atoms: N2_11  and  C8_14 
REMARK    8  A    between atoms: C8_14  and  C9_16 
ROOT
HETATM    1  C9  UNL     1      37.025  25.760   7.915  1.00  0.00     0.002 C 
HETATM    2  C10 UNL     1      36.272  25.986   6.646  1.00  0.00     0.044 C 
HETATM    3  C11 UNL     1      36.708  25.257   5.425  1.00  0.00    -0.021 C 
HETATM    4  C12 UNL     1      36.260  24.004   5.434  1.00  0.00    -0.020 C 
HETATM    5  C13 UNL     1      35.513  23.883   6.702  1.00  0.00    -0.014 C 
HETATM    6  C14 UNL     1      34.954  25.230   6.782  1.00  0.00     0.027 C 
HETATM    7  C15 UNL     1      36.608  23.461   7.653  1.00  0.00     0.023 C 
HETATM    8  C16 UNL     1      36.680  24.563   8.715  1.00  0.00     0.022 C 
HETATM    9  C17 UNL     1      35.493  24.436   9.534  1.00  0.00     0.010 C 
HETATM   10  C18 UNL     1      34.718  23.121   9.360  1.00  0.00     0.007 C 
HETATM   11  C19 UNL     1      33.885  22.958   8.169  1.00  0.00     0.002 C 
HETATM   12  C20 UNL     1      32.807  21.906   8.434  1.00  0.00    -0.043 C 
HETATM   13  C21 UNL     1      33.215  20.938   9.532  1.00  0.00     0.015 C 
HETATM   14  C22 UNL     1      31.524  22.557   8.983  1.00  0.00     0.015 C 
HETATM   15  C23 UNL     1      32.438  21.120   7.239  1.00  0.00     0.009 C 
HETATM   16  C24 UNL     1      32.445  21.811   5.931  1.00  0.00     0.002 C 
HETATM   17  C25 UNL     1      33.379  22.977   5.805  1.00  0.00     0.010 C 
HETATM   18  C26 UNL     1      34.506  22.784   6.824  1.00  0.00    -0.029 C 
HETATM   19  C27 UNL     1      35.198  21.498   6.551  1.00  0.00     0.016 C 
ENDROOT
BRANCH   1  20
HETATM   20  C8  UNL     1      37.181  27.000   8.678  1.00  0.00     0.270 C 
HETATM   21  N2  UNL     1      38.378  27.723   8.894  1.00  0.00    -0.225 N 
HETATM   22  O2  UNL     1      36.124  27.473   9.199  1.00  0.00    -0.266 OA
BRANCH  21  23
HETATM   23  C7  UNL     1      39.692  27.365   8.435  1.00  0.00     0.161 C 
BRANCH  23  24
HETATM   24  C6  UNL     1      40.140  27.979   7.158  1.00  0.00     0.050 C 
BRANCH  24  25
HETATM   25  C5  UNL     1      39.957  27.026   5.972  1.00  0.00     0.234 C 
BRANCH  25  26
HETATM   26  N1  UNL     1      40.253  25.662   6.288  1.00  0.00    -0.072 N 
ATOM     27  H12 UNL     1      39.424  25.121   6.533  1.00  0.00     0.277 HD
ATOM     28  H11 UNL     1      40.747  25.558   7.175  1.00  0.00     0.277 HD
BRANCH  26  29
HETATM   29  C4  UNL     1      40.986  25.100   5.159  1.00  0.00     0.265 C 
BRANCH  29  30
HETATM   30  C2  UNL     1      40.114  24.071   4.563  1.00  0.00    -0.068 C 
HETATM   31  C1  UNL     1      39.798  22.956   5.193  1.00  0.00     0.015 C 
HETATM   32  C3  UNL     1      39.566  24.290   3.197  1.00  0.00     0.044 C 
ENDBRANCH  29  30
ENDBRANCH  26  29
ENDBRANCH  25  26
ENDBRANCH  24  25
ENDBRANCH  23  24
ENDBRANCH  21  23
BRANCH  21  33
HETATM   33  O1  UNL     1      38.351  28.908   9.612  1.00  0.00    -0.285 OA
ATOM     34  H1  UNL     1      39.204  29.166   9.943  1.00  0.00     0.245 HD
ENDBRANCH  21  33
ENDBRANCH   1  20
TORSDOF 8
ENDMDL
MODEL 3
REMARK VINA RESULT: -8.695377602      1.667      2.851
REMARK  8 active torsions:
REMARK  status: ('A' for Active; 'I' for Inactive)
REMARK    1  A    between atoms: C2_2  and  C4_4 
REMARK    2  A    between atoms: C4_4  and  N1_5 
REMARK    3  A    between atoms: N1_5  and  C5_8 
REMARK    4  A    between atoms: C5_8  and  C6_9 
REMARK    5  A    between atoms: C6_9  and  C7_10 
REMARK    6  A    between atoms: C7_10  and  N2_11 
REMARK    7  A    between atoms: N2_11  and  O1_12 
REMARK       I    between atoms: N2_11  and  C8_14 
REMARK    8  A    between atoms: C8_14  and  C9_16 
ROOT
HETATM    1  C9  UNL     1      37.036  25.629   7.556  1.00  0.00     0.002 C 
HETATM    2  C10 UNL     1      36.246  25.791   6.300  1.00  0.00     0.044 C 
HETATM    3  C11 UNL     1      36.630  24.982   5.113  1.00  0.00    -0.021 C 
HETATM    4  C12 UNL     1      36.162  23.740   5.213  1.00  0.00    -0.020 C 
HETATM    5  C13 UNL     1      35.455  23.710   6.508  1.00  0.00    -0.014 C 
HETATM    6  C14 UNL     1      34.921  25.070   6.524  1.00  0.00     0.027 C 
HETATM    7  C15 UNL     1      36.573  23.326   7.448  1.00  0.00     0.023 C 
HETATM    8  C16 UNL     1      36.699  24.489   8.438  1.00  0.00     0.022 C 
HETATM    9  C17 UNL     1      35.537  24.434   9.301  1.00  0.00     0.010 C 
HETATM   10  C18 UNL     1      34.736  23.125   9.232  1.00  0.00     0.007 C 
HETATM   11  C19 UNL     1      33.862  22.905   8.080  1.00  0.00     0.002 C 
HETATM   12  C20 UNL     1      32.775  21.892   8.443  1.00  0.00    -0.043 C 
HETATM   13  C21 UNL     1      33.203  20.984   9.584  1.00  0.00     0.015 C 
HETATM   14  C22 UNL     1      31.522  22.598   8.992  1.00  0.00     0.015 C 
HETATM   15  C23 UNL     1      32.355  21.042   7.310  1.00  0.00     0.009 C 
HETATM   16  C24 UNL     1      32.330  21.652   5.963  1.00  0.00     0.002 C 
HETATM   17  C25 UNL     1      33.278  22.791   5.736  1.00  0.00     0.010 C 
HETATM   18  C26 UNL     1      34.435  22.639   6.730  1.00  0.00    -0.029 C 
HETATM   19  C27 UNL     1      35.096  21.326   6.514  1.00  0.00     0.016 C 
ENDROOT
BRANCH   1  20
HETATM   20  C8  UNL     1      37.238  26.910   8.237  1.00  0.00     0.270 C 
HETATM   21  N2  UNL     1      38.365  27.303   8.996  1.00  0.00    -0.225 N 
HETATM   22  O2  UNL     1      36.297  27.755   8.129  1.00  0.00    -0.266 OA
BRANCH  21  23
HETATM   23  C7  UNL     1      39.528  26.507   9.283  1.00  0.00     0.161 C 
BRANCH  23  24
HETATM   24  C6  UNL     1      40.797  27.245   9.513  1.00  0.00     0.050 C 
BRANCH  24  25
HETATM   25  C5  UNL     1      41.910  26.772   8.573  1.00  0.00     0.234 C 
BRANCH  25  26
HETATM   26  N1  UNL     1      41.884  27.412   7.293  1.00  0.00    -0.072 N 
ATOM     27  H12 UNL     1      42.595  28.136   7.195  1.00  0.00     0.277 HD
ATOM     28  H11 UNL     1      41.067  28.009   7.164  1.00  0.00     0.277 HD
BRANCH  26  29
HETATM   29  C4  UNL     1      41.991  26.368   6.280  1.00  0.00     0.265 C 
BRANCH  29  30
HETATM   30  C2  UNL     1      40.618  26.079   5.827  1.00  0.00    -0.068 C 
HETATM   31  C1  UNL     1      40.141  24.852   5.742  1.00  0.00     0.015 C 
HETATM   32  C3  UNL     1      39.728  27.210   5.448  1.00  0.00     0.044 C 
ENDBRANCH  29  30
ENDBRANCH  26  29
ENDBRANCH  25  26
ENDBRANCH  24  25
ENDBRANCH  23  24
ENDBRANCH  21  23
BRANCH  21  33
HETATM   33  O1  UNL     1      38.420  28.573   9.548  1.00  0.00    -0.285 OA
ATOM     34  H1  UNL     1      37.868  29.202   9.099  1.00  0.00     0.245 HD
ENDBRANCH  21  33
ENDBRANCH   1  20
TORSDOF 8
ENDMDL
MODEL 4
REMARK VINA RESULT: -8.596081474      4.452      8.970
REMARK  8 active torsions:
REMARK  status: ('A' for Active; 'I' for Inactive)
REMARK    1  A    between atoms: C2_2  and  C4_4 
REMARK    2  A    between atoms: C4_4  and  N1_5 
REMARK    3  A    between atoms: N1_5  and  C5_8 
REMARK    4  A    between atoms: C5_8  and  C6_9 
REMARK    5  A    between atoms: C6_9  and  C7_10 
REMARK    6  A    between atoms: C7_10  and  N2_11 
REMARK    7  A    between atoms: N2_11  and  O1_12 
REMARK       I    between atoms: N2_11  and  C8_14 
REMARK    8  A    between atoms: C8_14  and  C9_16 
ROOT
HETATM    1  C9  UNL     1      35.337  22.733   8.031  1.00  0.00     0.002 C 
HETATM    2  C10 UNL     1      34.601  23.343   9.178  1.00  0.00     0.044 C 
HETATM    3  C11 UNL     1      35.355  23.640  10.424  1.00  0.00    -0.021 C 
HETATM    4  C12 UNL     1      36.047  24.770  10.304  1.00  0.00    -0.020 C 
HETATM    5  C13 UNL     1      35.760  25.240   8.934  1.00  0.00    -0.014 C 
HETATM    6  C14 UNL     1      34.369  24.806   8.816  1.00  0.00     0.027 C 
HETATM    7  C15 UNL     1      36.840  24.537   8.147  1.00  0.00     0.023 C 
HETATM    8  C16 UNL     1      36.104  23.639   7.147  1.00  0.00     0.022 C 
HETATM    9  C17 UNL     1      35.515  24.511   6.153  1.00  0.00     0.010 C 
HETATM   10  C18 UNL     1      36.037  25.955   6.161  1.00  0.00     0.007 C 
HETATM   11  C19 UNL     1      35.558  26.861   7.206  1.00  0.00     0.002 C 
HETATM   12  C20 UNL     1      35.715  28.310   6.743  1.00  0.00    -0.043 C 
HETATM   13  C21 UNL     1      36.798  28.456   5.687  1.00  0.00     0.015 C 
HETATM   14  C22 UNL     1      34.444  28.803   6.028  1.00  0.00     0.015 C 
HETATM   15  C23 UNL     1      36.010  29.254   7.841  1.00  0.00     0.009 C 
HETATM   16  C24 UNL     1      35.388  28.996   9.157  1.00  0.00     0.002 C 
HETATM   17  C25 UNL     1      35.060  27.566   9.464  1.00  0.00     0.010 C 
HETATM   18  C26 UNL     1      35.989  26.684   8.622  1.00  0.00    -0.029 C 
HETATM   19  C27 UNL     1      37.401  27.005   8.953  1.00  0.00     0.016 C 
ENDROOT
BRANCH   1  20
HETATM   20  C8  UNL     1      34.526  21.725   7.344  1.00  0.00     0.270 C 
HETATM   21  N2  UNL     1      33.221  21.302   7.686  1.00  0.00    -0.225 N 
HETATM   22  O2  UNL     1      35.059  21.176   6.330  1.00  0.00    -0.266 OA
BRANCH  21  23
HETATM   23  C7  UNL     1      32.438  21.753   8.805  1.00  0.00     0.161 C 
BRANCH  23  24
HETATM   24  C6  UNL     1      32.002  20.712   9.771  1.00  0.00     0.050 C 
BRANCH  24  25
HETATM   25  C5  UNL     1      30.809  21.178  10.612  1.00  0.00     0.234 C 
BRANCH  25  26
HETATM   26  N1  UNL     1      30.686  20.485  11.858  1.00  0.00    -0.072 N 
ATOM     27  H12 UNL     1      29.743  20.525  12.245  1.00  0.00     0.277 HD
ATOM     28  H11 UNL     1      31.165  20.957  12.624  1.00  0.00     0.277 HD
BRANCH  26  29
HETATM   29  C4  UNL     1      31.157  19.120  11.648  1.00  0.00     0.265 C 
BRANCH  29  30
HETATM   30  C2  UNL     1      29.993  18.238  11.853  1.00  0.00    -0.068 C 
HETATM   31  C1  UNL     1      28.988  18.561  12.645  1.00  0.00     0.015 C 
HETATM   32  C3  UNL     1      29.942  16.930  11.145  1.00  0.00     0.044 C 
ENDBRANCH  29  30
ENDBRANCH  26  29
ENDBRANCH  25  26
ENDBRANCH  24  25
ENDBRANCH  23  24
ENDBRANCH  21  23
BRANCH  21  33
HETATM   33  O1  UNL     1      32.571  20.360   6.906  1.00  0.00    -0.285 OA
ATOM     34  H1  UNL     1      32.733  20.466   5.976  1.00  0.00     0.245 HD
ENDBRANCH  21  33
ENDBRANCH   1  20
TORSDOF 8
ENDMDL
MODEL 5
REMARK VINA RESULT: -8.491716256      4.208      7.192
REMARK  8 active torsions:
REMARK  status: ('A' for Active; 'I' for Inactive)
REMARK    1  A    between atoms: C2_2  and  C4_4 
REMARK    2  A    between atoms: C4_4  and  N1_5 
REMARK    3  A    between atoms: N1_5  and  C5_8 
REMARK    4  A    between atoms: C5_8  and  C6_9 
REMARK    5  A    between atoms: C6_9  and  C7_10 
REMARK    6  A    between atoms: C7_10  and  N2_11 
REMARK    7  A    between atoms: N2_11  and  O1_12 
REMARK       I    between atoms: N2_11  and  C8_14 
REMARK    8  A    between atoms: C8_14  and  C9_16 
ROOT
HETATM    1  C9  UNL     1      34.716  22.815   8.785  1.00  0.00     0.002 C 
HETATM    2  C10 UNL     1      34.340  23.664   9.954  1.00  0.00     0.044 C 
HETATM    3  C11 UNL     1      35.363  23.920  11.001  1.00  0.00    -0.021 C 
HETATM    4  C12 UNL     1      36.208  24.874  10.618  1.00  0.00    -0.020 C 
HETATM    5  C13 UNL     1      35.747  25.261   9.270  1.00  0.00    -0.014 C 
HETATM    6  C14 UNL     1      34.306  25.104   9.453  1.00  0.00     0.027 C 
HETATM    7  C15 UNL     1      36.510  24.287   8.403  1.00  0.00     0.023 C 
HETATM    8  C16 UNL     1      35.444  23.463   7.671  1.00  0.00     0.022 C 
HETATM    9  C17 UNL     1      34.836  24.339   6.691  1.00  0.00     0.010 C 
HETATM   10  C18 UNL     1      35.599  25.645   6.422  1.00  0.00     0.007 C 
HETATM   11  C19 UNL     1      35.503  26.721   7.408  1.00  0.00     0.002 C 
HETATM   12  C20 UNL     1      35.822  28.060   6.742  1.00  0.00    -0.043 C 
HETATM   13  C21 UNL     1      36.686  27.888   5.504  1.00  0.00     0.015 C 
HETATM   14  C22 UNL     1      34.544  28.728   6.202  1.00  0.00     0.015 C 
HETATM   15  C23 UNL     1      36.490  29.025   7.640  1.00  0.00     0.009 C 
HETATM   16  C24 UNL     1      36.102  29.020   9.067  1.00  0.00     0.002 C 
HETATM   17  C25 UNL     1      35.591  27.719   9.609  1.00  0.00     0.010 C 
HETATM   18  C26 UNL     1      36.164  26.595   8.738  1.00  0.00    -0.029 C 
HETATM   19  C27 UNL     1      37.648  26.658   8.774  1.00  0.00     0.016 C 
ENDROOT
BRANCH   1  20
HETATM   20  C8  UNL     1      33.620  21.929   8.385  1.00  0.00     0.270 C 
HETATM   21  N2  UNL     1      33.699  20.814   7.519  1.00  0.00    -0.225 N 
HETATM   22  O2  UNL     1      32.479  22.195   8.874  1.00  0.00    -0.266 OA
BRANCH  21  23
HETATM   23  C7  UNL     1      34.868  20.346   6.826  1.00  0.00     0.161 C 
BRANCH  23  24
HETATM   24  C6  UNL     1      35.077  20.867   5.450  1.00  0.00     0.050 C 
BRANCH  24  25
HETATM   25  C5  UNL     1      36.565  21.000   5.110  1.00  0.00     0.234 C 
BRANCH  25  26
HETATM   26  N1  UNL     1      36.922  22.298   4.624  1.00  0.00    -0.072 N 
ATOM     27  H12 UNL     1      36.273  23.026   4.920  1.00  0.00     0.277 HD
ATOM     28  H11 UNL     1      36.786  22.398   3.619  1.00  0.00     0.277 HD
BRANCH  26  29
HETATM   29  C4  UNL     1      38.296  22.558   5.041  1.00  0.00     0.265 C 
BRANCH  29  30
HETATM   30  C2  UNL     1      38.493  24.017   4.951  1.00  0.00    -0.068 C 
HETATM   31  C1  UNL     1      39.109  24.710   5.890  1.00  0.00     0.015 C 
HETATM   32  C3  UNL     1      37.976  24.745   3.760  1.00  0.00     0.044 C 
ENDBRANCH  29  30
ENDBRANCH  26  29
ENDBRANCH  25  26
ENDBRANCH  24  25
ENDBRANCH  23  24
ENDBRANCH  21  23
BRANCH  21  33
HETATM   33  O1  UNL     1      32.571  20.049   7.270  1.00  0.00    -0.285 OA
ATOM     34  H1  UNL     1      32.730  19.328   6.672  1.00  0.00     0.245 HD
ENDBRANCH  21  33
ENDBRANCH   1  20
TORSDOF 8
ENDMDL
