MODEL 1
REMARK VINA RESULT: -7.918128266      0.000      0.000
REMARK  11 active torsions:
REMARK  status: ('A' for Active; 'I' for Inactive)
REMARK    1  A    between atoms: C2_2  and  C3_3 
REMARK    2  A    between atoms: C3_3  and  N1_4 
REMARK    3  A    between atoms: N1_4  and  N2_5 
REMARK       I    between atoms: N1_4  and  C11_17 
REMARK    4  A    between atoms: N2_5  and  C4_7 
REMARK    5  A    between atoms: C4_7  and  N3_9 
REMARK    6  A    between atoms: N3_9  and  C5_11 
REMARK    7  A    between atoms: C5_11  and  C6_12 
REMARK    8  A    between atoms: C6_12  and  C7_13 
REMARK    9  A    between atoms: C11_17  and  C12_19 
REMARK   10  A    between atoms: C12_19  and  C13_20 
REMARK   11  A    between atoms: C15_22  and  C16_23 
ROOT
HETATM    1  N1  UNL     1      35.681  26.578   8.283  1.00  0.00    -0.259 N 
HETATM    2  C11 UNL     1      35.944  25.275   8.772  1.00  0.00     0.238 C 
HETATM    3  O1  UNL     1      36.211  25.161  10.013  1.00  0.00    -0.272 OA
ENDROOT
BRANCH   1   4
HETATM    4  C3  UNL     1      35.717  27.719   9.183  1.00  0.00     0.152 C 
BRANCH   4   5
HETATM    5  C2  UNL     1      34.982  28.915   8.657  1.00  0.00     0.017 C 
HETATM    6  C1  UNL     1      35.735  30.209   8.999  1.00  0.00     0.007 C 
ENDBRANCH   4   5
ENDBRANCH   1   4
BRANCH   1   7
HETATM    7  N2  UNL     1      35.393  26.882   6.959  1.00  0.00    -0.272 N 
ATOM      8  H2  UNL     1      34.428  27.105   6.715  1.00  0.00     0.189 HD
BRANCH   7   9
HETATM    9  C4  UNL     1      36.361  26.899   5.935  1.00  0.00     0.186 C 
HETATM   10  S1  UNL     1      37.826  27.563   6.188  1.00  0.00    -0.040 SA
BRANCH   9  11
HETATM   11  N3  UNL     1      36.107  26.353   4.641  1.00  0.00    -0.366 N 
ATOM     12  H3  UNL     1      35.253  26.638   4.162  1.00  0.00     0.161 HD
BRANCH  11  13
HETATM   13  C5  UNL     1      36.974  25.432   3.972  1.00  0.00     0.123 C 
BRANCH  13  14
HETATM   14  C6  UNL     1      36.595  24.014   4.315  1.00  0.00     0.028 C 
BRANCH  14  15
HETATM   15  C7  UNL     1      37.816  23.152   4.549  1.00  0.00    -0.050 C 
HETATM   16  C8  UNL     1      37.355  21.810   5.058  1.00  0.00     0.014 C 
HETATM   17  C9  UNL     1      38.600  22.954   3.266  1.00  0.00     0.014 C 
HETATM   18  C10 UNL     1      38.759  23.786   5.546  1.00  0.00     0.014 C 
ENDBRANCH  14  15
ENDBRANCH  13  14
ENDBRANCH  11  13
ENDBRANCH   9  11
ENDBRANCH   7   9
ENDBRANCH   1   7
BRANCH   2  19
HETATM   19  C12 UNL     1      35.938  24.054   7.969  1.00  0.00     0.109 C 
BRANCH  19  20
HETATM   20  C13 UNL     1      34.966  23.015   8.439  1.00  0.00    -0.001 C 
HETATM   21  C14 UNL     1      33.611  23.517   8.803  1.00  0.00     0.015 C 
HETATM   22  C15 UNL     1      32.610  22.387   8.886  1.00  0.00    -0.040 C 
HETATM   23  C18 UNL     1      31.809  22.181   7.642  1.00  0.00     0.014 C 
HETATM   24  C22 UNL     1      33.363  21.110   9.184  1.00  0.00     0.014 C 
HETATM   25  C19 UNL     1      32.607  21.611   6.495  1.00  0.00    -0.013 C 
HETATM   26  C20 UNL     1      33.231  20.278   6.890  1.00  0.00     0.010 C 
HETATM   27  C24 UNL     1      33.856  22.454   6.301  1.00  0.00     0.010 C 
HETATM   28  C21 UNL     1      34.195  20.743   7.979  1.00  0.00    -0.009 C 
HETATM   29  C23 UNL     1      34.811  21.961   7.353  1.00  0.00    -0.005 C 
BRANCH  22  30
HETATM   30  C16 UNL     1      31.638  22.694  10.021  1.00  0.00     0.005 C 
HETATM   31  C17 UNL     1      30.862  21.430  10.307  1.00  0.00     0.006 C 
ENDBRANCH  22  30
ENDBRANCH  19  20
ENDBRANCH   2  19
TORSDOF 11
ENDMDL
MODEL 2
REMARK VINA RESULT: -7.672215718      2.058      4.869
REMARK  11 active torsions:
REMARK  status: ('A' for Active; 'I' for Inactive)
REMARK    1  A    between atoms: C2_2  and  C3_3 
REMARK    2  A    between atoms: C3_3  and  N1_4 
REMARK    3  A    between atoms: N1_4  and  N2_5 
REMARK       I    between atoms: N1_4  and  C11_17 
REMARK    4  A    between atoms: N2_5  and  C4_7 
REMARK    5  A    between atoms: C4_7  and  N3_9 
REMARK    6  A    between atoms: N3_9  and  C5_11 
REMARK    7  A    between atoms: C5_11  and  C6_12 
REMARK    8  A    between atoms: C6_12  and  C7_13 
REMARK    9  A    between atoms: C11_17  and  C12_19 
REMARK   10  A    between atoms: C12_19  and  C13_20 
REMARK   11  A    between atoms: C15_22  and  C16_23 
ROOT
HETATM    1  N1  UNL     1      38.466  23.699   5.388  1.00  0.00    -0.259 N 
HETATM    2  C11 UNL     1      37.275  22.934   5.392  1.00  0.00     0.238 C 
HETATM    3  O1  UNL     1      37.371  21.705   5.067  1.00  0.00    -0.272 OA
ENDROOT
BRANCH   1   4
HETATM    4  C3  UNL     1      39.732  23.084   5.025  1.00  0.00     0.152 C 
BRANCH   4   5
HETATM    5  C2  UNL     1      40.191  23.437   3.643  1.00  0.00     0.017 C 
HETATM    6  C1  UNL     1      39.950  22.270   2.675  1.00  0.00     0.007 C 
ENDBRANCH   4   5
ENDBRANCH   1   4
BRANCH   1   7
HETATM    7  N2  UNL     1      38.537  25.052   5.697  1.00  0.00    -0.272 N 
ATOM      8  H2  UNL     1      38.346  25.726   4.956  1.00  0.00     0.189 HD
BRANCH   7   9
HETATM    9  C4  UNL     1      38.859  25.542   6.979  1.00  0.00     0.186 C 
HETATM   10  S1  UNL     1      40.196  26.441   7.212  1.00  0.00    -0.040 SA
BRANCH   9  11
HETATM   11  N3  UNL     1      38.047  25.272   8.121  1.00  0.00    -0.366 N 
ATOM     12  H3  UNL     1      38.052  24.323   8.496  1.00  0.00     0.161 HD
BRANCH  11  13
HETATM   13  C5  UNL     1      37.227  26.245   8.774  1.00  0.00     0.123 C 
BRANCH  13  14
HETATM   14  C6  UNL     1      36.091  26.662   7.875  1.00  0.00     0.028 C 
BRANCH  14  15
HETATM   15  C7  UNL     1      35.617  28.063   8.191  1.00  0.00    -0.050 C 
HETATM   16  C8  UNL     1      34.983  28.049   9.558  1.00  0.00     0.014 C 
HETATM   17  C9  UNL     1      36.772  29.045   8.189  1.00  0.00     0.014 C 
HETATM   18  C10 UNL     1      34.621  28.555   7.165  1.00  0.00     0.014 C 
ENDBRANCH  14  15
ENDBRANCH  13  14
ENDBRANCH  11  13
ENDBRANCH   9  11
ENDBRANCH   7   9
ENDBRANCH   1   7
BRANCH   2  19
HETATM   19  C12 UNL     1      35.947  23.438   5.737  1.00  0.00     0.109 C 
BRANCH  19  20
HETATM   20  C13 UNL     1      35.313  22.749   6.907  1.00  0.00    -0.001 C 
HETATM   21  C14 UNL     1      34.463  23.609   7.779  1.00  0.00     0.015 C 
HETATM   22  C15 UNL     1      33.577  22.775   8.677  1.00  0.00    -0.040 C 
HETATM   23  C18 UNL     1      32.195  22.559   8.151  1.00  0.00     0.014 C 
HETATM   24  C22 UNL     1      34.231  21.425   8.864  1.00  0.00     0.014 C 
HETATM   25  C19 UNL     1      32.139  21.635   6.958  1.00  0.00    -0.013 C 
HETATM   26  C20 UNL     1      32.737  20.277   7.307  1.00  0.00     0.010 C 
HETATM   27  C24 UNL     1      33.136  22.117   5.918  1.00  0.00     0.010 C 
HETATM   28  C21 UNL     1      34.191  20.678   7.553  1.00  0.00    -0.009 C 
HETATM   29  C23 UNL     1      34.463  21.596   6.397  1.00  0.00    -0.005 C 
BRANCH  22  30
HETATM   30  C16 UNL     1      33.457  23.487  10.021  1.00  0.00     0.005 C 
HETATM   31  C17 UNL     1      34.817  24.057  10.353  1.00  0.00     0.006 C 
ENDBRANCH  22  30
ENDBRANCH  19  20
ENDBRANCH   2  19
TORSDOF 11
ENDMDL
MODEL 3
REMARK VINA RESULT: -7.647961070      2.478      5.747
REMARK  11 active torsions:
REMARK  status: ('A' for Active; 'I' for Inactive)
REMARK    1  A    between atoms: C2_2  and  C3_3 
REMARK    2  A    between atoms: C3_3  and  N1_4 
REMARK    3  A    between atoms: N1_4  and  N2_5 
REMARK       I    between atoms: N1_4  and  C11_17 
REMARK    4  A    between atoms: N2_5  and  C4_7 
REMARK    5  A    between atoms: C4_7  and  N3_9 
REMARK    6  A    between atoms: N3_9  and  C5_11 
REMARK    7  A    between atoms: C5_11  and  C6_12 
REMARK    8  A    between atoms: C6_12  and  C7_13 
REMARK    9  A    between atoms: C11_17  and  C12_19 
REMARK   10  A    between atoms: C12_19  and  C13_20 
REMARK   11  A    between atoms: C15_22  and  C16_23 
ROOT
HETATM    1  N1  UNL     1      33.455  22.761   9.280  1.00  0.00    -0.259 N 
HETATM    2  C11 UNL     1      34.031  23.696  10.174  1.00  0.00     0.238 C 
HETATM    3  O1  UNL     1      33.271  24.188  11.071  1.00  0.00    -0.272 OA
ENDROOT
BRANCH   1   4
HETATM    4  C3  UNL     1      32.054  22.394   9.405  1.00  0.00     0.152 C 
BRANCH   4   5
HETATM    5  C2  UNL     1      31.845  20.943   9.716  1.00  0.00     0.017 C 
HETATM    6  C1  UNL     1      30.768  20.770  10.797  1.00  0.00     0.007 C 
ENDBRANCH   4   5
ENDBRANCH   1   4
BRANCH   1   7
HETATM    7  N2  UNL     1      34.134  22.145   8.236  1.00  0.00    -0.272 N 
ATOM      8  H2  UNL     1      34.783  21.391   8.462  1.00  0.00     0.189 HD
BRANCH   7   9
HETATM    9  C4  UNL     1      33.974  22.506   6.882  1.00  0.00     0.186 C 
HETATM   10  S1  UNL     1      32.756  21.887   5.997  1.00  0.00    -0.040 SA
BRANCH   9  11
HETATM   11  N3  UNL     1      34.864  23.409   6.228  1.00  0.00    -0.366 N 
ATOM     12  H3  UNL     1      34.982  24.338   6.631  1.00  0.00     0.161 HD
BRANCH  11  13
HETATM   13  C5  UNL     1      35.601  23.095   5.042  1.00  0.00     0.123 C 
BRANCH  13  14
HETATM   14  C6  UNL     1      36.949  22.524   5.399  1.00  0.00     0.028 C 
BRANCH  14  15
HETATM   15  C7  UNL     1      38.041  23.080   4.511  1.00  0.00    -0.050 C 
HETATM   16  C8  UNL     1      37.559  24.384   3.931  1.00  0.00     0.014 C 
HETATM   17  C9  UNL     1      39.314  23.327   5.299  1.00  0.00     0.014 C 
HETATM   18  C10 UNL     1      38.394  22.119   3.399  1.00  0.00     0.014 C 
ENDBRANCH  14  15
ENDBRANCH  13  14
ENDBRANCH  11  13
ENDBRANCH   9  11
ENDBRANCH   7   9
ENDBRANCH   1   7
BRANCH   2  19
HETATM   19  C12 UNL     1      35.422  24.144  10.149  1.00  0.00     0.109 C 
BRANCH  19  20
HETATM   20  C13 UNL     1      35.729  25.136   9.069  1.00  0.00    -0.001 C 
HETATM   21  C14 UNL     1      35.521  26.567   9.430  1.00  0.00     0.015 C 
HETATM   22  C15 UNL     1      36.208  27.488   8.446  1.00  0.00    -0.040 C 
HETATM   23  C18 UNL     1      37.564  27.947   8.874  1.00  0.00     0.014 C 
HETATM   24  C22 UNL     1      36.348  26.754   7.131  1.00  0.00     0.014 C 
HETATM   25  C19 UNL     1      38.609  26.859   8.842  1.00  0.00    -0.013 C 
HETATM   26  C20 UNL     1      38.723  26.270   7.441  1.00  0.00     0.010 C 
HETATM   27  C24 UNL     1      38.087  25.654   9.606  1.00  0.00     0.010 C 
HETATM   28  C21 UNL     1      37.342  25.632   7.303  1.00  0.00    -0.009 C 
HETATM   29  C23 UNL     1      37.175  24.957   8.634  1.00  0.00    -0.005 C 
BRANCH  22  30
HETATM   30  C16 UNL     1      35.334  28.725   8.261  1.00  0.00     0.005 C 
HETATM   31  C17 UNL     1      34.619  28.579   6.938  1.00  0.00     0.006 C 
ENDBRANCH  22  30
ENDBRANCH  19  20
ENDBRANCH   2  19
TORSDOF 11
ENDMDL
MODEL 4
REMARK VINA RESULT: -7.621487333      1.880      4.735
REMARK  11 active torsions:
REMARK  status: ('A' for Active; 'I' for Inactive)
REMARK    1  A    between atoms: C2_2  and  C3_3 
REMARK    2  A    between atoms: C3_3  and  N1_4 
REMARK    3  A    between atoms: N1_4  and  N2_5 
REMARK       I    between atoms: N1_4  and  C11_17 
REMARK    4  A    between atoms: N2_5  and  C4_7 
REMARK    5  A    between atoms: C4_7  and  N3_9 
REMARK    6  A    between atoms: N3_9  and  C5_11 
REMARK    7  A    between atoms: C5_11  and  C6_12 
REMARK    8  A    between atoms: C6_12  and  C7_13 
REMARK    9  A    between atoms: C11_17  and  C12_19 
REMARK   10  A    between atoms: C12_19  and  C13_20 
REMARK   11  A    between atoms: C15_22  and  C16_23 
ROOT
HETATM    1  N1  UNL     1      36.879  23.288   4.497  1.00  0.00    -0.259 N 
HETATM    2  C11 UNL     1      36.058  22.356   5.175  1.00  0.00     0.238 C 
HETATM    3  O1  UNL     1      36.516  21.177   5.326  1.00  0.00    -0.272 OA
ENDROOT
BRANCH   1   4
HETATM    4  C3  UNL     1      38.188  22.891   4.005  1.00  0.00     0.152 C 
BRANCH   4   5
HETATM    5  C2  UNL     1      39.243  22.871   5.068  1.00  0.00     0.017 C 
HETATM    6  C1  UNL     1      40.396  23.818   4.707  1.00  0.00     0.007 C 
ENDBRANCH   4   5
ENDBRANCH   1   4
BRANCH   1   7
HETATM    7  N2  UNL     1      36.527  24.606   4.232  1.00  0.00    -0.272 N 
ATOM      8  H2  UNL     1      35.795  24.780   3.543  1.00  0.00     0.189 HD
BRANCH   7   9
HETATM    9  C4  UNL     1      37.127  25.715   4.862  1.00  0.00     0.186 C 
HETATM   10  S1  UNL     1      37.511  27.047   4.009  1.00  0.00    -0.040 SA
BRANCH   9  11
HETATM   11  N3  UNL     1      37.431  25.723   6.256  1.00  0.00    -0.366 N 
ATOM     12  H3  UNL     1      37.980  24.948   6.629  1.00  0.00     0.161 HD
BRANCH  11  13
HETATM   13  C5  UNL     1      37.015  26.746   7.165  1.00  0.00     0.123 C 
BRANCH  13  14
HETATM   14  C6  UNL     1      35.516  26.905   7.125  1.00  0.00     0.028 C 
BRANCH  14  15
HETATM   15  C7  UNL     1      35.106  28.353   7.275  1.00  0.00    -0.050 C 
HETATM   16  C8  UNL     1      33.922  28.603   6.376  1.00  0.00     0.014 C 
HETATM   17  C9  UNL     1      34.716  28.665   8.707  1.00  0.00     0.014 C 
HETATM   18  C10 UNL     1      36.235  29.290   6.913  1.00  0.00     0.014 C 
ENDBRANCH  14  15
ENDBRANCH  13  14
ENDBRANCH  11  13
ENDBRANCH   9  11
ENDBRANCH   7   9
ENDBRANCH   1   7
BRANCH   2  19
HETATM   19  C12 UNL     1      34.728  22.636   5.714  1.00  0.00     0.109 C 
BRANCH  19  20
HETATM   20  C13 UNL     1      34.589  22.363   7.181  1.00  0.00    -0.001 C 
HETATM   21  C14 UNL     1      34.350  23.557   8.040  1.00  0.00     0.015 C 
HETATM   22  C15 UNL     1      33.846  23.157   9.408  1.00  0.00    -0.040 C 
HETATM   23  C18 UNL     1      32.360  23.198   9.554  1.00  0.00     0.014 C 
HETATM   24  C22 UNL     1      34.313  21.747   9.690  1.00  0.00     0.014 C 
HETATM   25  C19 UNL     1      31.646  22.109   8.790  1.00  0.00    -0.013 C 
HETATM   26  C20 UNL     1      32.135  20.736   9.238  1.00  0.00     0.010 C 
HETATM   27  C24 UNL     1      32.133  22.120   7.351  1.00  0.00     0.010 C 
HETATM   28  C21 UNL     1      33.587  20.799   8.767  1.00  0.00    -0.009 C 
HETATM   29  C23 UNL     1      33.445  21.384   7.392  1.00  0.00    -0.005 C 
BRANCH  22  30
HETATM   30  C16 UNL     1      34.441  24.118  10.434  1.00  0.00     0.005 C 
HETATM   31  C17 UNL     1      35.817  24.506   9.944  1.00  0.00     0.006 C 
ENDBRANCH  22  30
ENDBRANCH  19  20
ENDBRANCH   2  19
TORSDOF 11
ENDMDL
MODEL 5
REMARK VINA RESULT: -7.616574083      2.277      4.723
REMARK  11 active torsions:
REMARK  status: ('A' for Active; 'I' for Inactive)
REMARK    1  A    between atoms: C2_2  and  C3_3 
REMARK    2  A    between atoms: C3_3  and  N1_4 
REMARK    3  A    between atoms: N1_4  and  N2_5 
REMARK       I    between atoms: N1_4  and  C11_17 
REMARK    4  A    between atoms: N2_5  and  C4_7 
REMARK    5  A    between atoms: C4_7  and  N3_9 
REMARK    6  A    between atoms: N3_9  and  C5_11 
REMARK    7  A    between atoms: C5_11  and  C6_12 
REMARK    8  A    between atoms: C6_12  and  C7_13 
REMARK    9  A    between atoms: C11_17  and  C12_19 
REMARK   10  A    between atoms: C12_19  and  C13_20 
REMARK   11  A    between atoms: C15_22  and  C16_23 
ROOT
HETATM    1  N1  UNL     1      38.072  23.357   4.217  1.00  0.00    -0.259 N 
HETATM    2  C11 UNL     1      37.081  22.686   4.974  1.00  0.00     0.238 C 
HETATM    3  O1  UNL     1      37.302  21.466   5.272  1.00  0.00    -0.272 OA
ENDROOT
BRANCH   1   4
HETATM    4  C3  UNL     1      39.282  22.660   3.812  1.00  0.00     0.152 C 
BRANCH   4   5
HETATM    5  C2  UNL     1      39.324  22.340   2.349  1.00  0.00     0.017 C 
HETATM    6  C1  UNL     1      40.695  22.692   1.754  1.00  0.00     0.007 C 
ENDBRANCH   4   5
ENDBRANCH   1   4
BRANCH   1   7
HETATM    7  N2  UNL     1      37.983  24.676   3.792  1.00  0.00    -0.272 N 
ATOM      8  H2  UNL     1      37.217  24.931   3.168  1.00  0.00     0.189 HD
BRANCH   7   9
HETATM    9  C4  UNL     1      38.894  25.682   4.176  1.00  0.00     0.186 C 
HETATM   10  S1  UNL     1      39.839  26.412   3.069  1.00  0.00    -0.040 SA
BRANCH   9  11
HETATM   11  N3  UNL     1      39.038  26.097   5.533  1.00  0.00    -0.366 N 
ATOM     12  H3  UNL     1      39.979  26.294   5.874  1.00  0.00     0.161 HD
BRANCH  11  13
HETATM   13  C5  UNL     1      37.948  26.256   6.446  1.00  0.00     0.123 C 
BRANCH  13  14
HETATM   14  C6  UNL     1      38.051  25.250   7.564  1.00  0.00     0.028 C 
BRANCH  14  15
HETATM   15  C7  UNL     1      37.772  25.883   8.910  1.00  0.00    -0.050 C 
HETATM   16  C8  UNL     1      39.086  26.315   9.509  1.00  0.00     0.014 C 
HETATM   17  C9  UNL     1      36.869  27.094   8.768  1.00  0.00     0.014 C 
HETATM   18  C10 UNL     1      37.071  24.920   9.840  1.00  0.00     0.014 C 
ENDBRANCH  14  15
ENDBRANCH  13  14
ENDBRANCH  11  13
ENDBRANCH   9  11
ENDBRANCH   7   9
ENDBRANCH   1   7
BRANCH   2  19
HETATM   19  C12 UNL     1      35.827  23.277   5.437  1.00  0.00     0.109 C 
BRANCH  19  20
HETATM   20  C13 UNL     1      35.260  22.629   6.664  1.00  0.00    -0.001 C 
HETATM   21  C14 UNL     1      34.496  23.529   7.574  1.00  0.00     0.015 C 
HETATM   22  C15 UNL     1      33.654  22.739   8.550  1.00  0.00    -0.040 C 
HETATM   23  C18 UNL     1      32.234  22.550   8.127  1.00  0.00     0.014 C 
HETATM   24  C22 UNL     1      34.285  21.375   8.721  1.00  0.00     0.014 C 
HETATM   25  C19 UNL     1      32.070  21.604   6.962  1.00  0.00    -0.013 C 
HETATM   26  C20 UNL     1      32.656  20.238   7.298  1.00  0.00     0.010 C 
HETATM   27  C24 UNL     1      33.003  22.037   5.844  1.00  0.00     0.010 C 
HETATM   28  C21 UNL     1      34.133  20.603   7.433  1.00  0.00    -0.009 C 
HETATM   29  C23 UNL     1      34.346  21.490   6.240  1.00  0.00    -0.005 C 
BRANCH  22  30
HETATM   30  C16 UNL     1      33.648  23.480   9.883  1.00  0.00     0.005 C 
HETATM   31  C17 UNL     1      32.253  23.375  10.453  1.00  0.00     0.006 C 
ENDBRANCH  22  30
ENDBRANCH  19  20
ENDBRANCH   2  19
TORSDOF 11
ENDMDL
