MODEL 1
REMARK VINA RESULT: -9.797825065      0.000      0.000
REMARK  7 active torsions:
REMARK  status: ('A' for Active; 'I' for Inactive)
REMARK    1  A    between atoms: C4_4  and  C5_5 
REMARK       I    between atoms: C5_5  and  N1_7 
REMARK    2  A    between atoms: N1_7  and  C6_9 
REMARK    3  A    between atoms: C6_9  and  C7_10 
REMARK    4  A    between atoms: C6_9  and  C11_14 
REMARK    5  A    between atoms: C7_10  and  C8_11 
REMARK    6  A    between atoms: C16_19  and  C17_20 
REMARK       I    between atoms: C17_20  and  N2_22 
REMARK    7  A    between atoms: N2_22  and  C18_24 
ROOT
HETATM    1  C1  UNL     1      35.467  24.120   9.723  1.00  0.00     0.049 C 
HETATM    2  C2  UNL     1      34.447  23.389   8.959  1.00  0.00    -0.045 A 
HETATM    3  C3  UNL     1      33.384  22.883   9.673  1.00  0.00     0.024 A 
HETATM    4  C4  UNL     1      32.381  22.141   9.074  1.00  0.00     0.032 A 
HETATM    5  C14 UNL     1      32.485  21.922   7.727  1.00  0.00     0.018 A 
HETATM    6  C15 UNL     1      33.559  22.438   7.021  1.00  0.00     0.018 A 
HETATM    7  C16 UNL     1      34.576  23.191   7.615  1.00  0.00     0.037 A 
ENDROOT
BRANCH   7   8
HETATM    8  C17 UNL     1      35.576  23.736   6.731  1.00  0.00     0.252 C 
HETATM    9  O2  UNL     1      35.546  25.008   6.578  1.00  0.00    -0.268 OA
HETATM   10  N2  UNL     1      36.539  22.941   6.073  1.00  0.00    -0.348 N 
ATOM     11  H2  UNL     1      36.520  21.937   6.247  1.00  0.00     0.163 HD
BRANCH  10  12
HETATM   12  C18 UNL     1      37.555  23.443   5.167  1.00  0.00     0.034 C 
HETATM   13  C19 UNL     1      38.641  24.164   5.920  1.00  0.00     0.035 C 
HETATM   14  C20 UNL     1      39.809  24.458   5.002  1.00  0.00    -0.012 C 
HETATM   15  C21 UNL     1      40.369  23.195   4.371  1.00  0.00     0.009 C 
HETATM   16  C25 UNL     1      39.300  25.409   3.941  1.00  0.00     0.009 C 
HETATM   17  C22 UNL     1      39.277  22.598   3.525  1.00  0.00    -0.012 C 
HETATM   18  C23 UNL     1      38.752  23.550   2.471  1.00  0.00     0.009 C 
HETATM   19  C27 UNL     1      38.135  22.236   4.410  1.00  0.00     0.035 C 
HETATM   20  C24 UNL     1      38.165  24.738   3.191  1.00  0.00    -0.012 C 
HETATM   21  C26 UNL     1      37.017  24.366   4.110  1.00  0.00     0.035 C 
ENDBRANCH  10  12
ENDBRANCH   7   8
BRANCH   4  22
HETATM   22  C5  UNL     1      31.255  21.638   9.826  1.00  0.00     0.252 C 
HETATM   23  O1  UNL     1      30.108  21.916   9.402  1.00  0.00    -0.268 OA
HETATM   24  N1  UNL     1      31.408  20.869  10.979  1.00  0.00    -0.352 N 
ATOM     25  H1  UNL     1      32.334  20.642  11.340  1.00  0.00     0.163 HD
BRANCH  24  26
HETATM   26  C6  UNL     1      30.198  20.399  11.656  1.00  0.00     0.089 C 
BRANCH  26  27
HETATM   27  C7  UNL     1      29.886  21.317  12.814  1.00  0.00     0.030 C 
BRANCH  27  28
HETATM   28  C8  UNL     1      30.526  20.782  14.067  1.00  0.00    -0.013 A 
HETATM   29  C9  UNL     1      30.938  21.746  15.123  1.00  0.00     0.005 A 
HETATM   30  C10 UNL     1      29.801  20.805  15.350  1.00  0.00     0.005 A 
ENDBRANCH  27  28
ENDBRANCH  26  27
BRANCH  26  31
HETATM   31  C11 UNL     1      30.429  19.008  12.224  1.00  0.00     0.008 A 
HETATM   32  C12 UNL     1      30.507  17.885  11.275  1.00  0.00     0.007 A 
HETATM   33  C13 UNL     1      29.283  18.048  12.119  1.00  0.00     0.007 A 
ENDBRANCH  26  31
ENDBRANCH  24  26
ENDBRANCH   4  22
TORSDOF 7
ENDMDL
MODEL 2
REMARK VINA RESULT: -9.674339206      0.599      1.372
REMARK  7 active torsions:
REMARK  status: ('A' for Active; 'I' for Inactive)
REMARK    1  A    between atoms: C4_4  and  C5_5 
REMARK       I    between atoms: C5_5  and  N1_7 
REMARK    2  A    between atoms: N1_7  and  C6_9 
REMARK    3  A    between atoms: C6_9  and  C7_10 
REMARK    4  A    between atoms: C6_9  and  C11_14 
REMARK    5  A    between atoms: C7_10  and  C8_11 
REMARK    6  A    between atoms: C16_19  and  C17_20 
REMARK       I    between atoms: C17_20  and  N2_22 
REMARK    7  A    between atoms: N2_22  and  C18_24 
ROOT
HETATM    1  C1  UNL     1      35.792  24.063   9.192  1.00  0.00     0.049 C 
HETATM    2  C2  UNL     1      34.725  23.326   8.504  1.00  0.00    -0.045 A 
HETATM    3  C3  UNL     1      33.652  22.929   9.272  1.00  0.00     0.024 A 
HETATM    4  C4  UNL     1      32.604  22.193   8.750  1.00  0.00     0.032 A 
HETATM    5  C14 UNL     1      32.671  21.865   7.422  1.00  0.00     0.018 A 
HETATM    6  C15 UNL     1      33.754  22.271   6.661  1.00  0.00     0.018 A 
HETATM    7  C16 UNL     1      34.818  23.017   7.178  1.00  0.00     0.037 A 
ENDROOT
BRANCH   7   8
HETATM    8  C17 UNL     1      35.826  23.441   6.239  1.00  0.00     0.252 C 
HETATM    9  O2  UNL     1      35.912  24.707   6.052  1.00  0.00    -0.268 OA
HETATM   10  N2  UNL     1      36.677  22.542   5.562  1.00  0.00    -0.348 N 
ATOM     11  H2  UNL     1      36.569  21.548   5.764  1.00  0.00     0.163 HD
BRANCH  10  12
HETATM   12  C18 UNL     1      37.696  22.922   4.601  1.00  0.00     0.034 C 
HETATM   13  C19 UNL     1      37.222  24.055   3.732  1.00  0.00     0.035 C 
HETATM   14  C20 UNL     1      38.372  24.604   2.913  1.00  0.00    -0.012 C 
HETATM   15  C21 UNL     1      39.521  25.071   3.790  1.00  0.00     0.009 C 
HETATM   16  C25 UNL     1      38.818  23.493   1.990  1.00  0.00     0.009 C 
HETATM   17  C22 UNL     1      40.036  23.866   4.530  1.00  0.00    -0.012 C 
HETATM   18  C23 UNL     1      40.470  22.745   3.610  1.00  0.00     0.009 C 
HETATM   19  C27 UNL     1      38.945  23.339   5.396  1.00  0.00     0.035 C 
HETATM   20  C24 UNL     1      39.256  22.308   2.830  1.00  0.00    -0.012 C 
HETATM   21  C26 UNL     1      38.137  21.792   3.713  1.00  0.00     0.035 C 
ENDBRANCH  10  12
ENDBRANCH   7   8
BRANCH   4  22
HETATM   22  C5  UNL     1      31.470  21.806   9.556  1.00  0.00     0.252 C 
HETATM   23  O1  UNL     1      30.338  22.197   9.185  1.00  0.00    -0.268 OA
HETATM   24  N1  UNL     1      31.600  21.028  10.705  1.00  0.00    -0.352 N 
ATOM     25  H1  UNL     1      32.515  20.710  11.024  1.00  0.00     0.163 HD
BRANCH  24  26
HETATM   26  C6  UNL     1      30.381  20.682  11.441  1.00  0.00     0.089 C 
BRANCH  26  27
HETATM   27  C7  UNL     1      30.159  21.694  12.540  1.00  0.00     0.030 C 
BRANCH  27  28
HETATM   28  C8  UNL     1      30.070  20.986  13.866  1.00  0.00    -0.013 A 
HETATM   29  C9  UNL     1      30.509  21.711  15.089  1.00  0.00     0.005 A 
HETATM   30  C10 UNL     1      29.067  21.390  14.868  1.00  0.00     0.005 A 
ENDBRANCH  27  28
ENDBRANCH  26  27
BRANCH  26  31
HETATM   31  C11 UNL     1      30.542  19.321  12.099  1.00  0.00     0.008 A 
HETATM   32  C12 UNL     1      30.812  18.166  11.225  1.00  0.00     0.007 A 
HETATM   33  C13 UNL     1      29.455  18.323  11.835  1.00  0.00     0.007 A 
ENDBRANCH  26  31
ENDBRANCH  24  26
ENDBRANCH   4  22
TORSDOF 7
ENDMDL
MODEL 3
REMARK VINA RESULT: -9.609026793      0.863      1.608
REMARK  7 active torsions:
REMARK  status: ('A' for Active; 'I' for Inactive)
REMARK    1  A    between atoms: C4_4  and  C5_5 
REMARK       I    between atoms: C5_5  and  N1_7 
REMARK    2  A    between atoms: N1_7  and  C6_9 
REMARK    3  A    between atoms: C6_9  and  C7_10 
REMARK    4  A    between atoms: C6_9  and  C11_14 
REMARK    5  A    between atoms: C7_10  and  C8_11 
REMARK    6  A    between atoms: C16_19  and  C17_20 
REMARK       I    between atoms: C17_20  and  N2_22 
REMARK    7  A    between atoms: N2_22  and  C18_24 
ROOT
HETATM    1  C1  UNL     1      35.175  24.214   8.869  1.00  0.00     0.049 C 
HETATM    2  C2  UNL     1      34.316  23.097   8.455  1.00  0.00    -0.045 A 
HETATM    3  C3  UNL     1      33.266  22.782   9.288  1.00  0.00     0.024 A 
HETATM    4  C4  UNL     1      32.410  21.725   9.029  1.00  0.00     0.032 A 
HETATM    5  C14 UNL     1      32.650  20.991   7.899  1.00  0.00     0.018 A 
HETATM    6  C15 UNL     1      33.709  21.318   7.069  1.00  0.00     0.018 A 
HETATM    7  C16 UNL     1      34.578  22.385   7.320  1.00  0.00     0.037 A 
ENDROOT
BRANCH   7   8
HETATM    8  C17 UNL     1      35.575  22.656   6.316  1.00  0.00     0.252 C 
HETATM    9  O2  UNL     1      35.324  22.192   5.146  1.00  0.00    -0.268 OA
HETATM   10  N2  UNL     1      36.754  23.386   6.576  1.00  0.00    -0.348 N 
ATOM     11  H2  UNL     1      36.890  23.741   7.522  1.00  0.00     0.163 HD
BRANCH  10  12
HETATM   12  C18 UNL     1      37.790  23.673   5.600  1.00  0.00     0.034 C 
HETATM   13  C19 UNL     1      38.246  22.414   4.913  1.00  0.00     0.035 C 
HETATM   14  C20 UNL     1      39.133  22.754   3.733  1.00  0.00    -0.012 C 
HETATM   15  C21 UNL     1      38.432  23.662   2.737  1.00  0.00     0.009 C 
HETATM   16  C25 UNL     1      40.367  23.424   4.295  1.00  0.00     0.009 C 
HETATM   17  C22 UNL     1      38.125  24.952   3.449  1.00  0.00    -0.012 C 
HETATM   18  C23 UNL     1      39.355  25.619   4.028  1.00  0.00     0.009 C 
HETATM   19  C27 UNL     1      37.200  24.661   4.580  1.00  0.00     0.035 C 
HETATM   20  C24 UNL     1      39.943  24.674   5.044  1.00  0.00    -0.012 C 
HETATM   21  C26 UNL     1      38.992  24.360   6.183  1.00  0.00     0.035 C 
ENDBRANCH  10  12
ENDBRANCH   7   8
BRANCH   4  22
HETATM   22  C5  UNL     1      31.294  21.420   9.893  1.00  0.00     0.252 C 
HETATM   23  O1  UNL     1      30.181  21.911   9.592  1.00  0.00    -0.268 OA
HETATM   24  N1  UNL     1      31.422  20.613  11.023  1.00  0.00    -0.352 N 
ATOM     25  H1  UNL     1      32.323  20.214  11.284  1.00  0.00     0.163 HD
BRANCH  24  26
HETATM   26  C6  UNL     1      30.221  20.356  11.822  1.00  0.00     0.089 C 
BRANCH  26  27
HETATM   27  C7  UNL     1      30.197  21.301  13.000  1.00  0.00     0.030 C 
BRANCH  27  28
HETATM   28  C8  UNL     1      29.496  20.643  14.158  1.00  0.00    -0.013 A 
HETATM   29  C9  UNL     1      29.492  21.338  15.474  1.00  0.00     0.005 A 
HETATM   30  C10 UNL     1      28.233  21.192  14.684  1.00  0.00     0.005 A 
ENDBRANCH  27  28
ENDBRANCH  26  27
BRANCH  26  31
HETATM   31  C11 UNL     1      30.258  18.940  12.372  1.00  0.00     0.008 A 
HETATM   32  C12 UNL     1      30.572  17.849  11.433  1.00  0.00     0.007 A 
HETATM   33  C13 UNL     1      29.166  18.021  11.914  1.00  0.00     0.007 A 
ENDBRANCH  26  31
ENDBRANCH  24  26
ENDBRANCH   4  22
TORSDOF 7
ENDMDL
MODEL 4
REMARK VINA RESULT: -9.533059368      0.794      1.562
REMARK  7 active torsions:
REMARK  status: ('A' for Active; 'I' for Inactive)
REMARK    1  A    between atoms: C4_4  and  C5_5 
REMARK       I    between atoms: C5_5  and  N1_7 
REMARK    2  A    between atoms: N1_7  and  C6_9 
REMARK    3  A    between atoms: C6_9  and  C7_10 
REMARK    4  A    between atoms: C6_9  and  C11_14 
REMARK    5  A    between atoms: C7_10  and  C8_11 
REMARK    6  A    between atoms: C16_19  and  C17_20 
REMARK       I    between atoms: C17_20  and  N2_22 
REMARK    7  A    between atoms: N2_22  and  C18_24 
ROOT
HETATM    1  C1  UNL     1      33.015  21.814   5.749  1.00  0.00     0.049 C 
HETATM    2  C2  UNL     1      33.147  22.144   7.174  1.00  0.00    -0.045 A 
HETATM    3  C3  UNL     1      32.222  21.585   8.027  1.00  0.00     0.024 A 
HETATM    4  C4  UNL     1      32.217  21.852   9.385  1.00  0.00     0.032 A 
HETATM    5  C14 UNL     1      33.176  22.707   9.857  1.00  0.00     0.018 A 
HETATM    6  C15 UNL     1      34.100  23.262   8.989  1.00  0.00     0.018 A 
HETATM    7  C16 UNL     1      34.117  22.997   7.616  1.00  0.00     0.037 A 
ENDROOT
BRANCH   7   8
HETATM    8  C17 UNL     1      35.198  23.577   6.859  1.00  0.00     0.252 C 
HETATM    9  O2  UNL     1      35.254  24.858   6.866  1.00  0.00    -0.268 OA
HETATM   10  N2  UNL     1      36.148  22.806   6.156  1.00  0.00    -0.348 N 
ATOM     11  H2  UNL     1      36.058  21.792   6.201  1.00  0.00     0.163 HD
BRANCH  10  12
HETATM   12  C18 UNL     1      37.244  23.346   5.373  1.00  0.00     0.034 C 
HETATM   13  C19 UNL     1      38.220  24.086   6.249  1.00  0.00     0.035 C 
HETATM   14  C20 UNL     1      39.474  24.422   5.469  1.00  0.00    -0.012 C 
HETATM   15  C21 UNL     1      40.134  23.182   4.892  1.00  0.00     0.009 C 
HETATM   16  C25 UNL     1      39.059  25.372   4.367  1.00  0.00     0.009 C 
HETATM   17  C22 UNL     1      39.160  22.567   3.925  1.00  0.00    -0.012 C 
HETATM   18  C23 UNL     1      38.729  23.518   2.828  1.00  0.00     0.009 C 
HETATM   19  C27 UNL     1      37.937  22.164   4.674  1.00  0.00     0.035 C 
HETATM   20  C24 UNL     1      38.033  24.680   3.489  1.00  0.00    -0.012 C 
HETATM   21  C26 UNL     1      36.801  24.267   4.272  1.00  0.00     0.035 C 
ENDBRANCH  10  12
ENDBRANCH   7   8
BRANCH   4  22
HETATM   22  C5  UNL     1      31.260  21.239  10.277  1.00  0.00     0.252 C 
HETATM   23  O1  UNL     1      30.110  21.736  10.319  1.00  0.00    -0.268 OA
HETATM   24  N1  UNL     1      31.576  20.136  11.069  1.00  0.00    -0.352 N 
ATOM     25  H1  UNL     1      32.510  19.726  11.051  1.00  0.00     0.163 HD
BRANCH  24  26
HETATM   26  C6  UNL     1      30.526  19.585  11.928  1.00  0.00     0.089 C 
BRANCH  26  27
HETATM   27  C7  UNL     1      30.737  20.066  13.344  1.00  0.00     0.030 C 
BRANCH  27  28
HETATM   28  C8  UNL     1      29.602  20.971  13.742  1.00  0.00    -0.013 A 
HETATM   29  C9  UNL     1      28.237  20.665  13.236  1.00  0.00     0.005 A 
HETATM   30  C10 UNL     1      28.567  20.509  14.684  1.00  0.00     0.005 A 
ENDBRANCH  27  28
ENDBRANCH  26  27
BRANCH  26  31
HETATM   31  C11 UNL     1      30.612  18.068  11.944  1.00  0.00     0.008 A 
HETATM   32  C12 UNL     1      29.718  17.322  11.041  1.00  0.00     0.007 A 
HETATM   33  C13 UNL     1      29.430  17.340  12.509  1.00  0.00     0.007 A 
ENDBRANCH  26  31
ENDBRANCH  24  26
ENDBRANCH   4  22
TORSDOF 7
ENDMDL
MODEL 5
REMARK VINA RESULT: -9.468717826      1.267      2.357
REMARK  7 active torsions:
REMARK  status: ('A' for Active; 'I' for Inactive)
REMARK    1  A    between atoms: C4_4  and  C5_5 
REMARK       I    between atoms: C5_5  and  N1_7 
REMARK    2  A    between atoms: N1_7  and  C6_9 
REMARK    3  A    between atoms: C6_9  and  C7_10 
REMARK    4  A    between atoms: C6_9  and  C11_14 
REMARK    5  A    between atoms: C7_10  and  C8_11 
REMARK    6  A    between atoms: C16_19  and  C17_20 
REMARK       I    between atoms: C17_20  and  N2_22 
REMARK    7  A    between atoms: N2_22  and  C18_24 
ROOT
HETATM    1  C1  UNL     1      32.038  21.735   6.222  1.00  0.00     0.049 C 
HETATM    2  C2  UNL     1      32.589  22.238   7.488  1.00  0.00    -0.045 A 
HETATM    3  C3  UNL     1      31.757  22.195   8.585  1.00  0.00     0.024 A 
HETATM    4  C4  UNL     1      32.146  22.676   9.823  1.00  0.00     0.032 A 
HETATM    5  C14 UNL     1      33.404  23.208   9.920  1.00  0.00     0.018 A 
HETATM    6  C15 UNL     1      34.229  23.244   8.809  1.00  0.00     0.018 A 
HETATM    7  C16 UNL     1      33.849  22.758   7.554  1.00  0.00     0.037 A 
ENDROOT
BRANCH   7   8
HETATM    8  C17 UNL     1      34.852  22.782   6.521  1.00  0.00     0.252 C 
HETATM    9  O2  UNL     1      34.597  22.073   5.483  1.00  0.00    -0.268 OA
HETATM   10  N2  UNL     1      36.043  23.534   6.619  1.00  0.00    -0.348 N 
ATOM     11  H2  UNL     1      36.181  24.089   7.463  1.00  0.00     0.163 HD
BRANCH  10  12
HETATM   12  C18 UNL     1      37.085  23.580   5.610  1.00  0.00     0.034 C 
HETATM   13  C19 UNL     1      36.639  24.369   4.409  1.00  0.00     0.035 C 
HETATM   14  C20 UNL     1      37.811  24.621   3.483  1.00  0.00    -0.012 C 
HETATM   15  C21 UNL     1      38.946  25.346   4.187  1.00  0.00     0.009 C 
HETATM   16  C25 UNL     1      38.268  23.269   2.981  1.00  0.00     0.009 C 
HETATM   17  C22 UNL     1      39.435  24.446   5.289  1.00  0.00    -0.012 C 
HETATM   18  C23 UNL     1      39.878  23.086   4.794  1.00  0.00     0.009 C 
HETATM   19  C27 UNL     1      38.321  24.230   6.254  1.00  0.00     0.035 C 
HETATM   20  C24 UNL     1      38.677  22.421   4.170  1.00  0.00    -0.012 C 
HETATM   21  C26 UNL     1      37.535  22.222   5.148  1.00  0.00     0.035 C 
ENDBRANCH  10  12
ENDBRANCH   7   8
BRANCH   4  22
HETATM   22  C5  UNL     1      31.278  22.601  10.975  1.00  0.00     0.252 C 
HETATM   23  O1  UNL     1      30.842  23.681  11.440  1.00  0.00    -0.268 OA
HETATM   24  N1  UNL     1      30.920  21.390  11.565  1.00  0.00    -0.352 N 
ATOM     25  H1  UNL     1      31.273  20.505  11.203  1.00  0.00     0.163 HD
BRANCH  24  26
HETATM   26  C6  UNL     1      30.023  21.428  12.722  1.00  0.00     0.089 C 
BRANCH  26  27
HETATM   27  C7  UNL     1      30.844  21.527  13.986  1.00  0.00     0.030 C 
BRANCH  27  28
HETATM   28  C8  UNL     1      30.376  22.703  14.799  1.00  0.00    -0.013 A 
HETATM   29  C9  UNL     1      31.223  23.165  15.933  1.00  0.00     0.005 A 
HETATM   30  C10 UNL     1      31.066  24.003  14.706  1.00  0.00     0.005 A 
ENDBRANCH  27  28
ENDBRANCH  26  27
BRANCH  26  31
HETATM   31  C11 UNL     1      29.219  20.141  12.797  1.00  0.00     0.008 A 
HETATM   32  C12 UNL     1      29.492  19.104  11.788  1.00  0.00     0.007 A 
HETATM   33  C13 UNL     1      28.233  19.907  11.693  1.00  0.00     0.007 A 
ENDBRANCH  26  31
ENDBRANCH  24  26
ENDBRANCH   4  22
TORSDOF 7
ENDMDL
