MODEL 1
REMARK VINA RESULT: -6.739368006      0.000      0.000
REMARK  5 active torsions:
REMARK  status: ('A' for Active; 'I' for Inactive)
REMARK    1  A    between atoms: C2_2  and  C3_3 
REMARK    2  A    between atoms: C3_3  and  O1_4 
REMARK    3  A    between atoms: O1_4  and  C4_5 
REMARK       I    between atoms: C4_5  and  N1_7 
REMARK    4  A    between atoms: C5_10  and  C6_11 
REMARK    5  A    between atoms: C11_22  and  N5_23 
ROOT
HETATM    1  C4  UNL     1      56.385  70.347  22.463  1.00  0.00     0.401 C 
HETATM    2  O2  UNL     1      55.527  69.610  21.835  1.00  0.00    -0.235 OA
HETATM    3  N1  UNL     1      56.833  71.541  21.827  1.00  0.00    -0.025 N 
HETATM    4  N2  UNL     1      56.315  71.806  20.611  1.00  0.00    -0.270 N 
ATOM      5  H2  UNL     1      55.638  71.155  20.214  1.00  0.00     0.188 HD
HETATM    6  C5  UNL     1      56.654  72.895  19.902  1.00  0.00     0.120 A 
HETATM    7  C10 UNL     1      57.563  73.798  20.406  1.00  0.00     0.287 A 
HETATM    8  O3  UNL     1      57.908  74.842  19.770  1.00  0.00    -0.265 OA
HETATM    9  N4  UNL     1      58.077  73.542  21.605  1.00  0.00    -0.153 N 
ATOM     10  H4  UNL     1      58.753  74.189  22.009  1.00  0.00     0.187 HD
HETATM   11  C11 UNL     1      57.710  72.416  22.308  1.00  0.00     0.705 A 
ENDROOT
BRANCH   6  12
HETATM   12  C6  UNL     1      56.024  73.119  18.620  1.00  0.00     0.073 C 
HETATM   13  C7  UNL     1      54.936  73.789  18.375  1.00  0.00     0.068 C 
HETATM   14  N3  UNL     1      54.314  74.006  17.105  1.00  0.00    -0.384 N 
HETATM   15  S1  UNL     1      53.866  74.710  19.519  1.00  0.00    -0.111 SA
HETATM   16  C8  UNL     1      52.909  74.277  17.215  1.00  0.00     0.131 C 
ATOM     17  H3  UNL     1      54.815  73.973  16.217  1.00  0.00     0.160 HD
HETATM   18  C9  UNL     1      52.789  75.442  18.213  1.00  0.00     0.100 C 
ENDBRANCH   6  12
BRANCH   1  19
HETATM   19  O1  UNL     1      56.739  69.851  23.678  1.00  0.00    -0.302 OA
BRANCH  19  20
HETATM   20  C3  UNL     1      56.172  68.800  24.391  1.00  0.00     0.180 C 
BRANCH  20  21
HETATM   21  C2  UNL     1      56.679  67.436  24.080  1.00  0.00     0.022 C 
HETATM   22  C1  UNL     1      55.597  66.485  23.629  1.00  0.00     0.007 C 
ENDBRANCH  20  21
ENDBRANCH  19  20
ENDBRANCH   1  19
BRANCH  11  23
HETATM   23  N5  UNL     1      58.247  72.245  23.442  1.00  0.00    -0.233 N 
ATOM     24  H52 UNL     1      57.675  71.808  24.165  1.00  0.00     0.174 HD
ATOM     25  H51 UNL     1      59.209  72.535  23.617  1.00  0.00     0.174 HD
ENDBRANCH  11  23
TORSDOF 5
ENDMDL
MODEL 2
REMARK VINA RESULT: -5.912351975      8.043     10.970
REMARK  5 active torsions:
REMARK  status: ('A' for Active; 'I' for Inactive)
REMARK    1  A    between atoms: C2_2  and  C3_3 
REMARK    2  A    between atoms: C3_3  and  O1_4 
REMARK    3  A    between atoms: O1_4  and  C4_5 
REMARK       I    between atoms: C4_5  and  N1_7 
REMARK    4  A    between atoms: C5_10  and  C6_11 
REMARK    5  A    between atoms: C11_22  and  N5_23 
ROOT
HETATM    1  C4  UNL     1      57.813  65.921  24.754  1.00  0.00     0.401 C 
HETATM    2  O2  UNL     1      57.959  67.190  24.957  1.00  0.00    -0.235 OA
HETATM    3  N1  UNL     1      58.973  65.095  24.828  1.00  0.00    -0.025 N 
HETATM    4  N2  UNL     1      60.136  65.714  25.112  1.00  0.00    -0.270 N 
ATOM      5  H2  UNL     1      60.131  66.723  25.260  1.00  0.00     0.188 HD
HETATM    6  C5  UNL     1      61.301  65.054  25.207  1.00  0.00     0.120 A 
HETATM    7  C10 UNL     1      61.347  63.692  25.016  1.00  0.00     0.287 A 
HETATM    8  O3  UNL     1      62.428  63.029  25.102  1.00  0.00    -0.265 OA
HETATM    9  N4  UNL     1      60.203  63.076  24.737  1.00  0.00    -0.153 N 
ATOM     10  H4  UNL     1      60.200  62.066  24.588  1.00  0.00     0.187 HD
HETATM   11  C11 UNL     1      59.023  63.779  24.644  1.00  0.00     0.705 A 
ENDROOT
BRANCH   6  12
HETATM   12  C6  UNL     1      62.497  65.792  25.549  1.00  0.00     0.073 C 
HETATM   13  C7  UNL     1      62.998  65.991  26.733  1.00  0.00     0.068 C 
HETATM   14  N3  UNL     1      64.180  66.724  27.066  1.00  0.00    -0.384 N 
HETATM   15  S1  UNL     1      62.423  65.383  28.346  1.00  0.00    -0.111 SA
HETATM   16  C8  UNL     1      64.162  67.223  28.413  1.00  0.00     0.131 C 
ATOM     17  H3  UNL     1      64.953  66.877  26.418  1.00  0.00     0.160 HD
HETATM   18  C9  UNL     1      63.874  66.000  29.302  1.00  0.00     0.100 C 
ENDBRANCH   6  12
BRANCH   1  19
HETATM   19  O1  UNL     1      56.530  65.557  24.492  1.00  0.00    -0.302 OA
BRANCH  19  20
HETATM   20  C3  UNL     1      55.630  66.119  23.593  1.00  0.00     0.180 C 
BRANCH  20  21
HETATM   21  C2  UNL     1      56.084  66.232  22.180  1.00  0.00     0.022 C 
HETATM   22  C1  UNL     1      56.359  64.897  21.532  1.00  0.00     0.007 C 
ENDBRANCH  20  21
ENDBRANCH  19  20
ENDBRANCH   1  19
BRANCH  11  23
HETATM   23  N5  UNL     1      57.978  63.118  24.373  1.00  0.00    -0.233 N 
ATOM     24  H52 UNL     1      57.367  62.876  25.153  1.00  0.00     0.174 HD
ATOM     25  H51 UNL     1      57.763  62.843  23.415  1.00  0.00     0.174 HD
ENDBRANCH  11  23
TORSDOF 5
ENDMDL
MODEL 3
REMARK VINA RESULT: -5.570318302      2.580      6.335
REMARK  5 active torsions:
REMARK  status: ('A' for Active; 'I' for Inactive)
REMARK    1  A    between atoms: C2_2  and  C3_3 
REMARK    2  A    between atoms: C3_3  and  O1_4 
REMARK    3  A    between atoms: O1_4  and  C4_5 
REMARK       I    between atoms: C4_5  and  N1_7 
REMARK    4  A    between atoms: C5_10  and  C6_11 
REMARK    5  A    between atoms: C11_22  and  N5_23 
ROOT
HETATM    1  C4  UNL     1      54.558  74.550  20.534  1.00  0.00     0.401 C 
HETATM    2  O2  UNL     1      53.727  74.159  21.446  1.00  0.00    -0.235 OA
HETATM    3  N1  UNL     1      55.865  73.983  20.534  1.00  0.00    -0.025 N 
HETATM    4  N2  UNL     1      56.127  73.073  21.494  1.00  0.00    -0.270 N 
ATOM      5  H2  UNL     1      55.390  72.836  22.158  1.00  0.00     0.188 HD
HETATM    6  C5  UNL     1      57.319  72.467  21.609  1.00  0.00     0.120 A 
HETATM    7  C10 UNL     1      58.337  72.759  20.729  1.00  0.00     0.287 A 
HETATM    8  O3  UNL     1      59.478  72.204  20.800  1.00  0.00    -0.265 OA
HETATM    9  N4  UNL     1      58.084  73.655  19.781  1.00  0.00    -0.153 N 
ATOM     10  H4  UNL     1      58.815  73.897  19.111  1.00  0.00     0.187 HD
HETATM   11  C11 UNL     1      56.852  74.262  19.688  1.00  0.00     0.705 A 
ENDROOT
BRANCH   6  12
HETATM   12  C6  UNL     1      57.503  71.477  22.648  1.00  0.00     0.073 C 
HETATM   13  C7  UNL     1      56.881  70.344  22.786  1.00  0.00     0.068 C 
HETATM   14  N3  UNL     1      57.064  69.369  23.817  1.00  0.00    -0.384 N 
HETATM   15  S1  UNL     1      55.621  69.582  21.720  1.00  0.00    -0.111 SA
HETATM   16  C8  UNL     1      55.905  68.544  24.012  1.00  0.00     0.131 C 
ATOM     17  H3  UNL     1      57.924  69.270  24.355  1.00  0.00     0.160 HD
HETATM   18  C9  UNL     1      55.563  67.976  22.624  1.00  0.00     0.100 C 
ENDBRANCH   6  12
BRANCH   1  19
HETATM   19  O1  UNL     1      54.036  75.474  19.685  1.00  0.00    -0.302 OA
BRANCH  19  20
HETATM   20  C3  UNL     1      53.123  75.294  18.652  1.00  0.00     0.180 C 
BRANCH  20  21
HETATM   21  C2  UNL     1      53.403  74.180  17.705  1.00  0.00     0.022 C 
HETATM   22  C1  UNL     1      52.179  73.711  16.955  1.00  0.00     0.007 C 
ENDBRANCH  20  21
ENDBRANCH  19  20
ENDBRANCH   1  19
BRANCH  11  23
HETATM   23  N5  UNL     1      56.693  75.105  18.757  1.00  0.00    -0.233 N 
ATOM     24  H52 UNL     1      56.320  76.018  19.016  1.00  0.00     0.174 HD
ATOM     25  H51 UNL     1      56.931  74.874  17.792  1.00  0.00     0.174 HD
ENDBRANCH  11  23
TORSDOF 5
ENDMDL
MODEL 4
REMARK VINA RESULT: -5.326502981      4.851      8.145
REMARK  5 active torsions:
REMARK  status: ('A' for Active; 'I' for Inactive)
REMARK    1  A    between atoms: C2_2  and  C3_3 
REMARK    2  A    between atoms: C3_3  and  O1_4 
REMARK    3  A    between atoms: O1_4  and  C4_5 
REMARK       I    between atoms: C4_5  and  N1_7 
REMARK    4  A    between atoms: C5_10  and  C6_11 
REMARK    5  A    between atoms: C11_22  and  N5_23 
ROOT
HETATM    1  C4  UNL     1      55.783  69.119  22.243  1.00  0.00     0.401 C 
HETATM    2  O2  UNL     1      55.468  69.212  20.991  1.00  0.00    -0.235 OA
HETATM    3  N1  UNL     1      56.121  67.832  22.753  1.00  0.00    -0.025 N 
HETATM    4  N2  UNL     1      56.089  66.809  21.875  1.00  0.00    -0.270 N 
ATOM      5  H2  UNL     1      55.832  67.002  20.907  1.00  0.00     0.188 HD
HETATM    6  C5  UNL     1      56.382  65.547  22.226  1.00  0.00     0.120 A 
HETATM    7  C10 UNL     1      56.736  65.249  23.522  1.00  0.00     0.287 A 
HETATM    8  O3  UNL     1      57.025  64.068  23.894  1.00  0.00    -0.265 OA
HETATM    9  N4  UNL     1      56.770  66.253  24.392  1.00  0.00    -0.153 N 
ATOM     10  H4  UNL     1      57.027  66.069  25.361  1.00  0.00     0.187 HD
HETATM   11  C11 UNL     1      56.463  67.538  24.003  1.00  0.00     0.705 A 
ENDROOT
BRANCH   6  12
HETATM   12  C6  UNL     1      56.355  64.515  21.212  1.00  0.00     0.073 C 
HETATM   13  C7  UNL     1      57.358  64.040  20.534  1.00  0.00     0.068 C 
HETATM   14  N3  UNL     1      57.326  63.021  19.530  1.00  0.00    -0.384 N 
HETATM   15  S1  UNL     1      59.125  64.449  20.648  1.00  0.00    -0.111 SA
HETATM   16  C8  UNL     1      58.428  63.111  18.614  1.00  0.00     0.131 C 
ATOM     17  H3  UNL     1      56.600  62.308  19.471  1.00  0.00     0.160 HD
HETATM   18  C9  UNL     1      59.693  63.132  19.490  1.00  0.00     0.100 C 
ENDBRANCH   6  12
BRANCH   1  19
HETATM   19  O1  UNL     1      55.741  70.307  22.902  1.00  0.00    -0.302 OA
BRANCH  19  20
HETATM   20  C3  UNL     1      56.743  71.259  23.051  1.00  0.00     0.180 C 
BRANCH  20  21
HETATM   21  C2  UNL     1      57.284  71.855  21.798  1.00  0.00     0.022 C 
HETATM   22  C1  UNL     1      56.275  72.692  21.050  1.00  0.00     0.007 C 
ENDBRANCH  20  21
ENDBRANCH  19  20
ENDBRANCH   1  19
BRANCH  11  23
HETATM   23  N5  UNL     1      56.518  68.437  24.893  1.00  0.00    -0.233 N 
ATOM     24  H52 UNL     1      55.890  69.234  24.787  1.00  0.00     0.174 HD
ATOM     25  H51 UNL     1      57.165  68.361  25.677  1.00  0.00     0.174 HD
ENDBRANCH  11  23
TORSDOF 5
ENDMDL
MODEL 5
REMARK VINA RESULT: -5.260767338      5.892      9.998
REMARK  5 active torsions:
REMARK  status: ('A' for Active; 'I' for Inactive)
REMARK    1  A    between atoms: C2_2  and  C3_3 
REMARK    2  A    between atoms: C3_3  and  O1_4 
REMARK    3  A    between atoms: O1_4  and  C4_5 
REMARK       I    between atoms: C4_5  and  N1_7 
REMARK    4  A    between atoms: C5_10  and  C6_11 
REMARK    5  A    between atoms: C11_22  and  N5_23 
ROOT
HETATM    1  C4  UNL     1      56.871  67.639  23.892  1.00  0.00     0.401 C 
HETATM    2  O2  UNL     1      57.531  68.729  24.115  1.00  0.00    -0.235 OA
HETATM    3  N1  UNL     1      57.525  66.398  24.149  1.00  0.00    -0.025 N 
HETATM    4  N2  UNL     1      58.789  66.469  24.613  1.00  0.00    -0.270 N 
ATOM      5  H2  UNL     1      59.207  67.388  24.759  1.00  0.00     0.188 HD
HETATM    6  C5  UNL     1      59.518  65.376  24.892  1.00  0.00     0.120 A 
HETATM    7  C10 UNL     1      58.986  64.120  24.711  1.00  0.00     0.287 A 
HETATM    8  O3  UNL     1      59.641  63.061  24.966  1.00  0.00    -0.265 OA
HETATM    9  N4  UNL     1      57.741  64.044  24.253  1.00  0.00    -0.153 N 
ATOM     10  H4  UNL     1      57.314  63.129  24.106  1.00  0.00     0.187 HD
HETATM   11  C11 UNL     1      57.017  65.182  23.975  1.00  0.00     0.705 A 
ENDROOT
BRANCH   6  12
HETATM   12  C6  UNL     1      60.855  65.544  25.418  1.00  0.00     0.073 C 
HETATM   13  C7  UNL     1      61.197  65.858  26.633  1.00  0.00     0.068 C 
HETATM   14  N3  UNL     1      62.521  66.025  27.149  1.00  0.00    -0.384 N 
HETATM   15  S1  UNL     1      60.150  66.142  28.090  1.00  0.00    -0.111 SA
HETATM   16  C8  UNL     1      62.563  66.880  28.302  1.00  0.00     0.131 C 
ATOM     17  H3  UNL     1      63.346  65.585  26.742  1.00  0.00     0.160 HD
HETATM   18  C9  UNL     1      61.542  66.290  29.291  1.00  0.00     0.100 C 
ENDBRANCH   6  12
BRANCH   1  19
HETATM   19  O1  UNL     1      55.611  67.852  23.430  1.00  0.00    -0.302 OA
BRANCH  19  20
HETATM   20  C3  UNL     1      55.025  69.040  23.008  1.00  0.00     0.180 C 
BRANCH  20  21
HETATM   21  C2  UNL     1      55.451  69.556  21.678  1.00  0.00     0.022 C 
HETATM   22  C1  UNL     1      56.168  70.882  21.753  1.00  0.00     0.007 C 
ENDBRANCH  20  21
ENDBRANCH  19  20
ENDBRANCH   1  19
BRANCH  11  23
HETATM   23  N5  UNL     1      55.838  65.024  23.542  1.00  0.00    -0.233 N 
ATOM     24  H52 UNL     1      55.454  64.079  23.576  1.00  0.00     0.174 HD
ATOM     25  H51 UNL     1      55.302  65.811  23.177  1.00  0.00     0.174 HD
ENDBRANCH  11  23
TORSDOF 5
ENDMDL
