MODEL 1
REMARK VINA RESULT: -5.890992696      0.000      0.000
REMARK  5 active torsions:
REMARK  status: ('A' for Active; 'I' for Inactive)
REMARK    1  A    between atoms: O1_2  and  C2_3 
REMARK    2  A    between atoms: C2_3  and  C3_4 
REMARK    3  A    between atoms: C3_4  and  O3_6 
REMARK    4  A    between atoms: O3_6  and  N1_7 
REMARK       I    between atoms: N1_7  and  C4_9 
REMARK    5  A    between atoms: C4_9  and  C5_11 
ROOT
HETATM    1  C5  UNL     1      56.917  70.511  22.688  1.00  0.00     0.083 A 
HETATM    2  S1  UNL     1      58.029  71.841  22.866  1.00  0.00    -0.076 SA
HETATM    3  C6  UNL     1      57.655  72.708  21.462  1.00  0.00     0.100 A 
HETATM    4  C7  UNL     1      56.674  71.954  20.878  1.00  0.00     0.059 A 
HETATM    5  C8  UNL     1      56.296  70.824  21.513  1.00  0.00    -0.011 A 
HETATM    6  C9  UNL     1      55.214  69.910  20.937  1.00  0.00     0.052 C 
HETATM    7  N2  UNL     1      56.202  72.532  19.624  1.00  0.00    -0.372 N 
ATOM      8  H2  UNL     1      55.781  71.916  18.929  1.00  0.00     0.161 HD
HETATM    9  C10 UNL     1      56.306  73.929  19.333  1.00  0.00     0.246 C 
HETATM   10  N3  UNL     1      57.630  74.479  19.657  1.00  0.00    -0.340 N 
ATOM     11  H3  UNL     1      58.119  75.153  19.068  1.00  0.00     0.164 HD
HETATM   12  C11 UNL     1      58.157  73.975  20.880  1.00  0.00     0.262 C 
HETATM   13  O5  UNL     1      59.049  74.561  21.508  1.00  0.00    -0.267 OA
ENDROOT
BRANCH   1  14
HETATM   14  C4  UNL     1      56.781  69.399  23.626  1.00  0.00     0.283 C 
HETATM   15  N1  UNL     1      57.592  68.287  23.733  1.00  0.00    -0.221 N 
ATOM     16  H1  UNL     1      58.397  68.152  23.122  1.00  0.00     0.198 HD
HETATM   17  O4  UNL     1      55.769  69.512  24.434  1.00  0.00    -0.265 OA
BRANCH  15  18
HETATM   18  O3  UNL     1      57.251  67.345  24.731  1.00  0.00    -0.194 OA
BRANCH  18  19
HETATM   19  C3  UNL     1      56.785  66.091  24.439  1.00  0.00     0.304 C 
HETATM   20  O2  UNL     1      57.402  65.111  24.946  1.00  0.00    -0.261 OA
BRANCH  19  21
HETATM   21  C2  UNL     1      55.618  65.816  23.579  1.00  0.00     0.280 C 
BRANCH  21  22
HETATM   22  O1  UNL     1      55.914  66.150  22.284  1.00  0.00    -0.386 OA
HETATM   23  C1  UNL     1      56.439  65.122  21.529  1.00  0.00     0.202 C 
ENDBRANCH  21  22
ENDBRANCH  19  21
ENDBRANCH  18  19
ENDBRANCH  15  18
ENDBRANCH   1  14
TORSDOF 5
ENDMDL
MODEL 2
REMARK VINA RESULT: -5.476785994      1.208      1.955
REMARK  5 active torsions:
REMARK  status: ('A' for Active; 'I' for Inactive)
REMARK    1  A    between atoms: O1_2  and  C2_3 
REMARK    2  A    between atoms: C2_3  and  C3_4 
REMARK    3  A    between atoms: C3_4  and  O3_6 
REMARK    4  A    between atoms: O3_6  and  N1_7 
REMARK       I    between atoms: N1_7  and  C4_9 
REMARK    5  A    between atoms: C4_9  and  C5_11 
ROOT
HETATM    1  C5  UNL     1      56.865  70.505  22.723  1.00  0.00     0.083 A 
HETATM    2  S1  UNL     1      57.966  71.842  22.915  1.00  0.00    -0.076 SA
HETATM    3  C6  UNL     1      57.625  72.692  21.492  1.00  0.00     0.100 A 
HETATM    4  C7  UNL     1      56.663  71.926  20.891  1.00  0.00     0.059 A 
HETATM    5  C8  UNL     1      56.274  70.802  21.528  1.00  0.00    -0.011 A 
HETATM    6  C9  UNL     1      55.211  69.877  20.935  1.00  0.00     0.052 C 
HETATM    7  N2  UNL     1      56.221  72.489  19.619  1.00  0.00    -0.372 N 
ATOM      8  H2  UNL     1      55.821  71.863  18.920  1.00  0.00     0.161 HD
HETATM    9  C10 UNL     1      56.327  73.882  19.315  1.00  0.00     0.246 C 
HETATM   10  N3  UNL     1      57.639  74.443  19.668  1.00  0.00    -0.340 N 
ATOM     11  H3  UNL     1      58.141  75.112  19.084  1.00  0.00     0.164 HD
HETATM   12  C11 UNL     1      58.136  73.954  20.909  1.00  0.00     0.262 C 
HETATM   13  O5  UNL     1      59.009  74.551  21.554  1.00  0.00    -0.267 OA
ENDROOT
BRANCH   1  14
HETATM   14  C4  UNL     1      56.710  69.403  23.670  1.00  0.00     0.283 C 
HETATM   15  N1  UNL     1      57.473  68.255  23.755  1.00  0.00    -0.221 N 
ATOM     16  H1  UNL     1      58.251  68.082  23.119  1.00  0.00     0.198 HD
HETATM   17  O4  UNL     1      55.730  69.563  24.509  1.00  0.00    -0.265 OA
BRANCH  15  18
HETATM   18  O3  UNL     1      57.122  67.332  24.767  1.00  0.00    -0.194 OA
BRANCH  18  19
HETATM   19  C3  UNL     1      57.406  65.996  24.683  1.00  0.00     0.304 C 
HETATM   20  O2  UNL     1      56.492  65.234  24.257  1.00  0.00    -0.261 OA
BRANCH  19  21
HETATM   21  C2  UNL     1      58.702  65.396  25.054  1.00  0.00     0.280 C 
BRANCH  21  22
HETATM   22  O1  UNL     1      59.640  66.383  25.200  1.00  0.00    -0.386 OA
HETATM   23  C1  UNL     1      60.247  66.424  26.437  1.00  0.00     0.202 C 
ENDBRANCH  21  22
ENDBRANCH  19  21
ENDBRANCH  18  19
ENDBRANCH  15  18
ENDBRANCH   1  14
TORSDOF 5
ENDMDL
MODEL 3
REMARK VINA RESULT: -5.466034210      2.789      7.695
REMARK  5 active torsions:
REMARK  status: ('A' for Active; 'I' for Inactive)
REMARK    1  A    between atoms: O1_2  and  C2_3 
REMARK    2  A    between atoms: C2_3  and  C3_4 
REMARK    3  A    between atoms: C3_4  and  O3_6 
REMARK    4  A    between atoms: O3_6  and  N1_7 
REMARK       I    between atoms: N1_7  and  C4_9 
REMARK    5  A    between atoms: C4_9  and  C5_11 
ROOT
HETATM    1  C5  UNL     1      57.225  67.354  23.962  1.00  0.00     0.083 A 
HETATM    2  S1  UNL     1      58.420  66.926  25.154  1.00  0.00    -0.076 SA
HETATM    3  C6  UNL     1      58.429  65.246  24.951  1.00  0.00     0.100 A 
HETATM    4  C7  UNL     1      57.505  65.043  23.962  1.00  0.00     0.059 A 
HETATM    5  C8  UNL     1      56.888  66.132  23.454  1.00  0.00    -0.011 A 
HETATM    6  C9  UNL     1      55.836  66.010  22.352  1.00  0.00     0.052 C 
HETATM    7  N2  UNL     1      57.350  63.632  23.627  1.00  0.00    -0.372 N 
ATOM      8  H2  UNL     1      56.471  63.320  23.213  1.00  0.00     0.161 HD
HETATM    9  C10 UNL     1      58.382  62.668  23.857  1.00  0.00     0.246 C 
HETATM   10  N3  UNL     1      58.986  62.791  25.191  1.00  0.00    -0.340 N 
ATOM     11  H3  UNL     1      59.237  61.990  25.772  1.00  0.00     0.164 HD
HETATM   12  C11 UNL     1      59.187  64.143  25.588  1.00  0.00     0.262 C 
HETATM   13  O5  UNL     1      59.993  64.462  26.473  1.00  0.00    -0.267 OA
ENDROOT
BRANCH   1  14
HETATM   14  C4  UNL     1      56.775  68.715  23.674  1.00  0.00     0.283 C 
HETATM   15  N1  UNL     1      57.304  69.596  22.752  1.00  0.00    -0.221 N 
ATOM     16  H1  UNL     1      58.100  69.344  22.167  1.00  0.00     0.198 HD
HETATM   17  O4  UNL     1      55.760  69.097  24.391  1.00  0.00    -0.265 OA
BRANCH  15  18
HETATM   18  O3  UNL     1      56.686  70.865  22.659  1.00  0.00    -0.194 OA
BRANCH  18  19
HETATM   19  C3  UNL     1      57.200  71.886  21.908  1.00  0.00     0.304 C 
HETATM   20  O2  UNL     1      58.294  72.393  22.289  1.00  0.00    -0.261 OA
BRANCH  19  21
HETATM   21  C2  UNL     1      56.564  72.427  20.692  1.00  0.00     0.280 C 
BRANCH  21  22
HETATM   22  O1  UNL     1      57.511  73.031  19.908  1.00  0.00    -0.386 OA
HETATM   23  C1  UNL     1      57.050  73.480  18.689  1.00  0.00     0.202 C 
ENDBRANCH  21  22
ENDBRANCH  19  21
ENDBRANCH  18  19
ENDBRANCH  15  18
ENDBRANCH   1  14
TORSDOF 5
ENDMDL
MODEL 4
REMARK VINA RESULT: -5.409876141      2.744      7.682
REMARK  5 active torsions:
REMARK  status: ('A' for Active; 'I' for Inactive)
REMARK    1  A    between atoms: O1_2  and  C2_3 
REMARK    2  A    between atoms: C2_3  and  C3_4 
REMARK    3  A    between atoms: C3_4  and  O3_6 
REMARK    4  A    between atoms: O3_6  and  N1_7 
REMARK       I    between atoms: N1_7  and  C4_9 
REMARK    5  A    between atoms: C4_9  and  C5_11 
ROOT
HETATM    1  C5  UNL     1      56.920  67.461  23.334  1.00  0.00     0.083 A 
HETATM    2  S1  UNL     1      56.174  66.480  22.103  1.00  0.00    -0.076 SA
HETATM    3  C6  UNL     1      56.847  64.978  22.495  1.00  0.00     0.100 A 
HETATM    4  C7  UNL     1      57.640  65.261  23.575  1.00  0.00     0.059 A 
HETATM    5  C8  UNL     1      57.673  66.540  24.004  1.00  0.00    -0.011 A 
HETATM    6  C9  UNL     1      58.533  66.958  25.198  1.00  0.00     0.052 C 
HETATM    7  N2  UNL     1      58.331  64.079  24.080  1.00  0.00    -0.372 N 
ATOM      8  H2  UNL     1      59.200  64.205  24.599  1.00  0.00     0.161 HD
HETATM    9  C10 UNL     1      57.839  62.752  23.876  1.00  0.00     0.246 C 
HETATM   10  N3  UNL     1      57.409  62.513  22.491  1.00  0.00    -0.340 N 
ATOM     11  H3  UNL     1      57.594  61.645  21.986  1.00  0.00     0.164 HD
HETATM   12  C11 UNL     1      56.710  63.617  21.927  1.00  0.00     0.262 C 
HETATM   13  O5  UNL     1      55.961  63.496  20.947  1.00  0.00    -0.267 OA
ENDROOT
BRANCH   1  14
HETATM   14  C4  UNL     1      56.715  68.898  23.501  1.00  0.00     0.283 C 
HETATM   15  N1  UNL     1      57.354  69.921  22.829  1.00  0.00    -0.221 N 
ATOM     16  H1  UNL     1      58.063  69.734  22.121  1.00  0.00     0.198 HD
HETATM   17  O4  UNL     1      55.820  69.203  24.394  1.00  0.00    -0.265 OA
BRANCH  15  18
HETATM   18  O3  UNL     1      56.975  71.240  23.170  1.00  0.00    -0.194 OA
BRANCH  18  19
HETATM   19  C3  UNL     1      57.162  72.306  22.332  1.00  0.00     0.304 C 
HETATM   20  O2  UNL     1      57.765  73.313  22.801  1.00  0.00    -0.261 OA
BRANCH  19  21
HETATM   21  C2  UNL     1      56.710  72.351  20.929  1.00  0.00     0.280 C 
BRANCH  21  22
HETATM   22  O1  UNL     1      57.740  72.769  20.128  1.00  0.00    -0.386 OA
HETATM   23  C1  UNL     1      57.429  73.819  19.291  1.00  0.00     0.202 C 
ENDBRANCH  21  22
ENDBRANCH  19  21
ENDBRANCH  18  19
ENDBRANCH  15  18
ENDBRANCH   1  14
TORSDOF 5
ENDMDL
MODEL 5
REMARK VINA RESULT: -5.269727500      2.824      7.733
REMARK  5 active torsions:
REMARK  status: ('A' for Active; 'I' for Inactive)
REMARK    1  A    between atoms: O1_2  and  C2_3 
REMARK    2  A    between atoms: C2_3  and  C3_4 
REMARK    3  A    between atoms: C3_4  and  O3_6 
REMARK    4  A    between atoms: O3_6  and  N1_7 
REMARK       I    between atoms: N1_7  and  C4_9 
REMARK    5  A    between atoms: C4_9  and  C5_11 
ROOT
HETATM    1  C5  UNL     1      56.948  67.469  23.307  1.00  0.00     0.083 A 
HETATM    2  S1  UNL     1      56.196  66.465  22.098  1.00  0.00    -0.076 SA
HETATM    3  C6  UNL     1      56.885  64.974  22.505  1.00  0.00     0.100 A 
HETATM    4  C7  UNL     1      57.687  65.278  23.571  1.00  0.00     0.059 A 
HETATM    5  C8  UNL     1      57.716  66.564  23.982  1.00  0.00    -0.011 A 
HETATM    6  C9  UNL     1      58.585  67.005  25.159  1.00  0.00     0.052 C 
HETATM    7  N2  UNL     1      58.393  64.110  24.086  1.00  0.00    -0.372 N 
ATOM      8  H2  UNL     1      59.267  64.250  24.593  1.00  0.00     0.161 HD
HETATM    9  C10 UNL     1      57.908  62.776  23.907  1.00  0.00     0.246 C 
HETATM   10  N3  UNL     1      57.465  62.513  22.530  1.00  0.00    -0.340 N 
ATOM     11  H3  UNL     1      57.650  61.639  22.037  1.00  0.00     0.164 HD
HETATM   12  C11 UNL     1      56.751  63.603  21.959  1.00  0.00     0.262 C 
HETATM   13  O5  UNL     1      55.993  63.463  20.989  1.00  0.00    -0.267 OA
ENDROOT
BRANCH   1  14
HETATM   14  C4  UNL     1      56.734  68.908  23.455  1.00  0.00     0.283 C 
HETATM   15  N1  UNL     1      57.384  69.926  22.787  1.00  0.00    -0.221 N 
ATOM     16  H1  UNL     1      58.110  69.735  22.097  1.00  0.00     0.198 HD
HETATM   17  O4  UNL     1      55.818  69.217  24.324  1.00  0.00    -0.265 OA
BRANCH  15  18
HETATM   18  O3  UNL     1      56.993  71.247  23.107  1.00  0.00    -0.194 OA
BRANCH  18  19
HETATM   19  C3  UNL     1      56.972  72.258  22.185  1.00  0.00     0.304 C 
HETATM   20  O2  UNL     1      56.368  72.038  21.096  1.00  0.00    -0.261 OA
BRANCH  19  21
HETATM   21  C2  UNL     1      57.604  73.576  22.381  1.00  0.00     0.280 C 
BRANCH  21  22
HETATM   22  O1  UNL     1      58.605  73.747  21.461  1.00  0.00    -0.386 OA
HETATM   23  C1  UNL     1      59.813  73.184  21.812  1.00  0.00     0.202 C 
ENDBRANCH  21  22
ENDBRANCH  19  21
ENDBRANCH  18  19
ENDBRANCH  15  18
ENDBRANCH   1  14
TORSDOF 5
ENDMDL
