MODEL 1
REMARK VINA RESULT: -7.780760227      0.000      0.000
REMARK  4 active torsions:
REMARK  status: ('A' for Active; 'I' for Inactive)
REMARK    1  A    between atoms: C2_5  and  S1_6 
REMARK    2  A    between atoms: S1_6  and  N3_9 
REMARK    3  A    between atoms: C9_22  and  N6_23 
REMARK    4  A    between atoms: N6_23  and  O4_25 
ROOT
HETATM    1  N1  UNL     1      53.985  74.738  20.415  1.00  0.00    -0.080 NA
HETATM    2  C1  UNL     1      55.258  74.129  20.174  1.00  0.00     0.152 A 
HETATM    3  N2  UNL     1      56.021  73.672  21.179  1.00  0.00    -0.318 N 
ATOM      4  H2  UNL     1      55.688  73.761  22.139  1.00  0.00     0.169 HD
HETATM    5  C2  UNL     1      57.217  73.099  20.949  1.00  0.00     0.228 A 
HETATM    6  N5  UNL     1      57.616  73.002  19.668  1.00  0.00    -0.296 N 
ATOM      7  H5  UNL     1      58.519  72.570  19.474  1.00  0.00     0.171 HD
HETATM    8  C8  UNL     1      56.885  73.446  18.635  1.00  0.00     0.279 A 
HETATM    9  O3  UNL     1      57.266  73.352  17.440  1.00  0.00    -0.265 OA
HETATM   10  C9  UNL     1      55.657  74.035  18.849  1.00  0.00     0.163 A 
ENDROOT
BRANCH   5  11
HETATM   11  S1  UNL     1      58.223  72.499  22.251  1.00  0.00     0.296 S 
HETATM   12  O1  UNL     1      57.690  73.064  23.553  1.00  0.00    -0.197 OA
HETATM   13  O2  UNL     1      59.618  73.001  22.105  1.00  0.00    -0.197 OA
BRANCH  11  14
HETATM   14  N3  UNL     1      58.126  70.781  22.272  1.00  0.00    -0.267 N 
HETATM   15  C3  UNL     1      57.106  70.163  22.755  1.00  0.00     0.086 C 
HETATM   16  C4  UNL     1      57.153  68.677  22.711  1.00  0.00     0.077 C 
HETATM   17  N4  UNL     1      56.015  70.870  23.292  1.00  0.00    -0.379 N 
HETATM   18  C5  UNL     1      55.790  68.071  22.935  1.00  0.00     0.009 C 
HETATM   19  C6  UNL     1      54.670  68.983  22.492  1.00  0.00     0.020 C 
HETATM   20  C7  UNL     1      54.685  70.308  23.219  1.00  0.00     0.121 C 
ATOM     21  H4  UNL     1      56.162  71.778  23.733  1.00  0.00     0.160 HD
ATOM     22  H3  UNL     1      58.900  70.237  21.891  1.00  0.00     0.180 HD
ENDBRANCH  11  14
ENDBRANCH   5  11
BRANCH  10  23
HETATM   23  N6  UNL     1      54.830  74.527  17.803  1.00  0.00    -0.261 N 
ATOM     24  H6  UNL     1      54.915  75.486  17.465  1.00  0.00     0.194 HD
BRANCH  23  25
HETATM   25  O4  UNL     1      53.993  73.737  17.315  1.00  0.00    -0.289 OA
ATOM     26  H4  UNL     1      53.405  73.298  17.918  1.00  0.00     0.244 HD
ENDBRANCH  23  25
ENDBRANCH  10  23
TORSDOF 4
ENDMDL
MODEL 2
REMARK VINA RESULT: -7.668586114      0.971      1.799
REMARK  4 active torsions:
REMARK  status: ('A' for Active; 'I' for Inactive)
REMARK    1  A    between atoms: C2_5  and  S1_6 
REMARK    2  A    between atoms: S1_6  and  N3_9 
REMARK    3  A    between atoms: C9_22  and  N6_23 
REMARK    4  A    between atoms: N6_23  and  O4_25 
ROOT
HETATM    1  N1  UNL     1      56.957  73.357  17.291  1.00  0.00    -0.080 NA
HETATM    2  C1  UNL     1      56.651  73.499  18.682  1.00  0.00     0.152 A 
HETATM    3  N2  UNL     1      57.470  73.026  19.635  1.00  0.00    -0.318 N 
ATOM      4  H2  UNL     1      58.332  72.552  19.362  1.00  0.00     0.169 HD
HETATM    5  C2  UNL     1      57.179  73.162  20.942  1.00  0.00     0.228 A 
HETATM    6  N5  UNL     1      56.034  73.792  21.255  1.00  0.00    -0.296 N 
ATOM      7  H5  UNL     1      55.797  73.905  22.241  1.00  0.00     0.171 HD
HETATM    8  C8  UNL     1      55.188  74.279  20.335  1.00  0.00     0.279 A 
HETATM    9  O3  UNL     1      54.118  74.867  20.637  1.00  0.00    -0.265 OA
HETATM   10  C9  UNL     1      55.467  74.151  18.991  1.00  0.00     0.163 A 
ENDROOT
BRANCH   5  11
HETATM   11  S1  UNL     1      58.238  72.549  22.195  1.00  0.00     0.296 S 
HETATM   12  O1  UNL     1      57.761  73.103  23.524  1.00  0.00    -0.197 OA
HETATM   13  O2  UNL     1      59.627  73.050  21.996  1.00  0.00    -0.197 OA
BRANCH  11  14
HETATM   14  N3  UNL     1      58.140  70.831  22.206  1.00  0.00    -0.267 N 
HETATM   15  C3  UNL     1      57.135  70.210  22.717  1.00  0.00     0.086 C 
HETATM   16  C4  UNL     1      57.179  68.724  22.659  1.00  0.00     0.077 C 
HETATM   17  N4  UNL     1      56.063  70.913  23.294  1.00  0.00    -0.379 N 
HETATM   18  C5  UNL     1      55.824  68.118  22.922  1.00  0.00     0.009 C 
HETATM   19  C6  UNL     1      54.691  69.035  22.523  1.00  0.00     0.020 C 
HETATM   20  C7  UNL     1      54.731  70.354  23.260  1.00  0.00     0.121 C 
ATOM     21  H4  UNL     1      56.226  71.818  23.738  1.00  0.00     0.160 HD
ATOM     22  H3  UNL     1      58.901  70.290  21.795  1.00  0.00     0.180 HD
ENDBRANCH  11  14
ENDBRANCH   5  11
BRANCH  10  23
HETATM   23  N6  UNL     1      54.618  74.643  17.963  1.00  0.00    -0.261 N 
ATOM     24  H6  UNL     1      54.527  75.643  17.783  1.00  0.00     0.194 HD
BRANCH  23  25
HETATM   25  O4  UNL     1      53.988  73.801  17.288  1.00  0.00    -0.289 OA
ATOM     26  H4  UNL     1      53.153  74.070  16.924  1.00  0.00     0.244 HD
ENDBRANCH  23  25
ENDBRANCH  10  23
TORSDOF 4
ENDMDL
MODEL 3
REMARK VINA RESULT: -7.367044277      2.632      4.100
REMARK  4 active torsions:
REMARK  status: ('A' for Active; 'I' for Inactive)
REMARK    1  A    between atoms: C2_5  and  S1_6 
REMARK    2  A    between atoms: S1_6  and  N3_9 
REMARK    3  A    between atoms: C9_22  and  N6_23 
REMARK    4  A    between atoms: N6_23  and  O4_25 
ROOT
HETATM    1  N1  UNL     1      56.312  72.961  19.192  1.00  0.00    -0.080 NA
HETATM    2  C1  UNL     1      56.731  72.397  20.439  1.00  0.00     0.152 A 
HETATM    3  N2  UNL     1      55.995  71.472  21.075  1.00  0.00    -0.318 N 
ATOM      4  H2  UNL     1      55.115  71.163  20.662  1.00  0.00     0.169 HD
HETATM    5  C2  UNL     1      56.392  70.944  22.248  1.00  0.00     0.228 A 
HETATM    6  N5  UNL     1      57.557  71.380  22.757  1.00  0.00    -0.296 N 
ATOM      7  H5  UNL     1      57.875  70.991  23.644  1.00  0.00     0.171 HD
HETATM    8  C8  UNL     1      58.322  72.303  22.154  1.00  0.00     0.279 A 
HETATM    9  O3  UNL     1      59.411  72.706  22.637  1.00  0.00    -0.265 OA
HETATM   10  C9  UNL     1      57.935  72.856  20.952  1.00  0.00     0.163 A 
ENDROOT
BRANCH   5  11
HETATM   11  S1  UNL     1      55.442  69.737  23.089  1.00  0.00     0.296 S 
HETATM   12  O1  UNL     1      53.977  70.097  22.927  1.00  0.00    -0.197 OA
HETATM   13  O2  UNL     1      55.731  69.770  24.551  1.00  0.00    -0.197 OA
BRANCH  11  14
HETATM   14  N3  UNL     1      55.751  68.201  22.379  1.00  0.00    -0.267 N 
HETATM   15  C3  UNL     1      56.693  67.432  22.803  1.00  0.00     0.086 C 
HETATM   16  C4  UNL     1      56.850  66.132  22.097  1.00  0.00     0.077 C 
HETATM   17  N4  UNL     1      57.518  67.817  23.875  1.00  0.00    -0.379 N 
HETATM   18  C5  UNL     1      57.696  65.169  22.892  1.00  0.00     0.009 C 
HETATM   19  C6  UNL     1      57.620  65.421  24.380  1.00  0.00     0.020 C 
HETATM   20  C7  UNL     1      58.076  66.813  24.752  1.00  0.00     0.121 C 
ATOM     21  H4  UNL     1      57.723  68.803  24.033  1.00  0.00     0.160 HD
ATOM     22  H3  UNL     1      55.172  67.891  21.599  1.00  0.00     0.180 HD
ENDBRANCH  11  14
ENDBRANCH   5  11
BRANCH  10  23
HETATM   23  N6  UNL     1      58.695  73.836  20.257  1.00  0.00    -0.261 N 
ATOM     24  H6  UNL     1      58.243  74.607  19.764  1.00  0.00     0.194 HD
BRANCH  23  25
HETATM   25  O4  UNL     1      59.938  73.715  20.276  1.00  0.00    -0.289 OA
ATOM     26  H4  UNL     1      60.289  72.849  20.446  1.00  0.00     0.244 HD
ENDBRANCH  23  25
ENDBRANCH  10  23
TORSDOF 4
ENDMDL
MODEL 4
REMARK VINA RESULT: -7.216012700      2.786      4.219
REMARK  4 active torsions:
REMARK  status: ('A' for Active; 'I' for Inactive)
REMARK    1  A    between atoms: C2_5  and  S1_6 
REMARK    2  A    between atoms: S1_6  and  N3_9 
REMARK    3  A    between atoms: C9_22  and  N6_23 
REMARK    4  A    between atoms: N6_23  and  O4_25 
ROOT
HETATM    1  N1  UNL     1      56.374  72.994  19.325  1.00  0.00    -0.080 NA
HETATM    2  C1  UNL     1      56.905  72.412  20.520  1.00  0.00     0.152 A 
HETATM    3  N2  UNL     1      56.283  71.402  21.147  1.00  0.00    -0.318 N 
ATOM      4  H2  UNL     1      55.410  71.038  20.764  1.00  0.00     0.169 HD
HETATM    5  C2  UNL     1      56.786  70.857  22.271  1.00  0.00     0.228 A 
HETATM    6  N5  UNL     1      57.938  71.367  22.740  1.00  0.00    -0.296 N 
ATOM      7  H5  UNL     1      58.335  70.967  23.590  1.00  0.00     0.171 HD
HETATM    8  C8  UNL     1      58.590  72.377  22.145  1.00  0.00     0.279 A 
HETATM    9  O3  UNL     1      59.668  72.848  22.590  1.00  0.00    -0.265 OA
HETATM   10  C9  UNL     1      58.094  72.949  20.993  1.00  0.00     0.163 A 
ENDROOT
BRANCH   5  11
HETATM   11  S1  UNL     1      55.985  69.538  23.099  1.00  0.00     0.296 S 
HETATM   12  O1  UNL     1      55.238  68.719  22.064  1.00  0.00    -0.197 OA
HETATM   13  O2  UNL     1      54.963  70.062  24.049  1.00  0.00    -0.197 OA
BRANCH  11  14
HETATM   14  N3  UNL     1      57.179  68.566  23.867  1.00  0.00    -0.267 N 
HETATM   15  C3  UNL     1      56.986  67.318  24.112  1.00  0.00     0.086 C 
HETATM   16  C4  UNL     1      58.101  66.596  24.781  1.00  0.00     0.077 C 
HETATM   17  N4  UNL     1      55.780  66.686  23.760  1.00  0.00    -0.379 N 
HETATM   18  C5  UNL     1      57.938  65.100  24.675  1.00  0.00     0.009 C 
HETATM   19  C6  UNL     1      57.162  64.687  23.446  1.00  0.00     0.020 C 
HETATM   20  C7  UNL     1      55.774  65.282  23.413  1.00  0.00     0.121 C 
ATOM     21  H4  UNL     1      54.909  67.218  23.749  1.00  0.00     0.160 HD
ATOM     22  H3  UNL     1      58.065  68.993  24.136  1.00  0.00     0.180 HD
ENDBRANCH  11  14
ENDBRANCH   5  11
BRANCH  10  23
HETATM   23  N6  UNL     1      58.732  74.019  20.309  1.00  0.00    -0.261 N 
ATOM     24  H6  UNL     1      58.202  74.822  19.968  1.00  0.00     0.194 HD
BRANCH  23  25
HETATM   25  O4  UNL     1      59.967  73.936  20.142  1.00  0.00    -0.289 OA
ATOM     26  H4  UNL     1      60.390  73.129  20.411  1.00  0.00     0.244 HD
ENDBRANCH  23  25
ENDBRANCH  10  23
TORSDOF 4
ENDMDL
MODEL 5
REMARK VINA RESULT: -7.076624158      2.677      4.110
REMARK  4 active torsions:
REMARK  status: ('A' for Active; 'I' for Inactive)
REMARK    1  A    between atoms: C2_5  and  S1_6 
REMARK    2  A    between atoms: S1_6  and  N3_9 
REMARK    3  A    between atoms: C9_22  and  N6_23 
REMARK    4  A    between atoms: N6_23  and  O4_25 
ROOT
HETATM    1  N1  UNL     1      59.583  72.765  22.593  1.00  0.00    -0.080 NA
HETATM    2  C1  UNL     1      58.333  72.295  22.077  1.00  0.00     0.152 A 
HETATM    3  N2  UNL     1      57.606  71.373  22.726  1.00  0.00    -0.318 N 
ATOM      4  H2  UNL     1      57.952  70.996  23.609  1.00  0.00     0.169 HD
HETATM    5  C2  UNL     1      56.431  70.933  22.238  1.00  0.00     0.228 A 
HETATM    6  N5  UNL     1      56.015  71.457  21.072  1.00  0.00    -0.296 N 
ATOM      7  H5  UNL     1      55.127  71.137  20.686  1.00  0.00     0.171 HD
HETATM    8  C8  UNL     1      56.711  72.379  20.390  1.00  0.00     0.279 A 
HETATM    9  O3  UNL     1      56.314  72.864  19.300  1.00  0.00    -0.265 OA
HETATM   10  C9  UNL     1      57.916  72.844  20.873  1.00  0.00     0.163 A 
ENDROOT
BRANCH   5  11
HETATM   11  S1  UNL     1      55.473  69.730  23.074  1.00  0.00     0.296 S 
HETATM   12  O1  UNL     1      54.011  70.100  22.912  1.00  0.00    -0.197 OA
HETATM   13  O2  UNL     1      55.762  69.757  24.536  1.00  0.00    -0.197 OA
BRANCH  11  14
HETATM   14  N3  UNL     1      55.773  68.194  22.359  1.00  0.00    -0.267 N 
HETATM   15  C3  UNL     1      56.702  67.414  22.788  1.00  0.00     0.086 C 
HETATM   16  C4  UNL     1      56.853  66.115  22.078  1.00  0.00     0.077 C 
HETATM   17  N4  UNL     1      57.522  67.784  23.869  1.00  0.00    -0.379 N 
HETATM   18  C5  UNL     1      57.681  65.139  22.876  1.00  0.00     0.009 C 
HETATM   19  C6  UNL     1      57.594  65.386  24.364  1.00  0.00     0.020 C 
HETATM   20  C7  UNL     1      58.061  66.771  24.747  1.00  0.00     0.121 C 
ATOM     21  H4  UNL     1      57.736  68.768  24.034  1.00  0.00     0.160 HD
ATOM     22  H3  UNL     1      55.197  67.894  21.573  1.00  0.00     0.180 HD
ENDBRANCH  11  14
ENDBRANCH   5  11
BRANCH  10  23
HETATM   23  N6  UNL     1      58.705  73.820  20.206  1.00  0.00    -0.261 N 
ATOM     24  H6  UNL     1      58.276  74.600  19.708  1.00  0.00     0.194 HD
BRANCH  23  25
HETATM   25  O4  UNL     1      59.946  73.683  20.254  1.00  0.00    -0.289 OA
ATOM     26  H4  UNL     1      60.475  74.469  20.183  1.00  0.00     0.244 HD
ENDBRANCH  23  25
ENDBRANCH  10  23
TORSDOF 4
ENDMDL
