MODEL 1
REMARK VINA RESULT: -5.775331996      0.000      0.000
REMARK  5 active torsions:
REMARK  status: ('A' for Active; 'I' for Inactive)
REMARK    1  A    between atoms: N1_2  and  C2_4 
REMARK    2  A    between atoms: C3_7  and  N3_8 
REMARK    3  A    between atoms: C10_19  and  N6_20 
REMARK    4  A    between atoms: C11_23  and  C12_24 
REMARK    5  A    between atoms: C12_24  and  O2_26 
ROOT
HETATM    1  C2  UNL     1      62.175  65.154  25.309  1.00  0.00     0.136 A 
HETATM    2  N2  UNL     1      61.016  64.928  24.603  1.00  0.00    -0.175 N 
ATOM      3  H2  UNL     1      61.032  64.267  23.827  1.00  0.00     0.186 HD
HETATM    4  C3  UNL     1      59.876  65.544  24.903  1.00  0.00     0.689 A 
HETATM    5  N5  UNL     1      59.885  66.408  25.928  1.00  0.00    -0.175 N 
ATOM      6  H5  UNL     1      59.021  66.891  26.173  1.00  0.00     0.186 HD
HETATM    7  C10 UNL     1      60.988  66.657  26.641  1.00  0.00     0.135 A 
HETATM    8  C11 UNL     1      62.208  66.027  26.355  1.00  0.00     0.127 A 
ENDROOT
BRANCH   4   9
HETATM    9  N3  UNL     1      58.663  65.285  24.167  1.00  0.00    -0.170 N 
HETATM   10  C4  UNL     1      57.930  66.228  23.352  1.00  0.00     0.179 C 
HETATM   11  C5  UNL     1      56.604  65.567  23.170  1.00  0.00     0.041 C 
HETATM   12  C6  UNL     1      56.175  65.520  21.717  1.00  0.00     0.039 C 
HETATM   13  C7  UNL     1      55.601  66.304  23.996  1.00  0.00     0.039 C 
HETATM   14  N4  UNL     1      56.813  64.194  23.572  1.00  0.00    -0.369 N 
HETATM   15  C8  UNL     1      57.964  64.050  24.126  1.00  0.00     0.092 C 
ATOM     16  H4  UNL     1      56.138  63.441  23.436  1.00  0.00     0.161 HD
HETATM   17  C9  UNL     1      58.543  62.766  24.681  1.00  0.00     0.089 C 
ENDBRANCH   4   9
BRANCH   1  18
HETATM   18  N1  UNL     1      63.349  64.463  24.932  1.00  0.00    -0.379 N 
HETATM   19  C1  UNL     1      63.438  63.049  25.269  1.00  0.00     0.147 C 
ATOM     20  H1  UNL     1      64.107  64.938  24.442  1.00  0.00     0.160 HD
ENDBRANCH   1  18
BRANCH   7  21
HETATM   21  N6  UNL     1      60.961  67.507  27.638  1.00  0.00    -0.384 N 
ATOM     22  H62 UNL     1      60.989  68.501  27.414  1.00  0.00     0.157 HD
ATOM     23  H61 UNL     1      60.914  67.176  28.602  1.00  0.00     0.157 HD
ENDBRANCH   7  21
BRANCH   8  24
HETATM   24  C12 UNL     1      63.350  66.370  27.180  1.00  0.00     0.300 C 
HETATM   25  O1  UNL     1      64.474  66.639  26.614  1.00  0.00    -0.259 OA
BRANCH  24  26
HETATM   26  O2  UNL     1      63.391  66.447  28.545  1.00  0.00    -0.322 OA
HETATM   27  C13 UNL     1      64.413  67.155  29.219  1.00  0.00     0.213 C 
ENDBRANCH  24  26
ENDBRANCH   8  24
TORSDOF 5
ENDMDL
MODEL 2
REMARK VINA RESULT: -5.719295319      0.595      2.233
REMARK  5 active torsions:
REMARK  status: ('A' for Active; 'I' for Inactive)
REMARK    1  A    between atoms: N1_2  and  C2_4 
REMARK    2  A    between atoms: C3_7  and  N3_8 
REMARK    3  A    between atoms: C10_19  and  N6_20 
REMARK    4  A    between atoms: C11_23  and  C12_24 
REMARK    5  A    between atoms: C12_24  and  O2_26 
ROOT
HETATM    1  C2  UNL     1      61.081  66.525  26.725  1.00  0.00     0.136 A 
HETATM    2  N2  UNL     1      59.937  66.272  26.005  1.00  0.00    -0.175 N 
ATOM      3  H2  UNL     1      59.074  66.750  26.264  1.00  0.00     0.186 HD
HETATM    4  C3  UNL     1      59.921  65.422  24.983  1.00  0.00     0.689 A 
HETATM    5  N5  UNL     1      61.070  64.807  24.665  1.00  0.00    -0.175 N 
ATOM      6  H5  UNL     1      61.078  64.151  23.885  1.00  0.00     0.186 HD
HETATM    7  C10 UNL     1      62.205  65.024  25.338  1.00  0.00     0.135 A 
HETATM    8  C11 UNL     1      62.259  65.912  26.421  1.00  0.00     0.127 A 
ENDROOT
BRANCH   4   9
HETATM    9  N3  UNL     1      58.719  65.177  24.223  1.00  0.00    -0.170 N 
HETATM   10  C4  UNL     1      58.011  66.129  23.397  1.00  0.00     0.179 C 
HETATM   11  C5  UNL     1      56.682  65.481  23.189  1.00  0.00     0.041 C 
HETATM   12  C6  UNL     1      56.280  65.442  21.728  1.00  0.00     0.039 C 
HETATM   13  C7  UNL     1      55.671  66.226  23.998  1.00  0.00     0.039 C 
HETATM   14  N4  UNL     1      56.870  64.105  23.591  1.00  0.00    -0.369 N 
HETATM   15  C8  UNL     1      58.009  63.949  24.166  1.00  0.00     0.092 C 
ATOM     16  H4  UNL     1      56.191  63.359  23.440  1.00  0.00     0.161 HD
HETATM   17  C9  UNL     1      58.565  62.658  24.728  1.00  0.00     0.089 C 
ENDBRANCH   4   9
BRANCH   1  18
HETATM   18  N1  UNL     1      61.021  67.440  27.801  1.00  0.00    -0.379 N 
HETATM   19  C1  UNL     1      60.623  66.925  29.105  1.00  0.00     0.147 C 
ATOM     20  H1  UNL     1      61.248  68.426  27.670  1.00  0.00     0.160 HD
ENDBRANCH   1  18
BRANCH   7  21
HETATM   21  N6  UNL     1      63.309  64.407  25.000  1.00  0.00    -0.384 N 
ATOM     22  H62 UNL     1      63.549  64.372  24.009  1.00  0.00     0.157 HD
ATOM     23  H61 UNL     1      63.904  63.978  25.710  1.00  0.00     0.157 HD
ENDBRANCH   7  21
BRANCH   8  24
HETATM   24  C12 UNL     1      63.535  66.074  27.092  1.00  0.00     0.300 C 
HETATM   25  O1  UNL     1      64.552  66.479  26.416  1.00  0.00    -0.259 OA
BRANCH  24  26
HETATM   26  O2  UNL     1      63.811  65.841  28.412  1.00  0.00    -0.322 OA
HETATM   27  C13 UNL     1      64.391  66.833  29.235  1.00  0.00     0.213 C 
ENDBRANCH  24  26
ENDBRANCH   8  24
TORSDOF 5
ENDMDL
MODEL 3
REMARK VINA RESULT: -5.664748136      2.172      3.505
REMARK  5 active torsions:
REMARK  status: ('A' for Active; 'I' for Inactive)
REMARK    1  A    between atoms: N1_2  and  C2_4 
REMARK    2  A    between atoms: C3_7  and  N3_8 
REMARK    3  A    between atoms: C10_19  and  N6_20 
REMARK    4  A    between atoms: C11_23  and  C12_24 
REMARK    5  A    between atoms: C12_24  and  O2_26 
ROOT
HETATM    1  C2  UNL     1      59.802  65.821  26.263  1.00  0.00     0.136 A 
HETATM    2  N2  UNL     1      58.749  66.486  25.678  1.00  0.00    -0.175 N 
ATOM      3  H2  UNL     1      58.186  67.117  26.247  1.00  0.00     0.186 HD
HETATM    4  C3  UNL     1      58.445  66.330  24.393  1.00  0.00     0.689 A 
HETATM    5  N5  UNL     1      59.202  65.494  23.668  1.00  0.00    -0.175 N 
ATOM      6  H5  UNL     1      58.984  65.361  22.682  1.00  0.00     0.186 HD
HETATM    7  C10 UNL     1      60.235  64.828  24.196  1.00  0.00     0.135 A 
HETATM    8  C11 UNL     1      60.586  64.966  25.547  1.00  0.00     0.127 A 
ENDROOT
BRANCH   4   9
HETATM    9  N3  UNL     1      57.349  67.046  23.785  1.00  0.00    -0.170 N 
HETATM   10  C4  UNL     1      57.305  68.459  23.480  1.00  0.00     0.179 C 
HETATM   11  C5  UNL     1      55.851  68.715  23.251  1.00  0.00     0.041 C 
HETATM   12  C6  UNL     1      55.592  69.456  21.954  1.00  0.00     0.039 C 
HETATM   13  C7  UNL     1      55.326  69.485  24.417  1.00  0.00     0.039 C 
HETATM   14  N4  UNL     1      55.262  67.404  23.089  1.00  0.00    -0.369 N 
HETATM   15  C8  UNL     1      56.108  66.483  23.390  1.00  0.00     0.092 C 
ATOM     16  H4  UNL     1      54.306  67.233  22.779  1.00  0.00     0.161 HD
HETATM   17  C9  UNL     1      55.864  64.989  23.350  1.00  0.00     0.089 C 
ENDBRANCH   4   9
BRANCH   1  18
HETATM   18  N1  UNL     1      60.065  66.035  27.635  1.00  0.00    -0.379 N 
HETATM   19  C1  UNL     1      60.724  67.279  28.010  1.00  0.00     0.147 C 
ATOM     20  H1  UNL     1      59.804  65.344  28.338  1.00  0.00     0.160 HD
ENDBRANCH   1  18
BRANCH   7  21
HETATM   21  N6  UNL     1      60.955  64.020  23.460  1.00  0.00    -0.384 N 
ATOM     22  H62 UNL     1      60.482  63.229  23.024  1.00  0.00     0.157 HD
ATOM     23  H61 UNL     1      61.954  64.183  23.333  1.00  0.00     0.157 HD
ENDBRANCH   7  21
BRANCH   8  24
HETATM   24  C12 UNL     1      61.716  64.197  26.028  1.00  0.00     0.300 C 
HETATM   25  O1  UNL     1      61.502  63.144  26.737  1.00  0.00    -0.259 OA
BRANCH  24  26
HETATM   26  O2  UNL     1      63.043  64.456  25.819  1.00  0.00    -0.322 OA
HETATM   27  C13 UNL     1      63.727  65.459  26.543  1.00  0.00     0.213 C 
ENDBRANCH  24  26
ENDBRANCH   8  24
TORSDOF 5
ENDMDL
MODEL 4
REMARK VINA RESULT: -5.488222866      2.248      2.954
REMARK  5 active torsions:
REMARK  status: ('A' for Active; 'I' for Inactive)
REMARK    1  A    between atoms: N1_2  and  C2_4 
REMARK    2  A    between atoms: C3_7  and  N3_8 
REMARK    3  A    between atoms: C10_19  and  N6_20 
REMARK    4  A    between atoms: C11_23  and  C12_24 
REMARK    5  A    between atoms: C12_24  and  O2_26 
ROOT
HETATM    1  C2  UNL     1      60.196  64.840  24.238  1.00  0.00     0.136 A 
HETATM    2  N2  UNL     1      59.163  65.546  23.667  1.00  0.00    -0.175 N 
ATOM      3  H2  UNL     1      58.969  65.420  22.673  1.00  0.00     0.186 HD
HETATM    4  C3  UNL     1      58.410  66.387  24.369  1.00  0.00     0.689 A 
HETATM    5  N5  UNL     1      58.688  66.533  25.673  1.00  0.00    -0.175 N 
ATOM      6  H5  UNL     1      58.122  67.174  26.228  1.00  0.00     0.186 HD
HETATM    7  C10 UNL     1      59.682  65.867  26.269  1.00  0.00     0.135 A 
HETATM    8  C11 UNL     1      60.497  64.972  25.561  1.00  0.00     0.127 A 
ENDROOT
BRANCH   4   9
HETATM    9  N3  UNL     1      57.318  67.109  23.763  1.00  0.00    -0.170 N 
HETATM   10  C4  UNL     1      57.282  68.521  23.455  1.00  0.00     0.179 C 
HETATM   11  C5  UNL     1      55.830  68.786  23.228  1.00  0.00     0.041 C 
HETATM   12  C6  UNL     1      55.573  69.527  21.932  1.00  0.00     0.039 C 
HETATM   13  C7  UNL     1      55.312  69.562  24.395  1.00  0.00     0.039 C 
HETATM   14  N4  UNL     1      55.232  67.479  23.071  1.00  0.00    -0.369 N 
HETATM   15  C8  UNL     1      56.072  66.553  23.371  1.00  0.00     0.092 C 
ATOM     16  H4  UNL     1      54.273  67.313  22.764  1.00  0.00     0.161 HD
HETATM   17  C9  UNL     1      55.819  65.061  23.336  1.00  0.00     0.089 C 
ENDBRANCH   4   9
BRANCH   1  18
HETATM   18  N1  UNL     1      60.955  63.965  23.428  1.00  0.00    -0.379 N 
HETATM   19  C1  UNL     1      60.246  62.888  22.750  1.00  0.00     0.147 C 
ATOM     20  H1  UNL     1      61.962  64.083  23.322  1.00  0.00     0.160 HD
ENDBRANCH   1  18
BRANCH   7  21
HETATM   21  N6  UNL     1      59.926  66.032  27.545  1.00  0.00    -0.384 N 
ATOM     22  H62 UNL     1      59.701  65.261  28.174  1.00  0.00     0.157 HD
ATOM     23  H61 UNL     1      60.326  66.905  27.890  1.00  0.00     0.157 HD
ENDBRANCH   7  21
BRANCH   8  24
HETATM   24  C12 UNL     1      61.554  64.303  26.294  1.00  0.00     0.300 C 
HETATM   25  O1  UNL     1      61.584  63.017  26.317  1.00  0.00    -0.259 OA
BRANCH  24  26
HETATM   26  O2  UNL     1      62.571  64.888  26.998  1.00  0.00    -0.322 OA
HETATM   27  C13 UNL     1      63.412  65.864  26.416  1.00  0.00     0.213 C 
ENDBRANCH  24  26
ENDBRANCH   8  24
TORSDOF 5
ENDMDL
MODEL 5
REMARK VINA RESULT: -5.462161932      0.946      1.726
REMARK  5 active torsions:
REMARK  status: ('A' for Active; 'I' for Inactive)
REMARK    1  A    between atoms: N1_2  and  C2_4 
REMARK    2  A    between atoms: C3_7  and  N3_8 
REMARK    3  A    between atoms: C10_19  and  N6_20 
REMARK    4  A    between atoms: C11_23  and  C12_24 
REMARK    5  A    between atoms: C12_24  and  O2_26 
ROOT
HETATM    1  C2  UNL     1      61.858  65.271  25.228  1.00  0.00     0.136 A 
HETATM    2  N2  UNL     1      60.691  65.052  24.533  1.00  0.00    -0.175 N 
ATOM      3  H2  UNL     1      60.716  64.466  23.698  1.00  0.00     0.186 HD
HETATM    4  C3  UNL     1      59.533  65.579  24.917  1.00  0.00     0.689 A 
HETATM    5  N5  UNL     1      59.529  66.344  26.018  1.00  0.00    -0.175 N 
ATOM      6  H5  UNL     1      58.651  66.758  26.328  1.00  0.00     0.186 HD
HETATM    7  C10 UNL     1      60.639  66.583  26.724  1.00  0.00     0.135 A 
HETATM    8  C11 UNL     1      61.879  66.045  26.350  1.00  0.00     0.127 A 
ENDROOT
BRANCH   4   9
HETATM    9  N3  UNL     1      58.312  65.328  24.190  1.00  0.00    -0.170 N 
HETATM   10  C4  UNL     1      57.855  64.053  23.685  1.00  0.00     0.179 C 
HETATM   11  C5  UNL     1      56.789  64.431  22.710  1.00  0.00     0.041 C 
HETATM   12  C6  UNL     1      55.501  63.664  22.934  1.00  0.00     0.039 C 
HETATM   13  C7  UNL     1      57.315  64.196  21.332  1.00  0.00     0.039 C 
HETATM   14  N4  UNL     1      56.489  65.815  23.004  1.00  0.00    -0.369 N 
HETATM   15  C8  UNL     1      57.345  66.302  23.830  1.00  0.00     0.092 C 
ATOM     16  H4  UNL     1      55.705  66.335  22.609  1.00  0.00     0.161 HD
HETATM   17  C9  UNL     1      57.369  67.715  24.374  1.00  0.00     0.089 C 
ENDBRANCH   4   9
BRANCH   1  18
HETATM   18  N1  UNL     1      63.053  64.678  24.760  1.00  0.00    -0.379 N 
HETATM   19  C1  UNL     1      63.299  63.286  25.112  1.00  0.00     0.147 C 
ATOM     20  H1  UNL     1      63.718  65.206  24.195  1.00  0.00     0.160 HD
ENDBRANCH   1  18
BRANCH   7  21
HETATM   21  N6  UNL     1      60.601  67.334  27.796  1.00  0.00    -0.384 N 
ATOM     22  H62 UNL     1      59.857  68.029  27.861  1.00  0.00     0.157 HD
ATOM     23  H61 UNL     1      61.295  67.223  28.535  1.00  0.00     0.157 HD
ENDBRANCH   7  21
BRANCH   8  24
HETATM   24  C12 UNL     1      63.027  66.367  27.175  1.00  0.00     0.300 C 
HETATM   25  O1  UNL     1      64.122  66.738  26.609  1.00  0.00    -0.259 OA
BRANCH  24  26
HETATM   26  O2  UNL     1      63.102  66.327  28.541  1.00  0.00    -0.322 OA
HETATM   27  C13 UNL     1      64.138  66.979  29.247  1.00  0.00     0.213 C 
ENDBRANCH  24  26
ENDBRANCH   8  24
TORSDOF 5
ENDMDL
