MODEL 1
REMARK VINA RESULT: -7.946754024      0.000      0.000
REMARK  4 active torsions:
REMARK  status: ('A' for Active; 'I' for Inactive)
REMARK       I    between atoms: C1_2  and  N1_3 
REMARK       I    between atoms: C1_2  and  N4_13 
REMARK    1  A    between atoms: N1_3  and  C2_5 
REMARK    2  A    between atoms: N4_13  and  N5_15 
REMARK    3  A    between atoms: C4_17  and  C5_18 
REMARK    4  A    between atoms: C8_21  and  N6_22 
ROOT
HETATM    1  O1  UNL     1      57.686  72.944  23.187  1.00  0.00    -0.245 OA
HETATM    2  C1  UNL     1      57.360  72.866  21.977  1.00  0.00     0.340 C 
HETATM    3  N1  UNL     1      57.258  74.027  21.188  1.00  0.00    -0.286 N 
ATOM      4  H1  UNL     1      58.030  74.688  21.105  1.00  0.00     0.172 HD
HETATM    5  N4  UNL     1      57.090  71.595  21.385  1.00  0.00    -0.252 N 
ATOM      6  H4  UNL     1      56.826  71.533  20.401  1.00  0.00     0.191 HD
ENDROOT
BRANCH   5   7
HETATM    7  N5  UNL     1      57.187  70.445  22.153  1.00  0.00    -0.305 N 
HETATM    8  C4  UNL     1      56.269  69.540  22.188  1.00  0.00     0.144 C 
ATOM      9  H5  UNL     1      58.026  70.307  22.718  1.00  0.00     0.186 HD
BRANCH   8  10
HETATM   10  C5  UNL     1      56.373  68.338  22.991  1.00  0.00     0.095 A 
HETATM   11  C6  UNL     1      55.369  67.432  23.219  1.00  0.00     0.043 A 
HETATM   12  C7  UNL     1      55.868  66.443  24.025  1.00  0.00     0.065 A 
HETATM   13  C8  UNL     1      57.191  66.794  24.263  1.00  0.00     0.215 A 
HETATM   14  O4  UNL     1      57.437  67.926  23.627  1.00  0.00    -0.287 OA
BRANCH  13  15
HETATM   15  N6  UNL     1      58.108  66.064  25.051  1.00  0.00    -0.090 N 
HETATM   16  O2  UNL     1      59.082  66.648  25.564  1.00  0.00    -0.530 OA
HETATM   17  O3  UNL     1      57.961  64.731  25.272  1.00  0.00    -0.530 OA
ENDBRANCH  13  15
ENDBRANCH   8  10
ENDBRANCH   5   7
BRANCH   3  18
HETATM   18  C2  UNL     1      56.114  74.214  20.564  1.00  0.00     0.170 A 
HETATM   19  N2  UNL     1      54.910  74.391  21.109  1.00  0.00    -0.278 N 
HETATM   20  N3  UNL     1      53.903  74.559  20.340  1.00  0.00    -0.282 N 
ATOM     21  H2  UNL     1      54.795  74.391  22.122  1.00  0.00     0.189 HD
HETATM   22  C3  UNL     1      54.091  74.552  19.020  1.00  0.00     0.160 A 
ATOM     23  H3  UNL     1      52.971  74.697  20.731  1.00  0.00     0.188 HD
HETATM   24  S1  UNL     1      52.942  74.748  17.839  1.00  0.00    -0.051 SA
HETATM   25  S2  UNL     1      55.773  74.293  18.894  1.00  0.00    -0.021 SA
ENDBRANCH   3  18
TORSDOF 4
ENDMDL
MODEL 2
REMARK VINA RESULT: -7.705236761      0.977      1.218
REMARK  4 active torsions:
REMARK  status: ('A' for Active; 'I' for Inactive)
REMARK       I    between atoms: C1_2  and  N1_3 
REMARK       I    between atoms: C1_2  and  N4_13 
REMARK    1  A    between atoms: N1_3  and  C2_5 
REMARK    2  A    between atoms: N4_13  and  N5_15 
REMARK    3  A    between atoms: C4_17  and  C5_18 
REMARK    4  A    between atoms: C8_21  and  N6_22 
ROOT
HETATM    1  O1  UNL     1      57.471  72.977  23.325  1.00  0.00    -0.245 OA
HETATM    2  C1  UNL     1      57.496  72.904  22.072  1.00  0.00     0.340 C 
HETATM    3  N1  UNL     1      57.513  74.071  21.287  1.00  0.00    -0.286 N 
ATOM      4  H1  UNL     1      58.218  74.797  21.420  1.00  0.00     0.172 HD
HETATM    5  N4  UNL     1      57.510  71.630  21.426  1.00  0.00    -0.252 N 
ATOM      6  H4  UNL     1      57.532  71.572  20.407  1.00  0.00     0.191 HD
ENDROOT
BRANCH   5   7
HETATM    7  N5  UNL     1      57.493  70.473  22.189  1.00  0.00    -0.305 N 
HETATM    8  C4  UNL     1      56.508  69.640  22.188  1.00  0.00     0.144 C 
ATOM      9  H5  UNL     1      58.300  70.269  22.781  1.00  0.00     0.186 HD
BRANCH   8  10
HETATM   10  C5  UNL     1      56.493  68.432  22.987  1.00  0.00     0.095 A 
HETATM   11  C6  UNL     1      55.412  67.612  23.188  1.00  0.00     0.043 A 
HETATM   12  C7  UNL     1      55.809  66.581  23.999  1.00  0.00     0.065 A 
HETATM   13  C8  UNL     1      57.151  66.819  24.267  1.00  0.00     0.215 A 
HETATM   14  O4  UNL     1      57.505  67.928  23.642  1.00  0.00    -0.287 OA
BRANCH  13  15
HETATM   15  N6  UNL     1      57.986  66.011  25.070  1.00  0.00    -0.090 N 
HETATM   16  O2  UNL     1      57.722  64.801  25.210  1.00  0.00    -0.530 OA
HETATM   17  O3  UNL     1      59.080  66.515  25.700  1.00  0.00    -0.530 OA
ENDBRANCH  13  15
ENDBRANCH   8  10
ENDBRANCH   5   7
BRANCH   3  18
HETATM   18  C2  UNL     1      56.572  74.179  20.373  1.00  0.00     0.170 A 
HETATM   19  N2  UNL     1      56.717  74.146  19.048  1.00  0.00    -0.278 N 
HETATM   20  N3  UNL     1      55.681  74.266  18.310  1.00  0.00    -0.282 N 
ATOM     21  H2  UNL     1      57.640  74.026  18.631  1.00  0.00     0.189 HD
HETATM   22  C3  UNL     1      54.490  74.423  18.889  1.00  0.00     0.160 A 
ATOM     23  H3  UNL     1      55.765  74.244  17.293  1.00  0.00     0.188 HD
HETATM   24  S1  UNL     1      53.022  74.599  18.139  1.00  0.00    -0.051 SA
HETATM   25  S2  UNL     1      54.888  74.393  20.548  1.00  0.00    -0.021 SA
ENDBRANCH   3  18
TORSDOF 4
ENDMDL
MODEL 3
REMARK VINA RESULT: -7.683212941      1.628      1.808
REMARK  4 active torsions:
REMARK  status: ('A' for Active; 'I' for Inactive)
REMARK       I    between atoms: C1_2  and  N1_3 
REMARK       I    between atoms: C1_2  and  N4_13 
REMARK    1  A    between atoms: N1_3  and  C2_5 
REMARK    2  A    between atoms: N4_13  and  N5_15 
REMARK    3  A    between atoms: C4_17  and  C5_18 
REMARK    4  A    between atoms: C8_21  and  N6_22 
ROOT
HETATM    1  O1  UNL     1      57.353  72.623  23.122  1.00  0.00    -0.245 OA
HETATM    2  C1  UNL     1      57.075  72.659  21.898  1.00  0.00     0.340 C 
HETATM    3  N1  UNL     1      57.050  73.884  21.207  1.00  0.00    -0.286 N 
ATOM      4  H1  UNL     1      57.849  74.517  21.209  1.00  0.00     0.172 HD
HETATM    5  N4  UNL     1      56.780  71.454  21.192  1.00  0.00    -0.252 N 
ATOM      6  H4  UNL     1      56.555  71.485  20.197  1.00  0.00     0.191 HD
ENDROOT
BRANCH   5   7
HETATM    7  N5  UNL     1      56.802  70.241  21.863  1.00  0.00    -0.305 N 
HETATM    8  C4  UNL     1      55.821  69.403  21.838  1.00  0.00     0.144 C 
ATOM      9  H5  UNL     1      57.632  70.000  22.403  1.00  0.00     0.186 HD
BRANCH   8  10
HETATM   10  C5  UNL     1      55.846  68.136  22.540  1.00  0.00     0.095 A 
HETATM   11  C6  UNL     1      55.802  67.968  23.900  1.00  0.00     0.043 A 
HETATM   12  C7  UNL     1      55.846  66.624  24.162  1.00  0.00     0.065 A 
HETATM   13  C8  UNL     1      55.917  66.009  22.918  1.00  0.00     0.215 A 
HETATM   14  O4  UNL     1      55.914  66.952  21.992  1.00  0.00    -0.287 OA
BRANCH  13  15
HETATM   15  N6  UNL     1      55.982  64.617  22.690  1.00  0.00    -0.090 N 
HETATM   16  O2  UNL     1      55.837  63.829  23.644  1.00  0.00    -0.530 OA
HETATM   17  O3  UNL     1      56.198  64.102  21.450  1.00  0.00    -0.530 OA
ENDBRANCH  13  15
ENDBRANCH   8  10
ENDBRANCH   5   7
BRANCH   3  18
HETATM   18  C2  UNL     1      55.941  74.171  20.558  1.00  0.00     0.170 A 
HETATM   19  N2  UNL     1      54.749  74.467  21.077  1.00  0.00    -0.278 N 
HETATM   20  N3  UNL     1      53.777  74.720  20.287  1.00  0.00    -0.282 N 
ATOM     21  H2  UNL     1      54.615  74.492  22.088  1.00  0.00     0.189 HD
HETATM   22  C3  UNL     1      53.987  74.678  18.971  1.00  0.00     0.160 A 
ATOM     23  H3  UNL     1      52.855  74.951  20.658  1.00  0.00     0.188 HD
HETATM   24  S1  UNL     1      52.884  74.966  17.766  1.00  0.00    -0.051 SA
HETATM   25  S2  UNL     1      55.639  74.259  18.881  1.00  0.00    -0.021 SA
ENDBRANCH   3  18
TORSDOF 4
ENDMDL
MODEL 4
REMARK VINA RESULT: -7.653342256      1.893      2.055
REMARK  4 active torsions:
REMARK  status: ('A' for Active; 'I' for Inactive)
REMARK       I    between atoms: C1_2  and  N1_3 
REMARK       I    between atoms: C1_2  and  N4_13 
REMARK    1  A    between atoms: N1_3  and  C2_5 
REMARK    2  A    between atoms: N4_13  and  N5_15 
REMARK    3  A    between atoms: C4_17  and  C5_18 
REMARK    4  A    between atoms: C8_21  and  N6_22 
ROOT
HETATM    1  O1  UNL     1      57.273  72.543  23.462  1.00  0.00    -0.245 OA
HETATM    2  C1  UNL     1      57.355  72.605  22.210  1.00  0.00     0.340 C 
HETATM    3  N1  UNL     1      57.499  73.847  21.564  1.00  0.00    -0.286 N 
ATOM      4  H1  UNL     1      58.249  74.494  21.806  1.00  0.00     0.172 HD
HETATM    5  N4  UNL     1      57.304  71.413  21.426  1.00  0.00    -0.252 N 
ATOM      6  H4  UNL     1      57.371  71.465  20.409  1.00  0.00     0.191 HD
ENDROOT
BRANCH   5   7
HETATM    7  N5  UNL     1      57.161  70.185  22.053  1.00  0.00    -0.305 N 
HETATM    8  C4  UNL     1      56.108  69.449  21.933  1.00  0.00     0.144 C 
ATOM      9  H5  UNL     1      57.926  69.845  22.636  1.00  0.00     0.186 HD
BRANCH   8  10
HETATM   10  C5  UNL     1      55.961  68.166  22.589  1.00  0.00     0.095 A 
HETATM   11  C6  UNL     1      55.678  67.966  23.916  1.00  0.00     0.043 A 
HETATM   12  C7  UNL     1      55.624  66.615  24.138  1.00  0.00     0.065 A 
HETATM   13  C8  UNL     1      55.883  66.029  22.905  1.00  0.00     0.215 A 
HETATM   14  O4  UNL     1      56.076  66.993  22.023  1.00  0.00    -0.287 OA
BRANCH  13  15
HETATM   15  N6  UNL     1      55.931  64.641  22.648  1.00  0.00    -0.090 N 
HETATM   16  O2  UNL     1      55.742  63.835  23.578  1.00  0.00    -0.530 OA
HETATM   17  O3  UNL     1      56.178  64.151  21.404  1.00  0.00    -0.530 OA
ENDBRANCH  13  15
ENDBRANCH   8  10
ENDBRANCH   5   7
BRANCH   3  18
HETATM   18  C2  UNL     1      56.615  74.129  20.630  1.00  0.00     0.170 A 
HETATM   19  N2  UNL     1      56.851  74.447  19.357  1.00  0.00    -0.278 N 
HETATM   20  N3  UNL     1      55.861  74.692  18.587  1.00  0.00    -0.282 N 
ATOM     21  H2  UNL     1      57.807  74.494  19.003  1.00  0.00     0.189 HD
HETATM   22  C3  UNL     1      54.625  74.622  19.084  1.00  0.00     0.160 A 
ATOM     23  H3  UNL     1      56.013  74.937  17.609  1.00  0.00     0.188 HD
HETATM   24  S1  UNL     1      53.201  74.897  18.280  1.00  0.00    -0.051 SA
HETATM   25  S2  UNL     1      54.912  74.190  20.710  1.00  0.00    -0.021 SA
ENDBRANCH   3  18
TORSDOF 4
ENDMDL
MODEL 5
REMARK VINA RESULT: -6.982894372      4.295      8.536
REMARK  4 active torsions:
REMARK  status: ('A' for Active; 'I' for Inactive)
REMARK       I    between atoms: C1_2  and  N1_3 
REMARK       I    between atoms: C1_2  and  N4_13 
REMARK    1  A    between atoms: N1_3  and  C2_5 
REMARK    2  A    between atoms: N4_13  and  N5_15 
REMARK    3  A    between atoms: C4_17  and  C5_18 
REMARK    4  A    between atoms: C8_21  and  N6_22 
ROOT
HETATM    1  O1  UNL     1      55.387  69.218  24.512  1.00  0.00    -0.245 OA
HETATM    2  C1  UNL     1      55.652  68.178  23.860  1.00  0.00     0.340 C 
HETATM    3  N1  UNL     1      55.570  66.913  24.469  1.00  0.00    -0.286 N 
ATOM      4  H1  UNL     1      54.722  66.597  24.939  1.00  0.00     0.172 HD
HETATM    5  N4  UNL     1      56.038  68.268  22.488  1.00  0.00    -0.252 N 
ATOM      6  H4  UNL     1      56.251  67.421  21.960  1.00  0.00     0.191 HD
ENDROOT
BRANCH   5   7
HETATM    7  N5  UNL     1      56.121  69.510  21.878  1.00  0.00    -0.305 N 
HETATM    8  C4  UNL     1      57.001  70.397  22.200  1.00  0.00     0.144 C 
ATOM      9  H5  UNL     1      55.455  69.733  21.138  1.00  0.00     0.186 HD
BRANCH   8  10
HETATM   10  C5  UNL     1      57.086  71.694  21.560  1.00  0.00     0.095 A 
HETATM   11  C6  UNL     1      57.446  72.870  22.167  1.00  0.00     0.043 A 
HETATM   12  C7  UNL     1      57.403  73.863  21.225  1.00  0.00     0.065 A 
HETATM   13  C8  UNL     1      57.009  73.237  20.049  1.00  0.00     0.215 A 
HETATM   14  O4  UNL     1      56.835  71.952  20.304  1.00  0.00    -0.287 OA
BRANCH  13  15
HETATM   15  N6  UNL     1      56.827  73.871  18.799  1.00  0.00    -0.090 N 
HETATM   16  O2  UNL     1      56.164  74.923  18.733  1.00  0.00    -0.530 OA
HETATM   17  O3  UNL     1      57.360  73.366  17.655  1.00  0.00    -0.530 OA
ENDBRANCH  13  15
ENDBRANCH   8  10
ENDBRANCH   5   7
BRANCH   3  18
HETATM   18  C2  UNL     1      56.647  66.158  24.402  1.00  0.00     0.170 A 
HETATM   19  N2  UNL     1      56.719  64.875  24.045  1.00  0.00    -0.278 N 
HETATM   20  N3  UNL     1      57.860  64.300  24.038  1.00  0.00    -0.282 N 
ATOM     21  H2  UNL     1      55.878  64.362  23.782  1.00  0.00     0.189 HD
HETATM   22  C3  UNL     1      58.939  65.001  24.388  1.00  0.00     0.160 A 
ATOM     23  H3  UNL     1      57.944  63.319  23.768  1.00  0.00     0.188 HD
HETATM   24  S1  UNL     1      60.508  64.467  24.454  1.00  0.00    -0.051 SA
HETATM   25  S2  UNL     1      58.277  66.535  24.737  1.00  0.00    -0.021 SA
ENDBRANCH   3  18
TORSDOF 4
ENDMDL
