MODEL 1
REMARK VINA RESULT: -10.288393763      0.000      0.000
REMARK  4 active torsions:
REMARK  status: ('A' for Active; 'I' for Inactive)
REMARK    1  A    between atoms: N2_7  and  C4_8 
REMARK    2  A    between atoms: C8_12  and  N3_13 
REMARK    3  A    between atoms: N3_13  and  N4_15 
REMARK    4  A    between atoms: N4_15  and  C9_17 
ROOT
HETATM    1  C4  UNL     1      56.550  38.708  21.105  1.00  0.00     0.113 A 
HETATM    2  C5  UNL     1      56.223  37.987  22.251  1.00  0.00     0.049 A 
HETATM    3  C6  UNL     1      57.221  37.466  23.025  1.00  0.00     0.007 A 
HETATM    4  C7  UNL     1      58.544  37.669  22.645  1.00  0.00     0.050 A 
HETATM    5  C8  UNL     1      58.836  38.388  21.506  1.00  0.00     0.121 A 
HETATM    6  N9  UNL     1      57.838  38.890  20.762  1.00  0.00    -0.327 N 
ATOM      7  H9  UNL     1      58.062  39.419  19.920  1.00  0.00     0.169 HD
ENDROOT
BRANCH   5   8
HETATM    8  N3  UNL     1      60.066  38.603  21.115  1.00  0.00    -0.283 N 
ATOM      9  H3  UNL     1      60.448  39.547  21.154  1.00  0.00     0.188 HD
BRANCH   8  10
HETATM   10  N4  UNL     1      60.862  37.559  20.646  1.00  0.00    -0.268 N 
ATOM     11  H4  UNL     1      60.460  36.816  20.074  1.00  0.00     0.190 HD
BRANCH  10  12
HETATM   12  C9  UNL     1      62.258  37.545  20.983  1.00  0.00     0.224 A 
HETATM   13  N5  UNL     1      62.826  38.212  21.926  1.00  0.00    -0.255 N 
HETATM   14  N6  UNL     1      64.201  37.957  21.965  1.00  0.00    -0.006 NA
ATOM     15  H5  UNL     1      62.338  38.844  22.562  1.00  0.00     0.187 HD
HETATM   16  N7  UNL     1      64.501  36.993  20.998  1.00  0.00    -0.006 NA
HETATM   17  N8  UNL     1      63.273  36.790  20.331  1.00  0.00    -0.255 N 
ATOM     18  H8  UNL     1      63.135  36.197  19.513  1.00  0.00     0.187 HD
ENDBRANCH  10  12
ENDBRANCH   8  10
ENDBRANCH   5   8
BRANCH   1  19
HETATM   19  N2  UNL     1      55.551  39.268  20.271  1.00  0.00    -0.304 N 
HETATM   20  C3  UNL     1      54.513  39.943  20.785  1.00  0.00     0.103 A 
HETATM   21  C2  UNL     1      53.524  40.498  19.990  1.00  0.00     0.066 A 
HETATM   22  C1  UNL     1      53.607  40.354  18.626  1.00  0.00     0.100 A 
HETATM   23  N1  UNL     1      52.729  40.840  17.813  1.00  0.00    -0.385 N 
HETATM   24  N10 UNL     1      54.656  39.672  18.132  1.00  0.00    -0.339 N 
ATOM     25  H12 UNL     1      51.934  41.357  18.187  1.00  0.00     0.157 HD
ATOM     26  H11 UNL     1      52.791  40.733  16.801  1.00  0.00     0.157 HD
HETATM   27  C10 UNL     1      55.615  39.137  18.938  1.00  0.00     0.191 A 
ATOM     28  H10 UNL     1      54.735  39.553  17.122  1.00  0.00     0.168 HD
ENDBRANCH   1  19
TORSDOF 4
ENDMDL
MODEL 2
REMARK VINA RESULT: -9.885631084      0.913      1.317
REMARK  4 active torsions:
REMARK  status: ('A' for Active; 'I' for Inactive)
REMARK    1  A    between atoms: N2_7  and  C4_8 
REMARK    2  A    between atoms: C8_12  and  N3_13 
REMARK    3  A    between atoms: N3_13  and  N4_15 
REMARK    4  A    between atoms: N4_15  and  C9_17 
ROOT
HETATM    1  C4  UNL     1      56.215  38.409  21.367  1.00  0.00     0.113 A 
HETATM    2  C5  UNL     1      55.856  37.173  21.901  1.00  0.00     0.049 A 
HETATM    3  C6  UNL     1      56.705  36.541  22.764  1.00  0.00     0.007 A 
HETATM    4  C7  UNL     1      57.913  37.151  23.089  1.00  0.00     0.050 A 
HETATM    5  C8  UNL     1      58.240  38.375  22.545  1.00  0.00     0.121 A 
HETATM    6  N9  UNL     1      57.389  38.975  21.699  1.00  0.00    -0.327 N 
ATOM      7  H9  UNL     1      57.638  39.880  21.299  1.00  0.00     0.169 HD
ENDROOT
BRANCH   5   8
HETATM    8  N3  UNL     1      59.364  38.982  22.825  1.00  0.00    -0.283 N 
ATOM      9  H3  UNL     1      59.597  39.186  23.796  1.00  0.00     0.188 HD
BRANCH   8  10
HETATM   10  N4  UNL     1      60.250  39.354  21.814  1.00  0.00    -0.268 N 
ATOM     11  H4  UNL     1      59.975  40.038  21.109  1.00  0.00     0.190 HD
BRANCH  10  12
HETATM   12  C9  UNL     1      61.556  38.758  21.782  1.00  0.00     0.224 A 
HETATM   13  N5  UNL     1      61.857  37.595  21.321  1.00  0.00    -0.255 N 
HETATM   14  N6  UNL     1      63.226  37.341  21.452  1.00  0.00    -0.006 NA
ATOM     15  H5  UNL     1      61.186  36.943  20.914  1.00  0.00     0.187 HD
HETATM   16  N7  UNL     1      63.840  38.479  21.984  1.00  0.00    -0.006 NA
HETATM   17  N8  UNL     1      62.761  39.348  22.256  1.00  0.00    -0.255 N 
ATOM     18  H8  UNL     1      62.834  40.254  22.720  1.00  0.00     0.187 HD
ENDBRANCH  10  12
ENDBRANCH   8  10
ENDBRANCH   5   8
BRANCH   1  19
HETATM   19  N2  UNL     1      55.368  39.102  20.469  1.00  0.00    -0.304 N 
HETATM   20  C3  UNL     1      54.336  39.835  20.910  1.00  0.00     0.103 A 
HETATM   21  C2  UNL     1      53.494  40.521  20.050  1.00  0.00     0.066 A 
HETATM   22  C1  UNL     1      53.722  40.450  18.696  1.00  0.00     0.100 A 
HETATM   23  N1  UNL     1      52.987  41.058  17.827  1.00  0.00    -0.385 N 
HETATM   24  N10 UNL     1      54.763  39.709  18.276  1.00  0.00    -0.339 N 
ATOM     25  H12 UNL     1      52.198  41.621  18.145  1.00  0.00     0.157 HD
ATOM     26  H11 UNL     1      53.157  41.006  16.823  1.00  0.00     0.157 HD
HETATM   27  C10 UNL     1      55.576  39.044  19.145  1.00  0.00     0.191 A 
ATOM     28  H10 UNL     1      54.949  39.642  17.276  1.00  0.00     0.168 HD
ENDBRANCH   1  19
TORSDOF 4
ENDMDL
MODEL 3
REMARK VINA RESULT: -9.763349428      0.651      1.068
REMARK  4 active torsions:
REMARK  status: ('A' for Active; 'I' for Inactive)
REMARK    1  A    between atoms: N2_7  and  C4_8 
REMARK    2  A    between atoms: C8_12  and  N3_13 
REMARK    3  A    between atoms: N3_13  and  N4_15 
REMARK    4  A    between atoms: N4_15  and  C9_17 
ROOT
HETATM    1  C4  UNL     1      56.496  38.561  21.235  1.00  0.00     0.113 A 
HETATM    2  C5  UNL     1      56.125  37.668  22.237  1.00  0.00     0.049 A 
HETATM    3  C6  UNL     1      57.090  37.049  22.978  1.00  0.00     0.007 A 
HETATM    4  C7  UNL     1      58.427  37.327  22.711  1.00  0.00     0.050 A 
HETATM    5  C8  UNL     1      58.764  38.217  21.712  1.00  0.00     0.121 A 
HETATM    6  N9  UNL     1      57.797  38.811  20.998  1.00  0.00    -0.327 N 
ATOM      7  H9  UNL     1      58.053  39.467  20.260  1.00  0.00     0.169 HD
ENDROOT
BRANCH   5   8
HETATM    8  N3  UNL     1      60.008  38.506  21.430  1.00  0.00    -0.283 N 
ATOM      9  H3  UNL     1      60.403  39.390  21.748  1.00  0.00     0.188 HD
BRANCH   8  10
HETATM   10  N4  UNL     1      60.802  37.623  20.699  1.00  0.00    -0.268 N 
ATOM     11  H4  UNL     1      60.393  37.040  19.969  1.00  0.00     0.190 HD
BRANCH  10  12
HETATM   12  C9  UNL     1      62.206  37.547  20.993  1.00  0.00     0.224 A 
HETATM   13  N5  UNL     1      62.846  38.244  21.865  1.00  0.00    -0.255 N 
HETATM   14  N6  UNL     1      64.204  37.906  21.881  1.00  0.00    -0.006 NA
ATOM     15  H5  UNL     1      62.420  38.950  22.466  1.00  0.00     0.187 HD
HETATM   16  N7  UNL     1      64.410  36.856  20.980  1.00  0.00    -0.006 NA
HETATM   17  N8  UNL     1      63.149  36.683  20.369  1.00  0.00    -0.255 N 
ATOM     18  H8  UNL     1      62.947  36.041  19.602  1.00  0.00     0.187 HD
ENDBRANCH  10  12
ENDBRANCH   8  10
ENDBRANCH   5   8
BRANCH   1  19
HETATM   19  N2  UNL     1      55.531  39.228  20.440  1.00  0.00    -0.304 N 
HETATM   20  C3  UNL     1      55.584  39.187  19.102  1.00  0.00     0.103 A 
HETATM   21  C2  UNL     1      54.652  39.831  18.305  1.00  0.00     0.066 A 
HETATM   22  C1  UNL     1      53.636  40.537  18.904  1.00  0.00     0.100 A 
HETATM   23  N1  UNL     1      52.727  41.165  18.237  1.00  0.00    -0.385 N 
HETATM   24  N10 UNL     1      53.603  40.564  20.248  1.00  0.00    -0.339 N 
ATOM     25  H12 UNL     1      52.751  41.144  17.217  1.00  0.00     0.157 HD
ATOM     26  H11 UNL     1      51.973  41.688  18.682  1.00  0.00     0.157 HD
HETATM   27  C10 UNL     1      54.534  39.921  21.009  1.00  0.00     0.191 A 
ATOM     28  H10 UNL     1      52.858  41.083  20.713  1.00  0.00     0.168 HD
ENDBRANCH   1  19
TORSDOF 4
ENDMDL
MODEL 4
REMARK VINA RESULT: -9.718932260      1.252      7.845
REMARK  4 active torsions:
REMARK  status: ('A' for Active; 'I' for Inactive)
REMARK    1  A    between atoms: N2_7  and  C4_8 
REMARK    2  A    between atoms: C8_12  and  N3_13 
REMARK    3  A    between atoms: N3_13  and  N4_15 
REMARK    4  A    between atoms: N4_15  and  C9_17 
ROOT
HETATM    1  C4  UNL     1      59.782  38.516  21.752  1.00  0.00     0.113 A 
HETATM    2  C5  UNL     1      59.107  38.100  22.898  1.00  0.00     0.049 A 
HETATM    3  C6  UNL     1      57.779  38.387  23.038  1.00  0.00     0.007 A 
HETATM    4  C7  UNL     1      57.133  39.094  22.029  1.00  0.00     0.050 A 
HETATM    5  C8  UNL     1      57.827  39.491  20.906  1.00  0.00     0.121 A 
HETATM    6  N9  UNL     1      59.131  39.197  20.792  1.00  0.00    -0.327 N 
ATOM      7  H9  UNL     1      59.638  39.496  19.959  1.00  0.00     0.169 HD
ENDROOT
BRANCH   5   8
HETATM    8  N3  UNL     1      57.256  40.157  19.935  1.00  0.00    -0.283 N 
ATOM      9  H3  UNL     1      57.447  41.153  19.828  1.00  0.00     0.188 HD
BRANCH   8  10
HETATM   10  N4  UNL     1      56.391  39.524  19.044  1.00  0.00    -0.268 N 
ATOM     11  H4  UNL     1      56.739  38.820  18.394  1.00  0.00     0.190 HD
BRANCH  10  12
HETATM   12  C9  UNL     1      54.999  39.881  19.056  1.00  0.00     0.224 A 
HETATM   13  N5  UNL     1      54.319  40.281  20.073  1.00  0.00    -0.255 N 
HETATM   14  N6  UNL     1      52.990  40.539  19.719  1.00  0.00    -0.006 NA
ATOM     15  H5  UNL     1      54.698  40.395  21.013  1.00  0.00     0.187 HD
HETATM   16  N7  UNL     1      52.852  40.342  18.342  1.00  0.00    -0.006 NA
HETATM   17  N8  UNL     1      54.115  39.855  17.941  1.00  0.00    -0.255 N 
ATOM     18  H8  UNL     1      54.356  39.536  17.003  1.00  0.00     0.187 HD
ENDBRANCH  10  12
ENDBRANCH   8  10
ENDBRANCH   5   8
BRANCH   1  19
HETATM   19  N2  UNL     1      61.158  38.241  21.561  1.00  0.00    -0.304 N 
HETATM   20  C3  UNL     1      61.564  37.243  20.763  1.00  0.00     0.103 A 
HETATM   21  C2  UNL     1      62.904  36.955  20.562  1.00  0.00     0.066 A 
HETATM   22  C1  UNL     1      63.853  37.718  21.201  1.00  0.00     0.100 A 
HETATM   23  N1  UNL     1      65.121  37.517  21.069  1.00  0.00    -0.385 N 
HETATM   24  N10 UNL     1      63.423  38.712  21.997  1.00  0.00    -0.339 N 
ATOM     25  H12 UNL     1      65.448  36.763  20.465  1.00  0.00     0.157 HD
ATOM     26  H11 UNL     1      65.825  38.083  21.543  1.00  0.00     0.157 HD
HETATM   27  C10 UNL     1      62.097  38.974  22.177  1.00  0.00     0.191 A 
ATOM     28  H10 UNL     1      64.110  39.289  22.482  1.00  0.00     0.168 HD
ENDBRANCH   1  19
TORSDOF 4
ENDMDL
MODEL 5
REMARK VINA RESULT: -9.535537352      1.258      7.804
REMARK  4 active torsions:
REMARK  status: ('A' for Active; 'I' for Inactive)
REMARK    1  A    between atoms: N2_7  and  C4_8 
REMARK    2  A    between atoms: C8_12  and  N3_13 
REMARK    3  A    between atoms: N3_13  and  N4_15 
REMARK    4  A    between atoms: N4_15  and  C9_17 
ROOT
HETATM    1  C4  UNL     1      59.693  38.469  21.688  1.00  0.00     0.113 A 
HETATM    2  C5  UNL     1      59.044  38.119  22.870  1.00  0.00     0.049 A 
HETATM    3  C6  UNL     1      57.739  38.479  23.052  1.00  0.00     0.007 A 
HETATM    4  C7  UNL     1      57.090  39.191  22.049  1.00  0.00     0.050 A 
HETATM    5  C8  UNL     1      57.759  39.523  20.890  1.00  0.00     0.121 A 
HETATM    6  N9  UNL     1      59.040  39.158  20.734  1.00  0.00    -0.327 N 
ATOM      7  H9  UNL     1      59.530  39.408  19.875  1.00  0.00     0.169 HD
ENDROOT
BRANCH   5   8
HETATM    8  N3  UNL     1      57.185  40.191  19.922  1.00  0.00    -0.283 N 
ATOM      9  H3  UNL     1      57.352  41.193  19.836  1.00  0.00     0.188 HD
BRANCH   8  10
HETATM   10  N4  UNL     1      56.349  39.553  19.007  1.00  0.00    -0.268 N 
ATOM     11  H4  UNL     1      56.721  38.852  18.366  1.00  0.00     0.190 HD
BRANCH  10  12
HETATM   12  C9  UNL     1      54.956  39.900  18.982  1.00  0.00     0.224 A 
HETATM   13  N5  UNL     1      54.173  39.857  17.961  1.00  0.00    -0.255 N 
HETATM   14  N6  UNL     1      52.879  40.266  18.301  1.00  0.00    -0.006 NA
ATOM     15  H5  UNL     1      54.458  39.563  17.026  1.00  0.00     0.187 HD
HETATM   16  N7  UNL     1      52.842  40.524  19.675  1.00  0.00    -0.006 NA
HETATM   17  N8  UNL     1      54.183  40.358  20.086  1.00  0.00    -0.255 N 
ATOM     18  H8  UNL     1      54.540  40.537  21.024  1.00  0.00     0.187 HD
ENDBRANCH  10  12
ENDBRANCH   8  10
ENDBRANCH   5   8
BRANCH   1  19
HETATM   19  N2  UNL     1      61.045  38.118  21.453  1.00  0.00    -0.304 N 
HETATM   20  C3  UNL     1      62.046  38.734  22.097  1.00  0.00     0.103 A 
HETATM   21  C2  UNL     1      63.376  38.407  21.883  1.00  0.00     0.066 A 
HETATM   22  C1  UNL     1      63.682  37.418  20.980  1.00  0.00     0.100 A 
HETATM   23  N1  UNL     1      64.893  37.052  20.721  1.00  0.00    -0.385 N 
HETATM   24  N10 UNL     1      62.661  36.814  20.345  1.00  0.00    -0.339 N 
ATOM     25  H12 UNL     1      65.667  37.509  21.203  1.00  0.00     0.157 HD
ATOM     26  H11 UNL     1      65.119  36.318  20.051  1.00  0.00     0.157 HD
HETATM   27  C10 UNL     1      61.362  37.155  20.575  1.00  0.00     0.191 A 
ATOM     28  H10 UNL     1      62.867  36.078  19.669  1.00  0.00     0.168 HD
ENDBRANCH   1  19
TORSDOF 4
ENDMDL
