MODEL 1
REMARK VINA RESULT: -7.476924121      0.000      0.000
REMARK  3 active torsions:
REMARK  status: ('A' for Active; 'I' for Inactive)
REMARK    1  A    between atoms: C3_5  and  N2_6 
REMARK    2  A    between atoms: N3_10  and  C5_11 
REMARK    3  A    between atoms: C7_15  and  O3_16 
ROOT
HETATM    1  C5  UNL     1      56.769  39.209  21.812  1.00  0.00     0.239 C 
HETATM    2  C6  UNL     1      57.957  40.097  21.878  1.00  0.00     0.167 C 
HETATM    3  N4  UNL     1      59.218  39.472  22.052  1.00  0.00    -0.379 N 
ATOM      4  H4  UNL     1      60.080  40.008  21.951  1.00  0.00     0.157 HD
HETATM    5  C7  UNL     1      59.259  38.104  22.365  1.00  0.00     0.334 C 
HETATM    6  N5  UNL     1      58.409  37.412  21.381  1.00  0.00    -0.074 NA
HETATM    7  N6  UNL     1      57.108  37.801  21.709  1.00  0.00    -0.201 N 
HETATM    8  C8  UNL     1      56.191  36.769  21.922  1.00  0.00     0.199 C 
HETATM    9  N7  UNL     1      55.413  35.921  22.094  1.00  0.00    -0.171 NA
ENDROOT
BRANCH   1  10
HETATM   10  N3  UNL     1      55.833  39.606  20.787  1.00  0.00    -0.314 N 
HETATM   11  C2  UNL     1      55.909  39.459  19.400  1.00  0.00     0.101 A 
HETATM   12  C1  UNL     1      56.862  38.922  18.710  1.00  0.00     0.064 C 
HETATM   13  N1  UNL     1      54.716  40.018  18.832  1.00  0.00    -0.323 N 
HETATM   14  C3  UNL     1      53.949  40.492  19.926  1.00  0.00     0.191 A 
ATOM     15  H1  UNL     1      54.470  40.064  17.844  1.00  0.00     0.169 HD
HETATM   16  C4  UNL     1      54.596  40.254  21.054  1.00  0.00     0.149 A 
BRANCH  14  17
HETATM   17  N2  UNL     1      52.667  41.130  19.771  1.00  0.00    -0.096 N 
HETATM   18  O1  UNL     1      52.221  41.813  20.714  1.00  0.00    -0.530 OA
HETATM   19  O2  UNL     1      51.956  40.989  18.613  1.00  0.00    -0.530 OA
ENDBRANCH  14  17
ENDBRANCH   1  10
BRANCH   5  20
HETATM   20  O3  UNL     1      58.730  37.785  23.634  1.00  0.00    -0.362 OA
ATOM     21  H3  UNL     1      57.782  37.808  23.678  1.00  0.00     0.213 HD
ENDBRANCH   5  20
TORSDOF 3
ENDMDL
MODEL 2
REMARK VINA RESULT: -6.621151100      1.111      2.496
REMARK  3 active torsions:
REMARK  status: ('A' for Active; 'I' for Inactive)
REMARK    1  A    between atoms: C3_5  and  N2_6 
REMARK    2  A    between atoms: N3_10  and  C5_11 
REMARK    3  A    between atoms: C7_15  and  O3_16 
ROOT
HETATM    1  C5  UNL     1      56.343  37.935  21.077  1.00  0.00     0.239 C 
HETATM    2  C6  UNL     1      55.492  36.997  21.851  1.00  0.00     0.167 C 
HETATM    3  N4  UNL     1      55.941  36.644  23.149  1.00  0.00    -0.379 N 
ATOM      4  H4  UNL     1      55.332  36.131  23.787  1.00  0.00     0.157 HD
HETATM    5  C7  UNL     1      57.238  37.013  23.542  1.00  0.00     0.334 C 
HETATM    6  N5  UNL     1      57.380  38.452  23.260  1.00  0.00    -0.074 NA
HETATM    7  N6  UNL     1      57.405  38.533  21.866  1.00  0.00    -0.201 N 
HETATM    8  C8  UNL     1      58.494  39.209  21.307  1.00  0.00     0.199 C 
HETATM    9  N7  UNL     1      59.389  39.776  20.828  1.00  0.00    -0.171 NA
ENDROOT
BRANCH   1  10
HETATM   10  N3  UNL     1      55.574  38.937  20.378  1.00  0.00    -0.314 N 
HETATM   11  C2  UNL     1      55.664  39.374  19.054  1.00  0.00     0.101 A 
HETATM   12  C1  UNL     1      56.481  38.966  18.139  1.00  0.00     0.064 C 
HETATM   13  N1  UNL     1      54.669  40.388  18.856  1.00  0.00    -0.323 N 
HETATM   14  C3  UNL     1      54.002  40.527  20.099  1.00  0.00     0.191 A 
ATOM     15  H1  UNL     1      54.480  40.903  17.997  1.00  0.00     0.169 HD
HETATM   16  C4  UNL     1      54.526  39.689  20.977  1.00  0.00     0.149 A 
BRANCH  14  17
HETATM   17  N2  UNL     1      52.923  41.457  20.314  1.00  0.00    -0.096 N 
HETATM   18  O1  UNL     1      52.152  41.708  19.366  1.00  0.00    -0.530 OA
HETATM   19  O2  UNL     1      52.750  42.052  21.531  1.00  0.00    -0.530 OA
ENDBRANCH  14  17
ENDBRANCH   1  10
BRANCH   5  20
HETATM   20  O3  UNL     1      58.266  36.369  22.821  1.00  0.00    -0.362 OA
ATOM     21  H3  UNL     1      58.195  35.422  22.803  1.00  0.00     0.213 HD
ENDBRANCH   5  20
TORSDOF 3
ENDMDL
MODEL 3
REMARK VINA RESULT: -6.172000040      1.740      5.542
REMARK  3 active torsions:
REMARK  status: ('A' for Active; 'I' for Inactive)
REMARK    1  A    between atoms: C3_5  and  N2_6 
REMARK    2  A    between atoms: N3_10  and  C5_11 
REMARK    3  A    between atoms: C7_15  and  O3_16 
ROOT
HETATM    1  C5  UNL     1      55.094  40.069  20.588  1.00  0.00     0.239 C 
HETATM    2  C6  UNL     1      53.888  40.612  21.265  1.00  0.00     0.167 C 
HETATM    3  N4  UNL     1      52.725  40.775  20.471  1.00  0.00    -0.379 N 
ATOM      4  H4  UNL     1      51.828  40.994  20.905  1.00  0.00     0.157 HD
HETATM    5  C7  UNL     1      52.827  40.628  19.079  1.00  0.00     0.334 C 
HETATM    6  N5  UNL     1      53.513  39.348  18.830  1.00  0.00    -0.074 NA
HETATM    7  N6  UNL     1      54.827  39.570  19.251  1.00  0.00    -0.201 N 
HETATM    8  C8  UNL     1      55.829  39.285  18.320  1.00  0.00     0.199 C 
HETATM    9  N7  UNL     1      56.676  39.044  17.559  1.00  0.00    -0.171 NA
ENDROOT
BRANCH   1  10
HETATM   10  N3  UNL     1      55.790  39.091  21.390  1.00  0.00    -0.314 N 
HETATM   11  C2  UNL     1      57.066  39.141  21.956  1.00  0.00     0.101 A 
HETATM   12  C1  UNL     1      57.929  40.102  21.882  1.00  0.00     0.064 C 
HETATM   13  N1  UNL     1      57.283  37.912  22.662  1.00  0.00    -0.323 N 
HETATM   14  C3  UNL     1      56.100  37.150  22.490  1.00  0.00     0.191 A 
ATOM     15  H1  UNL     1      58.117  37.642  23.183  1.00  0.00     0.169 HD
HETATM   16  C4  UNL     1      55.239  37.832  21.754  1.00  0.00     0.149 A 
BRANCH  14  17
HETATM   17  N2  UNL     1      55.921  35.837  23.054  1.00  0.00    -0.096 N 
HETATM   18  O1  UNL     1      55.143  35.701  24.019  1.00  0.00    -0.530 OA
HETATM   19  O2  UNL     1      56.590  34.762  22.540  1.00  0.00    -0.530 OA
ENDBRANCH  14  17
ENDBRANCH   1  10
BRANCH   5  20
HETATM   20  O3  UNL     1      53.607  41.621  18.448  1.00  0.00    -0.362 OA
ATOM     21  H3  UNL     1      53.552  41.617  17.500  1.00  0.00     0.213 HD
ENDBRANCH   5  20
TORSDOF 3
ENDMDL
MODEL 4
REMARK VINA RESULT: -5.174368250      2.900      5.932
REMARK  3 active torsions:
REMARK  status: ('A' for Active; 'I' for Inactive)
REMARK    1  A    between atoms: C3_5  and  N2_6 
REMARK    2  A    between atoms: N3_10  and  C5_11 
REMARK    3  A    between atoms: C7_15  and  O3_16 
ROOT
HETATM    1  C5  UNL     1      57.035  37.487  22.733  1.00  0.00     0.239 C 
HETATM    2  C6  UNL     1      57.226  36.184  23.418  1.00  0.00     0.167 C 
HETATM    3  N4  UNL     1      56.287  35.162  23.128  1.00  0.00    -0.379 N 
ATOM      4  H4  UNL     1      56.449  34.205  23.442  1.00  0.00     0.157 HD
HETATM    5  C7  UNL     1      55.132  35.489  22.400  1.00  0.00     0.334 C 
HETATM    6  N5  UNL     1      55.572  36.218  21.198  1.00  0.00    -0.074 NA
HETATM    7  N6  UNL     1      56.032  37.444  21.684  1.00  0.00    -0.201 N 
HETATM    8  C8  UNL     1      55.473  38.586  21.103  1.00  0.00     0.199 C 
HETATM    9  N7  UNL     1      55.024  39.546  20.624  1.00  0.00    -0.171 NA
ENDROOT
BRANCH   1  10
HETATM   10  N3  UNL     1      58.274  38.055  22.259  1.00  0.00    -0.314 N 
HETATM   11  C2  UNL     1      58.643  39.392  22.097  1.00  0.00     0.101 A 
HETATM   12  C1  UNL     1      57.934  40.446  22.342  1.00  0.00     0.064 C 
HETATM   13  N1  UNL     1      59.987  39.420  21.597  1.00  0.00    -0.323 N 
HETATM   14  C3  UNL     1      60.385  38.065  21.473  1.00  0.00     0.191 A 
ATOM     15  H1  UNL     1      60.543  40.246  21.375  1.00  0.00     0.169 HD
HETATM   16  C4  UNL     1      59.395  37.278  21.855  1.00  0.00     0.149 A 
BRANCH  14  17
HETATM   17  N2  UNL     1      61.685  37.668  20.996  1.00  0.00    -0.096 N 
HETATM   18  O1  UNL     1      61.796  37.278  19.816  1.00  0.00    -0.530 OA
HETATM   19  O2  UNL     1      62.773  37.717  21.819  1.00  0.00    -0.530 OA
ENDBRANCH  14  17
ENDBRANCH   1  10
BRANCH   5  20
HETATM   20  O3  UNL     1      54.244  36.351  23.079  1.00  0.00    -0.362 OA
ATOM     21  H3  UNL     1      54.050  36.087  23.970  1.00  0.00     0.213 HD
ENDBRANCH   5  20
TORSDOF 3
ENDMDL
MODEL 5
REMARK VINA RESULT: -5.019990124      1.512      5.802
REMARK  3 active torsions:
REMARK  status: ('A' for Active; 'I' for Inactive)
REMARK    1  A    between atoms: C3_5  and  N2_6 
REMARK    2  A    between atoms: N3_10  and  C5_11 
REMARK    3  A    between atoms: C7_15  and  O3_16 
ROOT
HETATM    1  C5  UNL     1      55.671  40.176  20.397  1.00  0.00     0.239 C 
HETATM    2  C6  UNL     1      54.600  40.661  21.304  1.00  0.00     0.167 C 
HETATM    3  N4  UNL     1      53.273  40.629  20.806  1.00  0.00    -0.379 N 
ATOM      4  H4  UNL     1      52.482  40.801  21.427  1.00  0.00     0.157 HD
HETATM    5  C7  UNL     1      53.066  40.356  19.444  1.00  0.00     0.334 C 
HETATM    6  N5  UNL     1      53.823  39.132  19.130  1.00  0.00    -0.074 NA
HETATM    7  N6  UNL     1      55.162  39.523  19.204  1.00  0.00    -0.201 N 
HETATM    8  C8  UNL     1      55.948  39.247  18.081  1.00  0.00     0.199 C 
HETATM    9  N7  UNL     1      56.616  39.017  17.158  1.00  0.00    -0.171 NA
ENDROOT
BRANCH   1  10
HETATM   10  N3  UNL     1      56.647  39.356  21.075  1.00  0.00    -0.314 N 
HETATM   11  C2  UNL     1      56.485  38.141  21.745  1.00  0.00     0.101 A 
HETATM   12  C1  UNL     1      55.395  37.466  21.910  1.00  0.00     0.064 C 
HETATM   13  N1  UNL     1      57.769  37.738  22.241  1.00  0.00    -0.323 N 
HETATM   14  C3  UNL     1      58.677  38.752  21.843  1.00  0.00     0.191 A 
ATOM     15  H1  UNL     1      57.985  36.895  22.773  1.00  0.00     0.169 HD
HETATM   16  C4  UNL     1      58.027  39.685  21.170  1.00  0.00     0.149 A 
BRANCH  14  17
HETATM   17  N2  UNL     1      60.082  38.716  22.154  1.00  0.00    -0.096 N 
HETATM   18  O1  UNL     1      60.456  38.086  23.164  1.00  0.00    -0.530 OA
HETATM   19  O2  UNL     1      60.987  39.357  21.357  1.00  0.00    -0.530 OA
ENDBRANCH  14  17
ENDBRANCH   1  10
BRANCH   5  20
HETATM   20  O3  UNL     1      53.554  41.353  18.573  1.00  0.00    -0.362 OA
ATOM     21  H3  UNL     1      54.006  42.065  19.010  1.00  0.00     0.213 HD
ENDBRANCH   5  20
TORSDOF 3
ENDMDL
