MODEL 1
REMARK VINA RESULT: -7.877363733      0.000      0.000
REMARK  8 active torsions:
REMARK  status: ('A' for Active; 'I' for Inactive)
REMARK       I    between atoms: N1_2  and  C2_4 
REMARK    1  A    between atoms: C2_4  and  C3_6 
REMARK    2  A    between atoms: C10_13  and  O2_14 
REMARK    3  A    between atoms: C12_17  and  C13_18 
REMARK    4  A    between atoms: N3_20  and  O3_22 
REMARK    5  A    between atoms: C16_26  and  C17_27 
REMARK    6  A    between atoms: C17_27  and  C18_28 
REMARK    7  A    between atoms: C18_28  and  C19_29 
REMARK    8  A    between atoms: C19_29  and  O4_30 
ROOT
HETATM    1  C3  UNL     1      48.270  57.026  20.106  1.00  0.00     0.042 C 
HETATM    2  C4  UNL     1      49.098  58.217  20.664  1.00  0.00     0.026 C 
HETATM    3  C5  UNL     1      48.110  56.129  21.354  1.00  0.00     0.052 C 
HETATM    4  C6  UNL     1      48.848  54.924  20.957  1.00  0.00    -0.081 C 
HETATM    5  C7  UNL     1      49.275  53.781  21.684  1.00  0.00    -0.019 C 
HETATM    6  C8  UNL     1      50.650  53.320  21.458  1.00  0.00     0.018 C 
HETATM    7  C9  UNL     1      51.643  54.193  20.752  1.00  0.00     0.047 C 
HETATM    8  C10 UNL     1      51.202  53.658  19.425  1.00  0.00     0.064 C 
HETATM    9  C11 UNL     1      50.333  54.327  18.553  1.00  0.00     0.055 C 
HETATM   10  C12 UNL     1      49.029  54.994  18.671  1.00  0.00     0.025 C 
HETATM   11  C14 UNL     1      48.124  54.477  19.720  1.00  0.00     0.051 C 
HETATM   12  C15 UNL     1      49.105  56.494  19.010  1.00  0.00     0.036 C 
HETATM   13  C16 UNL     1      50.952  52.458  20.252  1.00  0.00     0.028 C 
ENDROOT
BRANCH   1  14
HETATM   14  C2  UNL     1      47.012  57.665  19.707  1.00  0.00     0.226 C 
HETATM   15  N1  UNL     1      45.924  57.820  20.590  1.00  0.00    -0.365 N 
HETATM   16  C1  UNL     1      44.689  58.457  20.172  1.00  0.00     0.149 C 
ATOM     17  H1  UNL     1      46.007  57.477  21.547  1.00  0.00     0.161 HD
HETATM   18  O1  UNL     1      46.903  58.090  18.534  1.00  0.00    -0.273 OA
ENDBRANCH   1  14
BRANCH  10  19
HETATM   19  C13 UNL     1      48.270  54.938  17.378  1.00  0.00     0.122 C 
HETATM   20  N2  UNL     1      47.874  53.675  16.855  1.00  0.00    -0.085 NA
HETATM   21  N3  UNL     1      47.957  55.998  16.720  1.00  0.00    -0.259 N 
ATOM     22  H3  UNL     1      48.244  56.897  17.106  1.00  0.00     0.195 HD
BRANCH  21  23
HETATM   23  O3  UNL     1      47.275  56.003  15.552  1.00  0.00    -0.289 OA
ATOM     24  H3  UNL     1      47.048  56.785  15.064  1.00  0.00     0.244 HD
ENDBRANCH  21  23
ENDBRANCH  10  19
BRANCH   8  25
HETATM   25  O2  UNL     1      52.395  53.424  18.644  1.00  0.00    -0.389 OA
ATOM     26  H2  UNL     1      52.265  53.845  17.802  1.00  0.00     0.210 HD
ENDBRANCH   8  25
BRANCH  13  27
HETATM   27  C17 UNL     1      50.123  51.352  19.871  1.00  0.00     0.010 C 
BRANCH  27  28
HETATM   28  C18 UNL     1      50.819  50.026  20.048  1.00  0.00     0.027 C 
BRANCH  28  29
HETATM   29  C19 UNL     1      52.214  49.986  19.497  1.00  0.00     0.164 C 
BRANCH  29  30
HETATM   30  O4  UNL     1      53.099  49.987  20.598  1.00  0.00    -0.401 OA
ATOM     31  H4  UNL     1      52.846  49.268  21.165  1.00  0.00     0.209 HD
ENDBRANCH  29  30
ENDBRANCH  28  29
ENDBRANCH  27  28
ENDBRANCH  13  27
TORSDOF 8
ENDMDL
MODEL 2
REMARK VINA RESULT: -7.650920423      2.259      2.927
REMARK  8 active torsions:
REMARK  status: ('A' for Active; 'I' for Inactive)
REMARK       I    between atoms: N1_2  and  C2_4 
REMARK    1  A    between atoms: C2_4  and  C3_6 
REMARK    2  A    between atoms: C10_13  and  O2_14 
REMARK    3  A    between atoms: C12_17  and  C13_18 
REMARK    4  A    between atoms: N3_20  and  O3_22 
REMARK    5  A    between atoms: C16_26  and  C17_27 
REMARK    6  A    between atoms: C17_27  and  C18_28 
REMARK    7  A    between atoms: C18_28  and  C19_29 
REMARK    8  A    between atoms: C19_29  and  O4_30 
ROOT
HETATM    1  C3  UNL     1      50.492  55.710  21.247  1.00  0.00     0.042 C 
HETATM    2  C4  UNL     1      51.901  56.138  21.744  1.00  0.00     0.026 C 
HETATM    3  C5  UNL     1      50.208  54.462  22.112  1.00  0.00     0.052 C 
HETATM    4  C6  UNL     1      50.144  53.400  21.100  1.00  0.00    -0.081 C 
HETATM    5  C7  UNL     1      50.112  51.985  21.200  1.00  0.00    -0.019 C 
HETATM    6  C8  UNL     1      50.989  51.229  20.296  1.00  0.00     0.018 C 
HETATM    7  C9  UNL     1      52.086  51.919  19.543  1.00  0.00     0.047 C 
HETATM    8  C10 UNL     1      51.145  52.244  18.426  1.00  0.00     0.064 C 
HETATM    9  C11 UNL     1      50.540  53.493  18.241  1.00  0.00     0.055 C 
HETATM   10  C12 UNL     1      49.800  54.442  19.085  1.00  0.00     0.025 C 
HETATM   11  C14 UNL     1      49.030  53.855  20.203  1.00  0.00     0.051 C 
HETATM   12  C15 UNL     1      50.678  55.485  19.799  1.00  0.00     0.036 C 
HETATM   13  C16 UNL     1      50.539  50.972  18.875  1.00  0.00     0.028 C 
ENDROOT
BRANCH   1  14
HETATM   14  C2  UNL     1      49.656  56.855  21.620  1.00  0.00     0.226 C 
HETATM   15  N1  UNL     1      50.195  58.071  22.088  1.00  0.00    -0.365 N 
HETATM   16  C1  UNL     1      49.347  59.191  22.450  1.00  0.00     0.149 C 
ATOM     17  H1  UNL     1      51.207  58.166  22.173  1.00  0.00     0.161 HD
HETATM   18  O1  UNL     1      48.412  56.748  21.516  1.00  0.00    -0.273 OA
ENDBRANCH   1  14
BRANCH  10  19
HETATM   19  C13 UNL     1      48.834  55.254  18.273  1.00  0.00     0.122 C 
HETATM   20  N2  UNL     1      48.131  54.637  17.200  1.00  0.00    -0.085 NA
HETATM   21  N3  UNL     1      48.612  56.497  18.514  1.00  0.00    -0.259 N 
ATOM     22  H3  UNL     1      49.119  56.928  19.287  1.00  0.00     0.195 HD
BRANCH  21  23
HETATM   23  O3  UNL     1      47.753  57.274  17.814  1.00  0.00    -0.289 OA
ATOM     24  H3  UNL     1      46.848  57.050  17.636  1.00  0.00     0.244 HD
ENDBRANCH  21  23
ENDBRANCH  10  19
BRANCH   8  25
HETATM   25  O2  UNL     1      51.851  51.992  17.189  1.00  0.00    -0.389 OA
ATOM     26  H2  UNL     1      51.541  52.629  16.556  1.00  0.00     0.210 HD
ENDBRANCH   8  25
BRANCH  13  27
HETATM   27  C17 UNL     1      49.212  50.533  18.556  1.00  0.00     0.010 C 
BRANCH  27  28
HETATM   28  C18 UNL     1      49.194  49.531  17.430  1.00  0.00     0.027 C 
BRANCH  28  29
HETATM   29  C19 UNL     1      49.088  50.143  16.065  1.00  0.00     0.164 C 
BRANCH  29  30
HETATM   30  O4  UNL     1      50.375  50.098  15.483  1.00  0.00    -0.401 OA
ATOM     31  H4  UNL     1      50.389  50.737  14.780  1.00  0.00     0.209 HD
ENDBRANCH  29  30
ENDBRANCH  28  29
ENDBRANCH  27  28
ENDBRANCH  13  27
TORSDOF 8
ENDMDL
MODEL 3
REMARK VINA RESULT: -7.408386712      0.883      1.051
REMARK  8 active torsions:
REMARK  status: ('A' for Active; 'I' for Inactive)
REMARK       I    between atoms: N1_2  and  C2_4 
REMARK    1  A    between atoms: C2_4  and  C3_6 
REMARK    2  A    between atoms: C10_13  and  O2_14 
REMARK    3  A    between atoms: C12_17  and  C13_18 
REMARK    4  A    between atoms: N3_20  and  O3_22 
REMARK    5  A    between atoms: C16_26  and  C17_27 
REMARK    6  A    between atoms: C17_27  and  C18_28 
REMARK    7  A    between atoms: C18_28  and  C19_29 
REMARK    8  A    between atoms: C19_29  and  O4_30 
ROOT
HETATM    1  C3  UNL     1      48.364  56.996  20.092  1.00  0.00     0.042 C 
HETATM    2  C4  UNL     1      49.246  58.147  20.652  1.00  0.00     0.026 C 
HETATM    3  C5  UNL     1      48.174  56.097  21.336  1.00  0.00     0.052 C 
HETATM    4  C6  UNL     1      48.857  54.865  20.925  1.00  0.00    -0.081 C 
HETATM    5  C7  UNL     1      49.240  53.700  21.641  1.00  0.00    -0.019 C 
HETATM    6  C8  UNL     1      50.593  53.181  21.403  1.00  0.00     0.018 C 
HETATM    7  C9  UNL     1      51.617  54.016  20.695  1.00  0.00     0.047 C 
HETATM    8  C10 UNL     1      51.144  53.510  19.368  1.00  0.00     0.064 C 
HETATM    9  C11 UNL     1      50.299  54.221  18.507  1.00  0.00     0.055 C 
HETATM   10  C12 UNL     1      49.026  54.943  18.639  1.00  0.00     0.025 C 
HETATM   11  C14 UNL     1      48.106  54.458  19.691  1.00  0.00     0.051 C 
HETATM   12  C15 UNL     1      49.168  56.436  18.987  1.00  0.00     0.036 C 
HETATM   13  C16 UNL     1      50.849  52.316  20.189  1.00  0.00     0.028 C 
ENDROOT
BRANCH   1  14
HETATM   14  C2  UNL     1      47.132  57.690  19.706  1.00  0.00     0.226 C 
HETATM   15  N1  UNL     1      46.021  57.803  20.567  1.00  0.00    -0.365 N 
HETATM   16  C1  UNL     1      44.812  58.496  20.162  1.00  0.00     0.149 C 
ATOM     17  H1  UNL     1      46.068  57.386  21.497  1.00  0.00     0.161 HD
HETATM   18  O1  UNL     1      47.067  58.205  18.567  1.00  0.00    -0.273 OA
ENDBRANCH   1  14
BRANCH  10  19
HETATM   19  C13 UNL     1      48.256  54.928  17.350  1.00  0.00     0.122 C 
HETATM   20  N2  UNL     1      47.839  53.684  16.800  1.00  0.00    -0.085 NA
HETATM   21  N3  UNL     1      47.952  56.008  16.721  1.00  0.00    -0.259 N 
ATOM     22  H3  UNL     1      48.253  56.894  17.126  1.00  0.00     0.195 HD
BRANCH  21  23
HETATM   23  O3  UNL     1      47.261  56.050  15.559  1.00  0.00    -0.289 OA
ATOM     24  H3  UNL     1      46.872  56.835  15.192  1.00  0.00     0.244 HD
ENDBRANCH  21  23
ENDBRANCH  10  19
BRANCH   8  25
HETATM   25  O2  UNL     1      52.321  53.230  18.576  1.00  0.00    -0.389 OA
ATOM     26  H2  UNL     1      52.583  54.046  18.167  1.00  0.00     0.210 HD
ENDBRANCH   8  25
BRANCH  13  27
HETATM   27  C17 UNL     1      49.971  51.249  19.807  1.00  0.00     0.010 C 
BRANCH  27  28
HETATM   28  C18 UNL     1      50.615  50.296  18.833  1.00  0.00     0.027 C 
BRANCH  28  29
HETATM   29  C19 UNL     1      50.286  50.570  17.395  1.00  0.00     0.164 C 
BRANCH  29  30
HETATM   30  O4  UNL     1      51.487  50.949  16.755  1.00  0.00    -0.401 OA
ATOM     31  H4  UNL     1      51.784  51.751  17.167  1.00  0.00     0.209 HD
ENDBRANCH  29  30
ENDBRANCH  28  29
ENDBRANCH  27  28
ENDBRANCH  13  27
TORSDOF 8
ENDMDL
MODEL 4
REMARK VINA RESULT: -7.361115802      2.670      3.573
REMARK  8 active torsions:
REMARK  status: ('A' for Active; 'I' for Inactive)
REMARK       I    between atoms: N1_2  and  C2_4 
REMARK    1  A    between atoms: C2_4  and  C3_6 
REMARK    2  A    between atoms: C10_13  and  O2_14 
REMARK    3  A    between atoms: C12_17  and  C13_18 
REMARK    4  A    between atoms: N3_20  and  O3_22 
REMARK    5  A    between atoms: C16_26  and  C17_27 
REMARK    6  A    between atoms: C17_27  and  C18_28 
REMARK    7  A    between atoms: C18_28  and  C19_29 
REMARK    8  A    between atoms: C19_29  and  O4_30 
ROOT
HETATM    1  C3  UNL     1      48.037  57.443  20.075  1.00  0.00     0.042 C 
HETATM    2  C4  UNL     1      46.661  57.364  20.793  1.00  0.00     0.026 C 
HETATM    3  C5  UNL     1      47.842  56.471  18.890  1.00  0.00     0.052 C 
HETATM    4  C6  UNL     1      48.822  55.421  19.195  1.00  0.00    -0.081 C 
HETATM    5  C7  UNL     1      49.046  54.133  18.644  1.00  0.00    -0.019 C 
HETATM    6  C8  UNL     1      49.265  53.029  19.587  1.00  0.00     0.018 C 
HETATM    7  C9  UNL     1      48.948  53.194  21.043  1.00  0.00     0.047 C 
HETATM    8  C10 UNL     1      50.317  53.742  21.301  1.00  0.00     0.064 C 
HETATM    9  C11 UNL     1      50.609  55.104  21.441  1.00  0.00     0.055 C 
HETATM   10  C12 UNL     1      50.305  56.330  20.690  1.00  0.00     0.025 C 
HETATM   11  C14 UNL     1      50.121  56.173  19.231  1.00  0.00     0.051 C 
HETATM   12  C15 UNL     1      49.005  57.036  21.114  1.00  0.00     0.036 C 
HETATM   13  C16 UNL     1      50.640  52.829  20.183  1.00  0.00     0.028 C 
ENDROOT
BRANCH   1  14
HETATM   14  C2  UNL     1      48.100  58.845  19.649  1.00  0.00     0.226 C 
HETATM   15  N1  UNL     1      47.724  59.264  18.356  1.00  0.00    -0.365 N 
HETATM   16  C1  UNL     1      47.794  60.657  17.958  1.00  0.00     0.149 C 
ATOM     17  H1  UNL     1      47.395  58.571  17.684  1.00  0.00     0.161 HD
HETATM   18  O1  UNL     1      48.502  59.702  20.468  1.00  0.00    -0.273 OA
ENDBRANCH   1  14
BRANCH  10  19
HETATM   19  C13 UNL     1      51.376  57.365  20.882  1.00  0.00     0.122 C 
HETATM   20  N2  UNL     1      52.630  57.202  20.230  1.00  0.00    -0.085 NA
HETATM   21  N3  UNL     1      51.200  58.406  21.617  1.00  0.00    -0.259 N 
ATOM     22  H3  UNL     1      50.295  58.514  22.077  1.00  0.00     0.195 HD
BRANCH  21  23
HETATM   23  O3  UNL     1      52.128  59.367  21.822  1.00  0.00    -0.289 OA
ATOM     24  H3  UNL     1      51.974  60.297  21.715  1.00  0.00     0.244 HD
ENDBRANCH  21  23
ENDBRANCH  10  19
BRANCH   8  25
HETATM   25  O2  UNL     1      50.792  53.137  22.525  1.00  0.00    -0.389 OA
ATOM     26  H2  UNL     1      50.915  53.839  23.154  1.00  0.00     0.210 HD
ENDBRANCH   8  25
BRANCH  13  27
HETATM   27  C17 UNL     1      51.835  52.883  19.393  1.00  0.00     0.010 C 
BRANCH  27  28
HETATM   28  C18 UNL     1      52.213  51.537  18.831  1.00  0.00     0.027 C 
BRANCH  28  29
HETATM   29  C19 UNL     1      51.896  50.382  19.734  1.00  0.00     0.164 C 
BRANCH  29  30
HETATM   30  O4  UNL     1      53.036  50.151  20.536  1.00  0.00    -0.401 OA
ATOM     31  H4  UNL     1      52.864  50.535  21.387  1.00  0.00     0.209 HD
ENDBRANCH  29  30
ENDBRANCH  28  29
ENDBRANCH  27  28
ENDBRANCH  13  27
TORSDOF 8
ENDMDL
MODEL 5
REMARK VINA RESULT: -7.324239846      3.045      4.772
REMARK  8 active torsions:
REMARK  status: ('A' for Active; 'I' for Inactive)
REMARK       I    between atoms: N1_2  and  C2_4 
REMARK    1  A    between atoms: C2_4  and  C3_6 
REMARK    2  A    between atoms: C10_13  and  O2_14 
REMARK    3  A    between atoms: C12_17  and  C13_18 
REMARK    4  A    between atoms: N3_20  and  O3_22 
REMARK    5  A    between atoms: C16_26  and  C17_27 
REMARK    6  A    between atoms: C17_27  and  C18_28 
REMARK    7  A    between atoms: C18_28  and  C19_29 
REMARK    8  A    between atoms: C19_29  and  O4_30 
ROOT
HETATM    1  C3  UNL     1      45.896  60.678  18.034  1.00  0.00     0.042 C 
HETATM    2  C4  UNL     1      46.264  62.081  18.592  1.00  0.00     0.026 C 
HETATM    3  C5  UNL     1      45.141  60.043  19.224  1.00  0.00     0.052 C 
HETATM    4  C6  UNL     1      46.024  58.925  19.579  1.00  0.00    -0.081 C 
HETATM    5  C7  UNL     1      46.051  58.045  20.693  1.00  0.00    -0.019 C 
HETATM    6  C8  UNL     1      47.358  57.787  21.310  1.00  0.00     0.018 C 
HETATM    7  C9  UNL     1      48.540  58.651  20.987  1.00  0.00     0.047 C 
HETATM    8  C10 UNL     1      48.877  57.788  19.811  1.00  0.00     0.064 C 
HETATM    9  C11 UNL     1      48.567  58.106  18.484  1.00  0.00     0.055 C 
HETATM   10  C12 UNL     1      47.369  58.553  17.759  1.00  0.00     0.025 C 
HETATM   11  C14 UNL     1      46.070  58.117  18.314  1.00  0.00     0.051 C 
HETATM   12  C15 UNL     1      47.200  60.081  17.681  1.00  0.00     0.036 C 
HETATM   13  C16 UNL     1      48.278  56.759  20.688  1.00  0.00     0.028 C 
ENDROOT
BRANCH   1  14
HETATM   14  C2  UNL     1      45.008  60.999  16.912  1.00  0.00     0.226 C 
HETATM   15  N1  UNL     1      43.854  60.245  16.615  1.00  0.00    -0.365 N 
HETATM   16  C1  UNL     1      42.991  60.582  15.499  1.00  0.00     0.149 C 
ATOM     17  H1  UNL     1      43.620  59.443  17.200  1.00  0.00     0.161 HD
HETATM   18  O1  UNL     1      45.288  61.983  16.190  1.00  0.00    -0.273 OA
ENDBRANCH   1  14
BRANCH  10  19
HETATM   19  C13 UNL     1      47.400  58.104  16.327  1.00  0.00     0.122 C 
HETATM   20  N2  UNL     1      46.259  58.316  15.503  1.00  0.00    -0.085 NA
HETATM   21  N3  UNL     1      48.430  57.533  15.809  1.00  0.00    -0.259 N 
ATOM     22  H3  UNL     1      49.243  57.389  16.408  1.00  0.00     0.195 HD
BRANCH  21  23
HETATM   23  O3  UNL     1      48.510  57.111  14.527  1.00  0.00    -0.289 OA
ATOM     24  H3  UNL     1      49.276  56.705  14.141  1.00  0.00     0.244 HD
ENDBRANCH  21  23
ENDBRANCH  10  19
BRANCH   8  25
HETATM   25  O2  UNL     1      50.311  57.603  19.818  1.00  0.00    -0.389 OA
ATOM     26  H2  UNL     1      50.648  58.059  20.581  1.00  0.00     0.210 HD
ENDBRANCH   8  25
BRANCH  13  27
HETATM   27  C17 UNL     1      47.813  55.474  20.255  1.00  0.00     0.010 C 
BRANCH  27  28
HETATM   28  C18 UNL     1      48.436  54.345  21.035  1.00  0.00     0.027 C 
BRANCH  28  29
HETATM   29  C19 UNL     1      49.733  54.699  21.700  1.00  0.00     0.164 C 
BRANCH  29  30
HETATM   30  O4  UNL     1      50.054  53.642  22.581  1.00  0.00    -0.401 OA
ATOM     31  H4  UNL     1      50.683  53.979  23.208  1.00  0.00     0.209 HD
ENDBRANCH  29  30
ENDBRANCH  28  29
ENDBRANCH  27  28
ENDBRANCH  13  27
TORSDOF 8
ENDMDL
