MODEL 1
REMARK VINA RESULT: -7.672823074      0.000      0.000
REMARK  6 active torsions:
REMARK  status: ('A' for Active; 'I' for Inactive)
REMARK    1  A    between atoms: C2_2  and  C3_3 
REMARK    2  A    between atoms: C3_3  and  N1_4 
REMARK       I    between atoms: N1_4  and  C4_6 
REMARK       I    between atoms: C4_6  and  N2_8 
REMARK    3  A    between atoms: N2_8  and  C5_10 
REMARK    4  A    between atoms: C5_10  and  C6_11 
REMARK    5  A    between atoms: C6_11  and  C7_12 
REMARK    6  A    between atoms: N4_22  and  O6_24 
ROOT
HETATM    1  C1  UNL     1      49.991  52.339  20.408  1.00  0.00     0.020 C 
HETATM    2  C2  UNL     1      49.981  53.804  19.869  1.00  0.00     0.008 C 
HETATM    3  C8  UNL     1      48.715  54.365  20.304  1.00  0.00     0.326 C 
HETATM    4  N3  UNL     1      48.639  55.797  20.413  1.00  0.00     0.038 N 
HETATM    5  C9  UNL     1      47.334  56.120  20.965  1.00  0.00     0.359 C 
HETATM    6  O4  UNL     1      48.694  56.337  19.183  1.00  0.00    -0.062 OA
HETATM    7  C10 UNL     1      49.634  56.354  21.290  1.00  0.00     0.406 C 
HETATM    8  O5  UNL     1      50.188  57.488  20.649  1.00  0.00    -0.295 OA
HETATM    9  C11 UNL     1      51.506  57.628  21.128  1.00  0.00     0.145 C 
HETATM   10  N4  UNL     1      52.122  58.745  21.389  1.00  0.00    -0.251 N 
ATOM     11  H4  UNL     1      51.657  59.642  21.254  1.00  0.00     0.196 HD
HETATM   12  C12 UNL     1      51.997  56.240  21.254  1.00  0.00     0.076 C 
HETATM   13  C13 UNL     1      51.957  55.457  19.934  1.00  0.00     0.020 C 
HETATM   14  C14 UNL     1      51.162  54.433  20.647  1.00  0.00     0.012 C 
HETATM   15  C15 UNL     1      50.746  55.438  21.642  1.00  0.00     0.032 C 
HETATM   16  C16 UNL     1      50.773  55.004  23.094  1.00  0.00     0.021 C 
ENDROOT
BRANCH   2  17
HETATM   17  C3  UNL     1      50.397  53.689  18.461  1.00  0.00     0.136 C 
BRANCH  17  18
HETATM   18  N1  UNL     1      50.083  52.547  17.675  1.00  0.00    -0.342 N 
HETATM   19  C4  UNL     1      48.934  52.144  17.002  1.00  0.00     0.316 C 
HETATM   20  O1  UNL     1      47.881  52.789  16.929  1.00  0.00    -0.247 OA
HETATM   21  N2  UNL     1      48.929  50.873  16.320  1.00  0.00    -0.343 N 
ATOM     22  H2  UNL     1      49.778  50.309  16.350  1.00  0.00     0.164 HD
ATOM     23  H1  UNL     1      50.857  51.890  17.587  1.00  0.00     0.164 HD
BRANCH  21  24
HETATM   24  C5  UNL     1      47.794  50.356  15.600  1.00  0.00     0.135 C 
BRANCH  24  25
HETATM   25  C6  UNL     1      46.972  49.382  16.386  1.00  0.00     0.133 C 
BRANCH  25  26
HETATM   26  C7  UNL     1      47.886  48.521  17.177  1.00  0.00     0.174 C 
HETATM   27  O2  UNL     1      48.475  47.547  16.648  1.00  0.00    -0.648 OA
HETATM   28  O3  UNL     1      48.091  48.797  18.516  1.00  0.00    -0.648 OA
ENDBRANCH  25  26
ENDBRANCH  24  25
ENDBRANCH  21  24
ENDBRANCH  17  18
ENDBRANCH   2  17
BRANCH  10  29
HETATM   29  O6  UNL     1      53.397  58.684  21.846  1.00  0.00    -0.288 OA
ATOM     30  H6  UNL     1      53.770  59.462  22.244  1.00  0.00     0.244 HD
ENDBRANCH  10  29
TORSDOF 6
ENDMDL
MODEL 2
REMARK VINA RESULT: -7.671193866      2.011      7.888
REMARK  6 active torsions:
REMARK  status: ('A' for Active; 'I' for Inactive)
REMARK    1  A    between atoms: C2_2  and  C3_3 
REMARK    2  A    between atoms: C3_3  and  N1_4 
REMARK       I    between atoms: N1_4  and  C4_6 
REMARK       I    between atoms: C4_6  and  N2_8 
REMARK    3  A    between atoms: N2_8  and  C5_10 
REMARK    4  A    between atoms: C5_10  and  C6_11 
REMARK    5  A    between atoms: C6_11  and  C7_12 
REMARK    6  A    between atoms: N4_22  and  O6_24 
ROOT
HETATM    1  C1  UNL     1      51.759  51.843  18.074  1.00  0.00     0.020 C 
HETATM    2  C2  UNL     1      50.253  51.677  18.449  1.00  0.00     0.008 C 
HETATM    3  C8  UNL     1      49.542  52.634  17.621  1.00  0.00     0.326 C 
HETATM    4  N3  UNL     1      48.153  52.369  17.362  1.00  0.00     0.038 N 
HETATM    5  C9  UNL     1      47.684  53.382  16.433  1.00  0.00     0.359 C 
HETATM    6  O4  UNL     1      47.455  52.522  18.501  1.00  0.00    -0.062 OA
HETATM    7  C10 UNL     1      47.922  51.083  16.759  1.00  0.00     0.406 C 
HETATM    8  O5  UNL     1      46.825  50.485  17.425  1.00  0.00    -0.295 OA
HETATM    9  C11 UNL     1      47.000  49.089  17.333  1.00  0.00     0.145 C 
HETATM   10  N4  UNL     1      46.064  48.201  17.157  1.00  0.00    -0.251 N 
ATOM     11  H4  UNL     1      45.087  48.480  17.070  1.00  0.00     0.196 HD
HETATM   12  C12 UNL     1      48.456  48.893  17.480  1.00  0.00     0.076 C 
HETATM   13  C13 UNL     1      49.014  49.445  18.800  1.00  0.00     0.020 C 
HETATM   14  C14 UNL     1      49.971  50.228  17.987  1.00  0.00     0.012 C 
HETATM   15  C15 UNL     1      49.066  50.142  16.827  1.00  0.00     0.032 C 
HETATM   16  C16 UNL     1      49.709  49.831  15.490  1.00  0.00     0.021 C 
ENDROOT
BRANCH   2  17
HETATM   17  C3  UNL     1      50.231  51.679  19.922  1.00  0.00     0.136 C 
BRANCH  17  18
HETATM   18  N1  UNL     1      50.662  52.802  20.679  1.00  0.00    -0.342 N 
HETATM   19  C4  UNL     1      50.075  54.027  20.982  1.00  0.00     0.316 C 
HETATM   20  O1  UNL     1      48.940  54.381  20.641  1.00  0.00    -0.247 OA
HETATM   21  N2  UNL     1      50.818  54.991  21.755  1.00  0.00    -0.343 N 
ATOM     22  H2  UNL     1      51.758  54.739  22.062  1.00  0.00     0.164 HD
ATOM     23  H1  UNL     1      51.592  52.687  21.082  1.00  0.00     0.164 HD
BRANCH  21  24
HETATM   24  C5  UNL     1      50.310  56.288  22.118  1.00  0.00     0.135 C 
BRANCH  24  25
HETATM   25  C6  UNL     1      50.969  57.420  21.393  1.00  0.00     0.133 C 
BRANCH  25  26
HETATM   26  C7  UNL     1      52.366  57.031  21.077  1.00  0.00     0.174 C 
HETATM   27  O2  UNL     1      53.272  57.120  21.941  1.00  0.00    -0.648 OA
HETATM   28  O3  UNL     1      52.673  56.562  19.813  1.00  0.00    -0.648 OA
ENDBRANCH  25  26
ENDBRANCH  24  25
ENDBRANCH  21  24
ENDBRANCH  17  18
ENDBRANCH   2  17
BRANCH  10  29
HETATM   29  O6  UNL     1      46.423  46.895  17.091  1.00  0.00    -0.288 OA
ATOM     30  H6  UNL     1      46.552  46.422  17.905  1.00  0.00     0.244 HD
ENDBRANCH  10  29
TORSDOF 6
ENDMDL
MODEL 3
REMARK VINA RESULT: -7.553278798      2.013      7.635
REMARK  6 active torsions:
REMARK  status: ('A' for Active; 'I' for Inactive)
REMARK    1  A    between atoms: C2_2  and  C3_3 
REMARK    2  A    between atoms: C3_3  and  N1_4 
REMARK       I    between atoms: N1_4  and  C4_6 
REMARK       I    between atoms: C4_6  and  N2_8 
REMARK    3  A    between atoms: N2_8  and  C5_10 
REMARK    4  A    between atoms: C5_10  and  C6_11 
REMARK    5  A    between atoms: C6_11  and  C7_12 
REMARK    6  A    between atoms: N4_22  and  O6_24 
ROOT
HETATM    1  C1  UNL     1      51.802  51.815  18.069  1.00  0.00     0.020 C 
HETATM    2  C2  UNL     1      50.298  51.705  18.475  1.00  0.00     0.008 C 
HETATM    3  C8  UNL     1      49.604  52.675  17.648  1.00  0.00     0.326 C 
HETATM    4  N3  UNL     1      48.202  52.453  17.420  1.00  0.00     0.038 N 
HETATM    5  C9  UNL     1      47.749  53.470  16.486  1.00  0.00     0.359 C 
HETATM    6  O4  UNL     1      47.532  52.644  18.570  1.00  0.00    -0.062 OA
HETATM    7  C10 UNL     1      47.916  51.169  16.838  1.00  0.00     0.406 C 
HETATM    8  O5  UNL     1      46.813  50.616  17.533  1.00  0.00    -0.295 OA
HETATM    9  C11 UNL     1      46.939  49.214  17.456  1.00  0.00     0.145 C 
HETATM   10  N4  UNL     1      45.971  48.356  17.310  1.00  0.00    -0.251 N 
ATOM     11  H4  UNL     1      45.002  48.667  17.238  1.00  0.00     0.196 HD
HETATM   12  C12 UNL     1      48.391  48.972  17.579  1.00  0.00     0.076 C 
HETATM   13  C13 UNL     1      48.992  49.521  18.880  1.00  0.00     0.020 C 
HETATM   14  C14 UNL     1      49.959  50.260  18.038  1.00  0.00     0.012 C 
HETATM   15  C15 UNL     1      49.029  50.190  16.897  1.00  0.00     0.032 C 
HETATM   16  C16 UNL     1      49.635  49.840  15.552  1.00  0.00     0.021 C 
ENDROOT
BRANCH   2  17
HETATM   17  C3  UNL     1      50.305  51.727  19.949  1.00  0.00     0.136 C 
BRANCH  17  18
HETATM   18  N1  UNL     1      49.895  52.871  20.685  1.00  0.00    -0.342 N 
HETATM   19  C4  UNL     1      50.418  54.153  20.819  1.00  0.00     0.316 C 
HETATM   20  O1  UNL     1      51.418  54.585  20.232  1.00  0.00    -0.247 OA
HETATM   21  N2  UNL     1      49.770  55.088  21.705  1.00  0.00    -0.343 N 
ATOM     22  H2  UNL     1      48.937  54.777  22.206  1.00  0.00     0.164 HD
ATOM     23  H1  UNL     1      49.043  52.721  21.226  1.00  0.00     0.164 HD
BRANCH  21  24
HETATM   24  C5  UNL     1      50.229  56.435  21.922  1.00  0.00     0.135 C 
BRANCH  24  25
HETATM   25  C6  UNL     1      49.180  57.477  21.687  1.00  0.00     0.133 C 
BRANCH  25  26
HETATM   26  C7  UNL     1      48.276  57.004  20.609  1.00  0.00     0.174 C 
HETATM   27  O2  UNL     1      47.084  56.697  20.853  1.00  0.00    -0.648 OA
HETATM   28  O3  UNL     1      48.756  56.901  19.316  1.00  0.00    -0.648 OA
ENDBRANCH  25  26
ENDBRANCH  24  25
ENDBRANCH  21  24
ENDBRANCH  17  18
ENDBRANCH   2  17
BRANCH  10  29
HETATM   29  O6  UNL     1      46.284  47.038  17.256  1.00  0.00    -0.288 OA
ATOM     30  H6  UNL     1      45.574  46.407  17.225  1.00  0.00     0.244 HD
ENDBRANCH  10  29
TORSDOF 6
ENDMDL
MODEL 4
REMARK VINA RESULT: -7.478385026      4.892      8.602
REMARK  6 active torsions:
REMARK  status: ('A' for Active; 'I' for Inactive)
REMARK    1  A    between atoms: C2_2  and  C3_3 
REMARK    2  A    between atoms: C3_3  and  N1_4 
REMARK       I    between atoms: N1_4  and  C4_6 
REMARK       I    between atoms: C4_6  and  N2_8 
REMARK    3  A    between atoms: N2_8  and  C5_10 
REMARK    4  A    between atoms: C5_10  and  C6_11 
REMARK    5  A    between atoms: C6_11  and  C7_12 
REMARK    6  A    between atoms: N4_22  and  O6_24 
ROOT
HETATM    1  C1  UNL     1      47.284  57.537  17.137  1.00  0.00     0.020 C 
HETATM    2  C2  UNL     1      46.793  58.606  18.164  1.00  0.00     0.008 C 
HETATM    3  C8  UNL     1      47.171  59.887  17.596  1.00  0.00     0.326 C 
HETATM    4  N3  UNL     1      46.425  61.037  18.029  1.00  0.00     0.038 N 
HETATM    5  C9  UNL     1      46.895  62.174  17.256  1.00  0.00     0.359 C 
HETATM    6  O4  UNL     1      46.711  61.290  19.318  1.00  0.00    -0.062 OA
HETATM    7  C10 UNL     1      45.009  60.914  17.807  1.00  0.00     0.406 C 
HETATM    8  O5  UNL     1      44.348  61.359  18.978  1.00  0.00    -0.295 OA
HETATM    9  C11 UNL     1      43.120  60.670  19.044  1.00  0.00     0.145 C 
HETATM   10  N4  UNL     1      41.981  61.154  19.447  1.00  0.00    -0.251 N 
ATOM     11  H4  UNL     1      41.904  62.122  19.760  1.00  0.00     0.196 HD
HETATM   12  C12 UNL     1      43.437  59.312  18.558  1.00  0.00     0.076 C 
HETATM   13  C13 UNL     1      44.523  58.608  19.383  1.00  0.00     0.020 C 
HETATM   14  C14 UNL     1      45.259  58.408  18.116  1.00  0.00     0.012 C 
HETATM   15  C15 UNL     1      44.536  59.540  17.509  1.00  0.00     0.032 C 
HETATM   16  C16 UNL     1      44.028  59.338  16.096  1.00  0.00     0.021 C 
ENDROOT
BRANCH   2  17
HETATM   17  C3  UNL     1      47.257  58.110  19.472  1.00  0.00     0.136 C 
BRANCH  17  18
HETATM   18  N1  UNL     1      48.634  58.094  19.824  1.00  0.00    -0.342 N 
HETATM   19  C4  UNL     1      49.602  57.095  19.832  1.00  0.00     0.316 C 
HETATM   20  O1  UNL     1      49.430  55.927  19.463  1.00  0.00    -0.247 OA
HETATM   21  N2  UNL     1      50.929  57.406  20.303  1.00  0.00    -0.343 N 
ATOM     22  H2  UNL     1      51.117  58.359  20.614  1.00  0.00     0.164 HD
ATOM     23  H1  UNL     1      48.983  59.001  20.134  1.00  0.00     0.164 HD
BRANCH  21  24
HETATM   24  C5  UNL     1      52.002  56.448  20.361  1.00  0.00     0.135 C 
BRANCH  24  25
HETATM   25  C6  UNL     1      53.366  57.067  20.343  1.00  0.00     0.133 C 
BRANCH  25  26
HETATM   26  C7  UNL     1      53.532  57.882  21.572  1.00  0.00     0.174 C 
HETATM   27  O2  UNL     1      54.170  57.439  22.559  1.00  0.00    -0.648 OA
HETATM   28  O3  UNL     1      52.977  59.147  21.630  1.00  0.00    -0.648 OA
ENDBRANCH  25  26
ENDBRANCH  24  25
ENDBRANCH  21  24
ENDBRANCH  17  18
ENDBRANCH   2  17
BRANCH  10  29
HETATM   29  O6  UNL     1      40.898  60.338  19.441  1.00  0.00    -0.288 OA
ATOM     30  H6  UNL     1      41.007  59.442  19.737  1.00  0.00     0.244 HD
ENDBRANCH  10  29
TORSDOF 6
ENDMDL
MODEL 5
REMARK VINA RESULT: -7.358841770      3.860      7.620
REMARK  6 active torsions:
REMARK  status: ('A' for Active; 'I' for Inactive)
REMARK    1  A    between atoms: C2_2  and  C3_3 
REMARK    2  A    between atoms: C3_3  and  N1_4 
REMARK       I    between atoms: N1_4  and  C4_6 
REMARK       I    between atoms: C4_6  and  N2_8 
REMARK    3  A    between atoms: N2_8  and  C5_10 
REMARK    4  A    between atoms: C5_10  and  C6_11 
REMARK    5  A    between atoms: C6_11  and  C7_12 
REMARK    6  A    between atoms: N4_22  and  O6_24 
ROOT
HETATM    1  C1  UNL     1      48.887  57.908  21.730  1.00  0.00     0.020 C 
HETATM    2  C2  UNL     1      49.359  56.878  20.655  1.00  0.00     0.008 C 
HETATM    3  C8  UNL     1      50.755  57.192  20.409  1.00  0.00     0.326 C 
HETATM    4  N3  UNL     1      51.577  56.136  19.883  1.00  0.00     0.038 N 
HETATM    5  C9  UNL     1      52.940  56.637  19.825  1.00  0.00     0.359 C 
HETATM    6  O4  UNL     1      51.199  55.869  18.621  1.00  0.00    -0.062 OA
HETATM    7  C10 UNL     1      51.581  54.955  20.704  1.00  0.00     0.406 C 
HETATM    8  O5  UNL     1      51.435  53.835  19.850  1.00  0.00    -0.295 OA
HETATM    9  C11 UNL     1      50.803  52.824  20.602  1.00  0.00     0.145 C 
HETATM   10  N4  UNL     1      51.051  51.547  20.546  1.00  0.00    -0.251 N 
ATOM     11  H4  UNL     1      51.763  51.179  19.916  1.00  0.00     0.196 HD
HETATM   12  C12 UNL     1      49.824  53.549  21.437  1.00  0.00     0.076 C 
HETATM   13  C13 UNL     1      48.810  54.361  20.621  1.00  0.00     0.020 C 
HETATM   14  C14 UNL     1      49.217  55.539  21.417  1.00  0.00     0.012 C 
HETATM   15  C15 UNL     1      50.506  54.894  21.725  1.00  0.00     0.032 C 
HETATM   16  C16 UNL     1      50.988  54.996  23.158  1.00  0.00     0.021 C 
ENDROOT
BRANCH   2  17
HETATM   17  C3  UNL     1      48.309  56.907  19.622  1.00  0.00     0.136 C 
BRANCH  17  18
HETATM   18  N1  UNL     1      47.363  57.964  19.542  1.00  0.00    -0.342 N 
HETATM   19  C4  UNL     1      47.292  59.121  18.771  1.00  0.00     0.316 C 
HETATM   20  O1  UNL     1      48.107  59.454  17.902  1.00  0.00    -0.247 OA
HETATM   21  N2  UNL     1      46.194  60.034  18.971  1.00  0.00    -0.343 N 
ATOM     22  H2  UNL     1      45.495  59.796  19.675  1.00  0.00     0.164 HD
ATOM     23  H1  UNL     1      46.574  57.853  20.179  1.00  0.00     0.164 HD
BRANCH  21  24
HETATM   24  C5  UNL     1      46.028  61.260  18.235  1.00  0.00     0.135 C 
BRANCH  24  25
HETATM   25  C6  UNL     1      45.419  62.369  19.037  1.00  0.00     0.133 C 
BRANCH  25  26
HETATM   26  C7  UNL     1      43.982  62.066  19.250  1.00  0.00     0.174 C 
HETATM   27  O2  UNL     1      43.477  60.999  18.822  1.00  0.00    -0.648 OA
HETATM   28  O3  UNL     1      43.190  62.971  19.931  1.00  0.00    -0.648 OA
ENDBRANCH  25  26
ENDBRANCH  24  25
ENDBRANCH  21  24
ENDBRANCH  17  18
ENDBRANCH   2  17
BRANCH  10  29
HETATM   29  O6  UNL     1      50.339  50.719  21.350  1.00  0.00    -0.288 OA
ATOM     30  H6  UNL     1      50.048  49.887  20.995  1.00  0.00     0.244 HD
ENDBRANCH  10  29
TORSDOF 6
ENDMDL
