MODEL 1
REMARK VINA RESULT: -7.322288378      0.000      0.000
REMARK  9 active torsions:
REMARK  status: ('A' for Active; 'I' for Inactive)
REMARK    1  A    between atoms: N1_2  and  C2_5 
REMARK    2  A    between atoms: C9_12  and  C10_13 
REMARK    3  A    between atoms: C10_13  and  N2_15 
REMARK    4  A    between atoms: N2_15  and  C12_17 
REMARK    5  A    between atoms: C12_17  and  N3_19 
REMARK    6  A    between atoms: N3_19  and  C13_21 
REMARK    7  A    between atoms: C13_21  and  C14_22 
REMARK    8  A    between atoms: C14_22  and  O1_25 
REMARK    9  A    between atoms: C17_27  and  O2_28 
ROOT
HETATM    1  C2  UNL     1      50.084  49.755  18.991  1.00  0.00     0.209 C 
HETATM    2  C3  UNL     1      49.328  49.609  17.650  1.00  0.00     0.035 C 
HETATM    3  C4  UNL     1      47.899  49.935  17.691  1.00  0.00     0.002 C 
HETATM    4  C5  UNL     1      47.324  50.956  16.807  1.00  0.00     0.000 C 
HETATM    5  C6  UNL     1      47.997  52.214  16.499  1.00  0.00     0.000 C 
HETATM    6  C7  UNL     1      47.707  53.395  17.424  1.00  0.00     0.001 C 
HETATM    7  C8  UNL     1      48.972  53.995  18.028  1.00  0.00     0.011 C 
HETATM    8  C9  UNL     1      49.154  53.759  19.490  1.00  0.00     0.063 C 
HETATM    9  C17 UNL     1      50.484  53.227  19.902  1.00  0.00     0.262 C 
HETATM   10  O3  UNL     1      50.524  51.861  20.272  1.00  0.00    -0.359 OA
HETATM   11  C18 UNL     1      49.968  51.207  19.243  1.00  0.00     0.203 C 
ENDROOT
BRANCH   8  12
HETATM   12  C10 UNL     1      49.010  55.086  20.284  1.00  0.00     0.088 C 
HETATM   13  C11 UNL     1      47.622  55.203  20.845  1.00  0.00     0.032 C 
BRANCH  12  14
HETATM   14  N2  UNL     1      49.309  56.209  19.484  1.00  0.00    -0.362 N 
ATOM     15  H2  UNL     1      49.594  56.097  18.511  1.00  0.00     0.162 HD
BRANCH  14  16
HETATM   16  C12 UNL     1      49.205  57.522  20.076  1.00  0.00     0.168 C 
HETATM   17  S1  UNL     1      48.127  58.591  19.478  1.00  0.00    -0.041 SA
BRANCH  16  18
HETATM   18  N3  UNL     1      50.028  57.906  21.144  1.00  0.00    -0.364 N 
ATOM     19  H3  UNL     1      49.569  57.913  22.055  1.00  0.00     0.162 HD
BRANCH  18  20
HETATM   20  C13 UNL     1      51.389  58.285  21.167  1.00  0.00     0.159 C 
BRANCH  20  21
HETATM   21  C14 UNL     1      52.421  57.235  21.347  1.00  0.00     0.066 C 
HETATM   22  C15 UNL     1      52.870  56.638  20.014  1.00  0.00     0.047 C 
HETATM   23  C16 UNL     1      53.684  57.900  21.928  1.00  0.00     0.047 C 
BRANCH  21  24
HETATM   24  O1  UNL     1      52.109  56.208  22.207  1.00  0.00    -0.389 OA
ATOM     25  H1  UNL     1      52.018  56.436  23.126  1.00  0.00     0.210 HD
ENDBRANCH  21  24
ENDBRANCH  20  21
ENDBRANCH  18  20
ENDBRANCH  16  18
ENDBRANCH  14  16
ENDBRANCH  12  14
ENDBRANCH   8  12
BRANCH   9  26
HETATM   26  O2  UNL     1      51.071  53.904  20.963  1.00  0.00    -0.371 OA
ATOM     27  H2  UNL     1      50.627  53.792  21.795  1.00  0.00     0.212 HD
ENDBRANCH   9  26
BRANCH   1  28
HETATM   28  N1  UNL     1      49.532  48.923  20.011  1.00  0.00    -0.073 N 
HETATM   29  C1  UNL     1      50.483  48.709  21.072  1.00  0.00     0.267 C 
ATOM     30  H12 UNL     1      49.187  48.041  19.632  1.00  0.00     0.277 HD
ATOM     31  H11 UNL     1      48.651  49.295  20.366  1.00  0.00     0.277 HD
ENDBRANCH   1  28
TORSDOF 9
ENDMDL
MODEL 2
REMARK VINA RESULT: -7.308656805      2.597      7.132
REMARK  9 active torsions:
REMARK  status: ('A' for Active; 'I' for Inactive)
REMARK    1  A    between atoms: N1_2  and  C2_5 
REMARK    2  A    between atoms: C9_12  and  C10_13 
REMARK    3  A    between atoms: C10_13  and  N2_15 
REMARK    4  A    between atoms: N2_15  and  C12_17 
REMARK    5  A    between atoms: C12_17  and  N3_19 
REMARK    6  A    between atoms: N3_19  and  C13_21 
REMARK    7  A    between atoms: C13_21  and  C14_22 
REMARK    8  A    between atoms: C14_22  and  O1_25 
REMARK    9  A    between atoms: C17_27  and  O2_28 
ROOT
HETATM    1  C2  UNL     1      49.932  57.652  22.067  1.00  0.00     0.209 C 
HETATM    2  C3  UNL     1      48.792  58.115  21.129  1.00  0.00     0.035 C 
HETATM    3  C4  UNL     1      49.124  58.151  19.702  1.00  0.00     0.002 C 
HETATM    4  C5  UNL     1      48.338  57.400  18.716  1.00  0.00     0.000 C 
HETATM    5  C6  UNL     1      47.833  56.052  18.961  1.00  0.00     0.000 C 
HETATM    6  C7  UNL     1      48.742  54.893  18.556  1.00  0.00     0.001 C 
HETATM    7  C8  UNL     1      49.032  53.940  19.710  1.00  0.00     0.011 C 
HETATM    8  C9  UNL     1      50.431  53.974  20.230  1.00  0.00     0.063 C 
HETATM    9  C17 UNL     1      50.571  54.116  21.707  1.00  0.00     0.262 C 
HETATM   10  O3  UNL     1      50.988  55.384  22.178  1.00  0.00    -0.359 OA
HETATM   11  C18 UNL     1      50.134  56.256  21.624  1.00  0.00     0.203 C 
ENDROOT
BRANCH   8  12
HETATM   12  C10 UNL     1      51.173  52.651  19.899  1.00  0.00     0.088 C 
HETATM   13  C11 UNL     1      51.700  52.694  18.493  1.00  0.00     0.032 C 
BRANCH  12  14
HETATM   14  N2  UNL     1      50.341  51.526  20.075  1.00  0.00    -0.362 N 
ATOM     15  H2  UNL     1      49.419  51.619  20.503  1.00  0.00     0.162 HD
BRANCH  14  16
HETATM   16  C12 UNL     1      50.825  50.238  19.636  1.00  0.00     0.168 C 
HETATM   17  S1  UNL     1      52.225  49.656  20.240  1.00  0.00    -0.041 SA
BRANCH  16  18
HETATM   18  N3  UNL     1      50.126  49.485  18.682  1.00  0.00    -0.364 N 
ATOM     19  H3  UNL     1      50.584  48.616  18.407  1.00  0.00     0.162 HD
BRANCH  18  20
HETATM   20  C13 UNL     1      48.892  49.730  18.040  1.00  0.00     0.159 C 
BRANCH  20  21
HETATM   21  C14 UNL     1      48.900  50.277  16.660  1.00  0.00     0.066 C 
HETATM   22  C15 UNL     1      47.921  49.541  15.747  1.00  0.00     0.047 C 
HETATM   23  C16 UNL     1      48.377  51.725  16.716  1.00  0.00     0.047 C 
BRANCH  21  24
HETATM   24  O1  UNL     1      50.123  50.344  16.033  1.00  0.00    -0.389 OA
ATOM     25  H1  UNL     1      50.811  50.812  16.494  1.00  0.00     0.210 HD
ENDBRANCH  21  24
ENDBRANCH  20  21
ENDBRANCH  18  20
ENDBRANCH  16  18
ENDBRANCH  14  16
ENDBRANCH  12  14
ENDBRANCH   8  12
BRANCH   9  26
HETATM   26  O2  UNL     1      51.448  53.210  22.291  1.00  0.00    -0.371 OA
ATOM     27  H2  UNL     1      51.802  53.488  23.127  1.00  0.00     0.212 HD
ENDBRANCH   9  26
BRANCH   1  28
HETATM   28  N1  UNL     1      51.084  58.487  21.965  1.00  0.00    -0.073 N 
HETATM   29  C1  UNL     1      52.128  57.837  21.215  1.00  0.00     0.267 C 
ATOM     30  H12 UNL     1      51.412  58.790  22.882  1.00  0.00     0.277 HD
ATOM     31  H11 UNL     1      50.854  59.401  21.574  1.00  0.00     0.277 HD
ENDBRANCH   1  28
TORSDOF 9
ENDMDL
MODEL 3
REMARK VINA RESULT: -7.198473830      2.628      6.711
REMARK  9 active torsions:
REMARK  status: ('A' for Active; 'I' for Inactive)
REMARK    1  A    between atoms: N1_2  and  C2_5 
REMARK    2  A    between atoms: C9_12  and  C10_13 
REMARK    3  A    between atoms: C10_13  and  N2_15 
REMARK    4  A    between atoms: N2_15  and  C12_17 
REMARK    5  A    between atoms: C12_17  and  N3_19 
REMARK    6  A    between atoms: N3_19  and  C13_21 
REMARK    7  A    between atoms: C13_21  and  C14_22 
REMARK    8  A    between atoms: C14_22  and  O1_25 
REMARK    9  A    between atoms: C17_27  and  O2_28 
ROOT
HETATM    1  C2  UNL     1      52.240  56.052  20.639  1.00  0.00     0.209 C 
HETATM    2  C3  UNL     1      51.221  56.546  21.693  1.00  0.00     0.035 C 
HETATM    3  C4  UNL     1      50.057  57.260  21.160  1.00  0.00     0.002 C 
HETATM    4  C5  UNL     1      48.689  56.809  21.447  1.00  0.00     0.000 C 
HETATM    5  C6  UNL     1      48.303  55.402  21.469  1.00  0.00     0.000 C 
HETATM    6  C7  UNL     1      47.818  54.800  20.150  1.00  0.00     0.001 C 
HETATM    7  C8  UNL     1      48.613  53.567  19.738  1.00  0.00     0.011 C 
HETATM    8  C9  UNL     1      49.503  53.748  18.554  1.00  0.00     0.063 C 
HETATM    9  C17 UNL     1      50.912  53.293  18.724  1.00  0.00     0.262 C 
HETATM   10  O3  UNL     1      51.885  54.310  18.875  1.00  0.00    -0.359 OA
HETATM   11  C18 UNL     1      51.432  55.075  19.878  1.00  0.00     0.203 C 
ENDROOT
BRANCH   8  12
HETATM   12  C10 UNL     1      48.980  52.929  17.342  1.00  0.00     0.088 C 
HETATM   13  C11 UNL     1      47.923  53.708  16.613  1.00  0.00     0.032 C 
BRANCH  12  14
HETATM   14  N2  UNL     1      48.476  51.673  17.738  1.00  0.00    -0.362 N 
ATOM     15  H2  UNL     1      47.623  51.603  18.293  1.00  0.00     0.162 HD
BRANCH  14  16
HETATM   16  C12 UNL     1      49.196  50.487  17.338  1.00  0.00     0.168 C 
HETATM   17  S1  UNL     1      49.040  49.926  15.814  1.00  0.00    -0.041 SA
BRANCH  16  18
HETATM   18  N3  UNL     1      50.011  49.792  18.242  1.00  0.00    -0.364 N 
ATOM     19  H3  UNL     1      50.914  49.501  17.865  1.00  0.00     0.162 HD
BRANCH  18  20
HETATM   20  C13 UNL     1      49.791  49.428  19.589  1.00  0.00     0.159 C 
BRANCH  20  21
HETATM   21  C14 UNL     1      50.948  49.379  20.516  1.00  0.00     0.066 C 
HETATM   22  C15 UNL     1      51.416  50.775  20.924  1.00  0.00     0.047 C 
HETATM   23  C16 UNL     1      50.483  48.718  21.829  1.00  0.00     0.047 C 
BRANCH  21  24
HETATM   24  O1  UNL     1      52.039  48.653  20.098  1.00  0.00    -0.389 OA
ATOM     25  H1  UNL     1      52.523  48.188  20.771  1.00  0.00     0.210 HD
ENDBRANCH  21  24
ENDBRANCH  20  21
ENDBRANCH  18  20
ENDBRANCH  16  18
ENDBRANCH  14  16
ENDBRANCH  12  14
ENDBRANCH   8  12
BRANCH   9  26
HETATM   26  O2  UNL     1      51.387  52.493  17.693  1.00  0.00    -0.371 OA
ATOM     27  H2  UNL     1      51.559  51.592  17.941  1.00  0.00     0.212 HD
ENDBRANCH   9  26
BRANCH   1  28
HETATM   28  N1  UNL     1      52.772  57.125  19.863  1.00  0.00    -0.073 N 
HETATM   29  C1  UNL     1      53.727  57.888  20.625  1.00  0.00     0.267 C 
ATOM     30  H12 UNL     1      52.034  57.718  19.483  1.00  0.00     0.277 HD
ATOM     31  H11 UNL     1      53.171  56.794  18.984  1.00  0.00     0.277 HD
ENDBRANCH   1  28
TORSDOF 9
ENDMDL
MODEL 4
REMARK VINA RESULT: -7.091175206      2.572      7.552
REMARK  9 active torsions:
REMARK  status: ('A' for Active; 'I' for Inactive)
REMARK    1  A    between atoms: N1_2  and  C2_5 
REMARK    2  A    between atoms: C9_12  and  C10_13 
REMARK    3  A    between atoms: C10_13  and  N2_15 
REMARK    4  A    between atoms: N2_15  and  C12_17 
REMARK    5  A    between atoms: C12_17  and  N3_19 
REMARK    6  A    between atoms: N3_19  and  C13_21 
REMARK    7  A    between atoms: C13_21  and  C14_22 
REMARK    8  A    between atoms: C14_22  and  O1_25 
REMARK    9  A    between atoms: C17_27  and  O2_28 
ROOT
HETATM    1  C2  UNL     1      51.152  57.442  21.765  1.00  0.00     0.209 C 
HETATM    2  C3  UNL     1      49.721  58.011  21.908  1.00  0.00     0.035 C 
HETATM    3  C4  UNL     1      48.967  58.146  20.658  1.00  0.00     0.002 C 
HETATM    4  C5  UNL     1      47.661  57.497  20.482  1.00  0.00     0.000 C 
HETATM    5  C6  UNL     1      47.369  56.152  20.965  1.00  0.00     0.000 C 
HETATM    6  C7  UNL     1      47.647  54.998  20.003  1.00  0.00     0.001 C 
HETATM    7  C8  UNL     1      48.585  53.951  20.593  1.00  0.00     0.011 C 
HETATM    8  C9  UNL     1      49.948  53.901  19.986  1.00  0.00     0.063 C 
HETATM    9  C17 UNL     1      51.088  53.925  20.946  1.00  0.00     0.262 C 
HETATM   10  O3  UNL     1      51.809  55.139  21.031  1.00  0.00    -0.359 OA
HETATM   11  C18 UNL     1      50.881  56.078  21.262  1.00  0.00     0.203 C 
ENDROOT
BRANCH   8  12
HETATM   12  C10 UNL     1      50.146  52.584  19.188  1.00  0.00     0.088 C 
HETATM   13  C11 UNL     1      49.328  52.617  17.929  1.00  0.00     0.032 C 
BRANCH  12  14
HETATM   14  N2  UNL     1      49.814  51.450  19.958  1.00  0.00    -0.362 N 
ATOM     15  H2  UNL     1      49.173  51.525  20.748  1.00  0.00     0.162 HD
BRANCH  14  16
HETATM   16  C12 UNL     1      50.401  50.180  19.600  1.00  0.00     0.168 C 
HETATM   17  S1  UNL     1      52.017  49.980  19.717  1.00  0.00    -0.041 SA
BRANCH  16  18
HETATM   18  N3  UNL     1      49.613  49.119  19.133  1.00  0.00    -0.364 N 
ATOM     19  H3  UNL     1      50.012  48.193  19.287  1.00  0.00     0.162 HD
BRANCH  18  20
HETATM   20  C13 UNL     1      48.358  49.121  18.485  1.00  0.00     0.159 C 
BRANCH  20  21
HETATM   21  C14 UNL     1      48.290  48.736  17.054  1.00  0.00     0.066 C 
HETATM   22  C15 UNL     1      48.048  47.239  16.874  1.00  0.00     0.047 C 
HETATM   23  C16 UNL     1      47.054  49.415  16.433  1.00  0.00     0.047 C 
BRANCH  21  24
HETATM   24  O1  UNL     1      49.356  49.108  16.267  1.00  0.00    -0.389 OA
ATOM     25  H1  UNL     1      49.917  49.796  16.609  1.00  0.00     0.210 HD
ENDBRANCH  21  24
ENDBRANCH  20  21
ENDBRANCH  18  20
ENDBRANCH  16  18
ENDBRANCH  14  16
ENDBRANCH  12  14
ENDBRANCH   8  12
BRANCH   9  26
HETATM   26  O2  UNL     1      52.051  52.950  20.720  1.00  0.00    -0.371 OA
ATOM     27  H2  UNL     1      52.806  53.250  20.227  1.00  0.00     0.212 HD
ENDBRANCH   9  26
BRANCH   1  28
HETATM   28  N1  UNL     1      51.967  58.246  20.912  1.00  0.00    -0.073 N 
HETATM   29  C1  UNL     1      53.347  58.193  21.320  1.00  0.00     0.267 C 
ATOM     30  H12 UNL     1      51.625  59.205  20.861  1.00  0.00     0.277 HD
ATOM     31  H11 UNL     1      51.854  57.988  19.931  1.00  0.00     0.277 HD
ENDBRANCH   1  28
TORSDOF 9
ENDMDL
MODEL 5
REMARK VINA RESULT: -7.068883374      2.386      3.200
REMARK  9 active torsions:
REMARK  status: ('A' for Active; 'I' for Inactive)
REMARK    1  A    between atoms: N1_2  and  C2_5 
REMARK    2  A    between atoms: C9_12  and  C10_13 
REMARK    3  A    between atoms: C10_13  and  N2_15 
REMARK    4  A    between atoms: N2_15  and  C12_17 
REMARK    5  A    between atoms: C12_17  and  N3_19 
REMARK    6  A    between atoms: N3_19  and  C13_21 
REMARK    7  A    between atoms: C13_21  and  C14_22 
REMARK    8  A    between atoms: C14_22  and  O1_25 
REMARK    9  A    between atoms: C17_27  and  O2_28 
ROOT
HETATM    1  C2  UNL     1      49.041  49.269  17.090  1.00  0.00     0.209 C 
HETATM    2  C3  UNL     1      47.938  50.020  16.308  1.00  0.00     0.035 C 
HETATM    3  C4  UNL     1      46.920  50.681  17.130  1.00  0.00     0.002 C 
HETATM    4  C5  UNL     1      46.654  52.119  17.003  1.00  0.00     0.000 C 
HETATM    5  C6  UNL     1      47.709  53.111  16.824  1.00  0.00     0.000 C 
HETATM    6  C7  UNL     1      48.306  53.719  18.093  1.00  0.00     0.001 C 
HETATM    7  C8  UNL     1      49.819  53.554  18.169  1.00  0.00     0.011 C 
HETATM    8  C9  UNL     1      50.305  52.596  19.206  1.00  0.00     0.063 C 
HETATM    9  C17 UNL     1      51.282  51.572  18.737  1.00  0.00     0.262 C 
HETATM   10  O3  UNL     1      50.786  50.255  18.591  1.00  0.00    -0.359 OA
HETATM   11  C18 UNL     1      49.704  50.377  17.809  1.00  0.00     0.203 C 
ENDROOT
BRANCH   8  12
HETATM   12  C10 UNL     1      51.051  53.346  20.343  1.00  0.00     0.088 C 
HETATM   13  C11 UNL     1      50.147  53.512  21.530  1.00  0.00     0.032 C 
BRANCH  12  14
HETATM   14  N2  UNL     1      51.531  54.602  19.914  1.00  0.00    -0.362 N 
ATOM     15  H2  UNL     1      52.219  54.670  19.164  1.00  0.00     0.162 HD
BRANCH  14  16
HETATM   16  C12 UNL     1      51.026  55.788  20.564  1.00  0.00     0.168 C 
HETATM   17  S1  UNL     1      52.040  56.720  21.439  1.00  0.00    -0.041 SA
BRANCH  16  18
HETATM   18  N3  UNL     1      49.673  56.145  20.475  1.00  0.00    -0.364 N 
ATOM     19  H3  UNL     1      49.054  55.625  21.098  1.00  0.00     0.162 HD
BRANCH  18  20
HETATM   20  C13 UNL     1      49.025  57.106  19.668  1.00  0.00     0.159 C 
BRANCH  20  21
HETATM   21  C14 UNL     1      48.089  58.064  20.306  1.00  0.00     0.066 C 
HETATM   22  C15 UNL     1      46.786  57.391  20.736  1.00  0.00     0.047 C 
HETATM   23  C16 UNL     1      48.729  58.559  21.617  1.00  0.00     0.047 C 
BRANCH  21  24
HETATM   24  O1  UNL     1      47.783  59.196  19.587  1.00  0.00    -0.389 OA
ATOM     25  H1  UNL     1      48.517  59.733  19.309  1.00  0.00     0.210 HD
ENDBRANCH  21  24
ENDBRANCH  20  21
ENDBRANCH  18  20
ENDBRANCH  16  18
ENDBRANCH  14  16
ENDBRANCH  12  14
ENDBRANCH   8  12
BRANCH   9  26
HETATM   26  O2  UNL     1      52.410  51.445  19.537  1.00  0.00    -0.371 OA
ATOM     27  H2  UNL     1      53.234  51.538  19.073  1.00  0.00     0.212 HD
ENDBRANCH   9  26
BRANCH   1  28
HETATM   28  N1  UNL     1      48.504  48.245  17.927  1.00  0.00    -0.073 N 
HETATM   29  C1  UNL     1      47.982  47.157  17.141  1.00  0.00     0.267 C 
ATOM     30  H12 UNL     1      47.803  48.615  18.570  1.00  0.00     0.277 HD
ATOM     31  H11 UNL     1      49.187  47.921  18.611  1.00  0.00     0.277 HD
ENDBRANCH   1  28
TORSDOF 9
ENDMDL
