MODEL 1
REMARK VINA RESULT: -6.927723272      0.000      0.000
REMARK  6 active torsions:
REMARK  status: ('A' for Active; 'I' for Inactive)
REMARK    1  A    between atoms: C2_2  and  C3_3 
REMARK    2  A    between atoms: C3_3  and  C4_4 
REMARK    3  A    between atoms: C4_4  and  C5_5 
REMARK    4  A    between atoms: C5_5  and  C6_6 
REMARK    5  A    between atoms: C6_6  and  C7_7 
REMARK    6  A    between atoms: C7_7  and  C8_8 
ROOT
HETATM    1  C8  UNL     1      47.856  48.606  17.466  1.00  0.00     0.383 C 
HETATM    2  N1  UNL     1      48.006  48.510  18.905  1.00  0.00    -0.039 N 
ATOM      3  H11 UNL     1      47.864  47.567  19.267  1.00  0.00     0.280 HD
ATOM      4  H12 UNL     1      47.251  48.957  19.424  1.00  0.00     0.280 HD
HETATM    5  C9  UNL     1      49.285  49.040  19.199  1.00  0.00     0.233 C 
HETATM    6  C10 UNL     1      49.395  49.935  20.385  1.00  0.00     0.175 C 
HETATM    7  S1  UNL     1      50.909  50.816  19.932  1.00  0.00     0.148 S 
HETATM    8  O1  UNL     1      50.733  52.269  20.153  1.00  0.00    -0.228 OA
HETATM    9  O2  UNL     1      52.090  50.225  20.599  1.00  0.00    -0.228 OA
HETATM   10  C11 UNL     1      50.888  50.416  18.166  1.00  0.00     0.175 C 
HETATM   11  C12 UNL     1      49.451  50.041  18.038  1.00  0.00     0.233 C 
HETATM   12  N2  UNL     1      49.124  49.160  16.958  1.00  0.00    -0.039 N 
ATOM     13  H21 UNL     1      49.087  49.584  16.032  1.00  0.00     0.280 HD
ATOM     14  H22 UNL     1      49.840  48.480  16.706  1.00  0.00     0.280 HD
ENDROOT
BRANCH   1  15
HETATM   15  C7  UNL     1      47.540  47.291  16.825  1.00  0.00     0.062 C 
BRANCH  15  16
HETATM   16  C6  UNL     1      46.123  46.887  17.117  1.00  0.00     0.004 C 
BRANCH  16  17
HETATM   17  C5  UNL     1      45.132  47.975  16.808  1.00  0.00     0.000 C 
BRANCH  17  18
HETATM   18  C4  UNL     1      44.216  48.173  17.973  1.00  0.00     0.000 C 
BRANCH  18  19
HETATM   19  C3  UNL     1      44.472  47.225  19.121  1.00  0.00    -0.000 C 
BRANCH  19  20
HETATM   20  C2  UNL     1      43.156  46.475  19.344  1.00  0.00    -0.005 C 
HETATM   21  C1  UNL     1      43.090  46.100  20.790  1.00  0.00     0.005 C 
ENDBRANCH  19  20
ENDBRANCH  18  19
ENDBRANCH  17  18
ENDBRANCH  16  17
ENDBRANCH  15  16
ENDBRANCH   1  15
TORSDOF 6
ENDMDL
MODEL 2
REMARK VINA RESULT: -6.828933779      6.037      7.775
REMARK  6 active torsions:
REMARK  status: ('A' for Active; 'I' for Inactive)
REMARK    1  A    between atoms: C2_2  and  C3_3 
REMARK    2  A    between atoms: C3_3  and  C4_4 
REMARK    3  A    between atoms: C4_4  and  C5_5 
REMARK    4  A    between atoms: C5_5  and  C6_6 
REMARK    5  A    between atoms: C6_6  and  C7_7 
REMARK    6  A    between atoms: C7_7  and  C8_8 
ROOT
HETATM    1  C8  UNL     1      50.610  55.533  20.670  1.00  0.00     0.383 C 
HETATM    2  N1  UNL     1      50.124  54.612  21.680  1.00  0.00    -0.039 N 
ATOM      3  H11 UNL     1      49.285  54.938  22.159  1.00  0.00     0.280 HD
ATOM      4  H12 UNL     1      50.723  54.558  22.504  1.00  0.00     0.280 HD
HETATM    5  C9  UNL     1      49.953  53.370  21.023  1.00  0.00     0.233 C 
HETATM    6  C10 UNL     1      50.404  52.148  21.747  1.00  0.00     0.175 C 
HETATM    7  S1  UNL     1      50.607  51.042  20.331  1.00  0.00     0.148 S 
HETATM    8  O1  UNL     1      51.893  50.316  20.438  1.00  0.00    -0.228 OA
HETATM    9  O2  UNL     1      49.420  50.177  20.154  1.00  0.00    -0.228 OA
HETATM   10  C11 UNL     1      50.682  52.319  19.050  1.00  0.00     0.175 C 
HETATM   11  C12 UNL     1      51.019  53.485  19.916  1.00  0.00     0.233 C 
HETATM   12  N2  UNL     1      50.651  54.772  19.409  1.00  0.00    -0.039 N 
ATOM     13  H21 UNL     1      51.251  55.152  18.678  1.00  0.00     0.280 HD
ATOM     14  H22 UNL     1      49.805  54.803  18.841  1.00  0.00     0.280 HD
ENDROOT
BRANCH   1  15
HETATM   15  C7  UNL     1      49.758  56.757  20.543  1.00  0.00     0.062 C 
BRANCH  15  16
HETATM   16  C6  UNL     1      48.958  56.978  21.795  1.00  0.00     0.004 C 
BRANCH  16  17
HETATM   17  C5  UNL     1      47.608  57.582  21.523  1.00  0.00     0.000 C 
BRANCH  17  18
HETATM   18  C4  UNL     1      46.823  56.685  20.620  1.00  0.00     0.000 C 
BRANCH  18  19
HETATM   19  C3  UNL     1      45.818  57.411  19.757  1.00  0.00    -0.000 C 
BRANCH  19  20
HETATM   20  C2  UNL     1      44.448  57.105  20.365  1.00  0.00    -0.005 C 
HETATM   21  C1  UNL     1      43.418  57.790  19.523  1.00  0.00     0.005 C 
ENDBRANCH  19  20
ENDBRANCH  18  19
ENDBRANCH  17  18
ENDBRANCH  16  17
ENDBRANCH  15  16
ENDBRANCH   1  15
TORSDOF 6
ENDMDL
MODEL 3
REMARK VINA RESULT: -6.785165670      0.591      1.696
REMARK  6 active torsions:
REMARK  status: ('A' for Active; 'I' for Inactive)
REMARK    1  A    between atoms: C2_2  and  C3_3 
REMARK    2  A    between atoms: C3_3  and  C4_4 
REMARK    3  A    between atoms: C4_4  and  C5_5 
REMARK    4  A    between atoms: C5_5  and  C6_6 
REMARK    5  A    between atoms: C6_6  and  C7_7 
REMARK    6  A    between atoms: C7_7  and  C8_8 
ROOT
HETATM    1  C8  UNL     1      48.158  48.630  17.072  1.00  0.00     0.383 C 
HETATM    2  N1  UNL     1      49.215  49.511  16.612  1.00  0.00    -0.039 N 
ATOM      3  H11 UNL     1      48.961  50.056  15.787  1.00  0.00     0.280 HD
ATOM      4  H12 UNL     1      50.004  49.018  16.196  1.00  0.00     0.280 HD
HETATM    5  C9  UNL     1      49.570  50.307  17.727  1.00  0.00     0.233 C 
HETATM    6  C10 UNL     1      51.022  50.546  17.959  1.00  0.00     0.175 C 
HETATM    7  S1  UNL     1      50.960  50.960  19.719  1.00  0.00     0.148 S 
HETATM    8  O1  UNL     1      52.026  50.234  20.446  1.00  0.00    -0.228 OA
HETATM    9  O2  UNL     1      50.957  52.426  19.923  1.00  0.00    -0.228 OA
HETATM   10  C11 UNL     1      49.331  50.250  20.065  1.00  0.00     0.175 C 
HETATM   11  C12 UNL     1      49.224  49.348  18.882  1.00  0.00     0.233 C 
HETATM   12  N2  UNL     1      47.897  49.003  18.474  1.00  0.00    -0.039 N 
ATOM     13  H21 UNL     1      47.423  48.300  19.041  1.00  0.00     0.280 HD
ATOM     14  H22 UNL     1      47.184  49.717  18.621  1.00  0.00     0.280 HD
ENDROOT
BRANCH   1  15
HETATM   15  C7  UNL     1      46.918  48.727  16.240  1.00  0.00     0.062 C 
BRANCH  15  16
HETATM   16  C6  UNL     1      46.139  47.445  16.301  1.00  0.00     0.004 C 
BRANCH  16  17
HETATM   17  C5  UNL     1      44.663  47.669  16.484  1.00  0.00     0.000 C 
BRANCH  17  18
HETATM   18  C4  UNL     1      44.408  48.307  17.812  1.00  0.00     0.000 C 
BRANCH  18  19
HETATM   19  C3  UNL     1      44.616  47.380  18.987  1.00  0.00    -0.000 C 
BRANCH  19  20
HETATM   20  C2  UNL     1      43.325  46.568  19.111  1.00  0.00    -0.005 C 
HETATM   21  C1  UNL     1      43.161  46.199  20.552  1.00  0.00     0.005 C 
ENDBRANCH  19  20
ENDBRANCH  18  19
ENDBRANCH  17  18
ENDBRANCH  16  17
ENDBRANCH  15  16
ENDBRANCH   1  15
TORSDOF 6
ENDMDL
MODEL 4
REMARK VINA RESULT: -6.713937728      1.116      1.999
REMARK  6 active torsions:
REMARK  status: ('A' for Active; 'I' for Inactive)
REMARK    1  A    between atoms: C2_2  and  C3_3 
REMARK    2  A    between atoms: C3_3  and  C4_4 
REMARK    3  A    between atoms: C4_4  and  C5_5 
REMARK    4  A    between atoms: C5_5  and  C6_6 
REMARK    5  A    between atoms: C6_6  and  C7_7 
REMARK    6  A    between atoms: C7_7  and  C8_8 
ROOT
HETATM    1  C8  UNL     1      47.570  49.685  17.282  1.00  0.00     0.383 C 
HETATM    2  N1  UNL     1      48.606  50.698  17.222  1.00  0.00    -0.039 N 
ATOM      3  H11 UNL     1      48.256  51.626  16.985  1.00  0.00     0.280 HD
ATOM      4  H12 UNL     1      49.231  50.595  16.422  1.00  0.00     0.280 HD
HETATM    5  C9  UNL     1      49.272  50.647  18.469  1.00  0.00     0.233 C 
HETATM    6  C10 UNL     1      50.759  50.742  18.453  1.00  0.00     0.175 C 
HETATM    7  S1  UNL     1      51.106  49.978  20.056  1.00  0.00     0.148 S 
HETATM    8  O1  UNL     1      52.206  48.996  19.919  1.00  0.00    -0.228 OA
HETATM    9  O2  UNL     1      51.317  51.003  21.101  1.00  0.00    -0.228 OA
HETATM   10  C11 UNL     1      49.511  49.149  20.266  1.00  0.00     0.175 C 
HETATM   11  C12 UNL     1      49.059  49.168  18.845  1.00  0.00     0.233 C 
HETATM   12  N2  UNL     1      47.645  49.103  18.633  1.00  0.00    -0.039 N 
ATOM     13  H21 UNL     1      47.218  48.184  18.748  1.00  0.00     0.280 HD
ATOM     14  H22 UNL     1      47.067  49.548  19.345  1.00  0.00     0.280 HD
ENDROOT
BRANCH   1  15
HETATM   15  C7  UNL     1      46.206  50.232  16.998  1.00  0.00     0.062 C 
BRANCH  15  16
HETATM   16  C6  UNL     1      45.146  49.311  17.529  1.00  0.00     0.004 C 
BRANCH  16  17
HETATM   17  C5  UNL     1      44.998  48.059  16.709  1.00  0.00     0.000 C 
BRANCH  17  18
HETATM   18  C4  UNL     1      44.840  46.878  17.611  1.00  0.00     0.000 C 
BRANCH  18  19
HETATM   19  C3  UNL     1      44.482  47.237  19.034  1.00  0.00    -0.000 C 
BRANCH  19  20
HETATM   20  C2  UNL     1      43.189  46.480  19.344  1.00  0.00    -0.005 C 
HETATM   21  C1  UNL     1      43.197  46.151  20.803  1.00  0.00     0.005 C 
ENDBRANCH  19  20
ENDBRANCH  18  19
ENDBRANCH  17  18
ENDBRANCH  16  17
ENDBRANCH  15  16
ENDBRANCH   1  15
TORSDOF 6
ENDMDL
MODEL 5
REMARK VINA RESULT: -6.636320059      5.400      7.749
REMARK  6 active torsions:
REMARK  status: ('A' for Active; 'I' for Inactive)
REMARK    1  A    between atoms: C2_2  and  C3_3 
REMARK    2  A    between atoms: C3_3  and  C4_4 
REMARK    3  A    between atoms: C4_4  and  C5_5 
REMARK    4  A    between atoms: C5_5  and  C6_6 
REMARK    5  A    between atoms: C6_6  and  C7_7 
REMARK    6  A    between atoms: C7_7  and  C8_8 
ROOT
HETATM    1  C8  UNL     1      49.808  53.796  21.591  1.00  0.00     0.383 C 
HETATM    2  N1  UNL     1      50.434  53.529  20.310  1.00  0.00    -0.039 N 
ATOM      3  H11 UNL     1      51.151  54.208  20.057  1.00  0.00     0.280 HD
ATOM      4  H12 UNL     1      49.820  53.695  19.513  1.00  0.00     0.280 HD
HETATM    5  C9  UNL     1      50.916  52.200  20.384  1.00  0.00     0.233 C 
HETATM    6  C10 UNL     1      50.715  51.335  19.188  1.00  0.00     0.175 C 
HETATM    7  S1  UNL     1      50.843  49.717  19.987  1.00  0.00     0.148 S 
HETATM    8  O1  UNL     1      49.749  48.835  19.518  1.00  0.00    -0.228 OA
HETATM    9  O2  UNL     1      52.202  49.153  19.838  1.00  0.00    -0.228 OA
HETATM   10  C11 UNL     1      50.550  50.275  21.684  1.00  0.00     0.175 C 
HETATM   11  C12 UNL     1      49.913  51.589  21.382  1.00  0.00     0.233 C 
HETATM   12  N2  UNL     1      50.007  52.584  22.405  1.00  0.00    -0.039 N 
ATOM     13  H21 UNL     1      49.377  52.471  23.198  1.00  0.00     0.280 HD
ATOM     14  H22 UNL     1      50.854  52.562  22.973  1.00  0.00     0.280 HD
ENDROOT
BRANCH   1  15
HETATM   15  C7  UNL     1      50.367  55.008  22.269  1.00  0.00     0.062 C 
BRANCH  15  16
HETATM   16  C6  UNL     1      50.925  55.969  21.258  1.00  0.00     0.004 C 
BRANCH  16  17
HETATM   17  C5  UNL     1      49.951  57.053  20.887  1.00  0.00     0.000 C 
BRANCH  17  18
HETATM   18  C4  UNL     1      48.966  57.251  21.994  1.00  0.00     0.000 C 
BRANCH  18  19
HETATM   19  C3  UNL     1      47.618  57.752  21.533  1.00  0.00    -0.000 C 
BRANCH  19  20
HETATM   20  C2  UNL     1      47.036  56.639  20.659  1.00  0.00    -0.005 C 
HETATM   21  C1  UNL     1      45.640  57.033  20.296  1.00  0.00     0.005 C 
ENDBRANCH  19  20
ENDBRANCH  18  19
ENDBRANCH  17  18
ENDBRANCH  16  17
ENDBRANCH  15  16
ENDBRANCH   1  15
TORSDOF 6
ENDMDL
