MODEL 1
REMARK VINA RESULT: -6.498631567      0.000      0.000
REMARK  7 active torsions:
REMARK  status: ('A' for Active; 'I' for Inactive)
REMARK    1  A    between atoms: C2_2  and  C3_3 
REMARK    2  A    between atoms: C4_5  and  C5_6 
REMARK    3  A    between atoms: C7_8  and  N1_9 
REMARK    4  A    between atoms: N1_9  and  C8_11 
REMARK    5  A    between atoms: C8_11  and  C9_12 
REMARK    6  A    between atoms: C9_12  and  N2_13 
REMARK    7  A    between atoms: C14_18  and  O2_19 
ROOT
HETATM    1  C3  UNL     1      49.903  49.442  19.943  1.00  0.00     0.152 C 
HETATM    2  O1  UNL     1      49.027  50.361  19.362  1.00  0.00    -0.376 OA
HETATM    3  C4  UNL     1      49.968  51.334  18.933  1.00  0.00     0.146 C 
HETATM    4  C7  UNL     1      50.572  51.667  20.331  1.00  0.00     0.137 C 
HETATM    5  C14 UNL     1      50.748  50.284  20.887  1.00  0.00     0.171 C 
ENDROOT
BRANCH   4   6
HETATM    6  N1  UNL     1      49.662  52.536  20.953  1.00  0.00    -0.408 N 
ATOM      7  H1  UNL     1      48.667  52.468  20.739  1.00  0.00     0.154 HD
BRANCH   6   8
HETATM    8  C8  UNL     1      50.122  53.510  21.881  1.00  0.00     0.159 C 
BRANCH   8   9
HETATM    9  C9  UNL     1      50.271  54.842  21.183  1.00  0.00     0.087 C 
BRANCH   9  10
HETATM   10  N2  UNL     1      49.176  55.672  21.217  1.00  0.00    -0.353 N 
HETATM   11  C10 UNL     1      48.200  55.603  20.207  1.00  0.00     0.068 C 
HETATM   12  C11 UNL     1      47.079  56.510  20.631  1.00  0.00     0.050 C 
HETATM   13  C12 UNL     1      47.756  57.488  21.553  1.00  0.00     0.050 C 
HETATM   14  C13 UNL     1      49.101  56.872  21.889  1.00  0.00     0.068 C 
ENDBRANCH   9  10
ENDBRANCH   8   9
ENDBRANCH   6   8
ENDBRANCH   4   6
BRANCH   3  15
HETATM   15  C5  UNL     1      49.254  52.555  18.434  1.00  0.00     0.029 C 
HETATM   16  C6  UNL     1      47.926  52.119  17.840  1.00  0.00     0.007 C 
ENDBRANCH   3  15
BRANCH   5  17
HETATM   17  O2  UNL     1      52.093  49.854  20.647  1.00  0.00    -0.391 OA
ATOM     18  H2  UNL     1      52.633  50.524  21.048  1.00  0.00     0.210 HD
ENDBRANCH   5  17
BRANCH   1  19
HETATM   19  C2  UNL     1      49.196  48.315  20.616  1.00  0.00     0.030 C 
HETATM   20  C1  UNL     1      49.149  48.570  22.105  1.00  0.00     0.007 C 
ENDBRANCH   1  19
TORSDOF 7
ENDMDL
MODEL 2
REMARK VINA RESULT: -6.390826640      1.701      2.373
REMARK  7 active torsions:
REMARK  status: ('A' for Active; 'I' for Inactive)
REMARK    1  A    between atoms: C2_2  and  C3_3 
REMARK    2  A    between atoms: C4_5  and  C5_6 
REMARK    3  A    between atoms: C7_8  and  N1_9 
REMARK    4  A    between atoms: N1_9  and  C8_11 
REMARK    5  A    between atoms: C8_11  and  C9_12 
REMARK    6  A    between atoms: C9_12  and  N2_13 
REMARK    7  A    between atoms: C14_18  and  O2_19 
ROOT
HETATM    1  C3  UNL     1      49.882  49.482  20.428  1.00  0.00     0.152 C 
HETATM    2  O1  UNL     1      48.952  50.126  19.609  1.00  0.00    -0.376 OA
HETATM    3  C4  UNL     1      49.399  49.657  18.346  1.00  0.00     0.146 C 
HETATM    4  C7  UNL     1      50.849  50.227  18.413  1.00  0.00     0.137 C 
HETATM    5  C14 UNL     1      51.226  49.840  19.814  1.00  0.00     0.171 C 
ENDROOT
BRANCH   4   6
HETATM    6  N1  UNL     1      50.748  51.590  18.092  1.00  0.00    -0.408 N 
ATOM      7  H1  UNL     1      50.331  51.874  17.206  1.00  0.00     0.154 HD
BRANCH   6   8
HETATM    8  C8  UNL     1      51.226  52.576  18.998  1.00  0.00     0.159 C 
BRANCH   8   9
HETATM    9  C9  UNL     1      50.178  53.649  19.176  1.00  0.00     0.087 C 
BRANCH   9  10
HETATM   10  N2  UNL     1      50.398  54.552  20.190  1.00  0.00    -0.353 N 
HETATM   11  C10 UNL     1      49.350  54.924  21.050  1.00  0.00     0.068 C 
HETATM   12  C11 UNL     1      49.961  55.778  22.126  1.00  0.00     0.050 C 
HETATM   13  C12 UNL     1      51.199  56.325  21.471  1.00  0.00     0.050 C 
HETATM   14  C13 UNL     1      51.418  55.477  20.232  1.00  0.00     0.068 C 
ENDBRANCH   9  10
ENDBRANCH   8   9
ENDBRANCH   6   8
ENDBRANCH   4   6
BRANCH   3  15
HETATM   15  C5  UNL     1      48.672  50.372  17.245  1.00  0.00     0.029 C 
HETATM   16  C6  UNL     1      47.294  50.753  17.757  1.00  0.00     0.007 C 
ENDBRANCH   3  15
BRANCH   5  17
HETATM   17  O2  UNL     1      51.946  48.602  19.776  1.00  0.00    -0.391 OA
ATOM     18  H2  UNL     1      52.561  48.706  19.060  1.00  0.00     0.210 HD
ENDBRANCH   5  17
BRANCH   1  19
HETATM   19  C2  UNL     1      49.756  49.872  21.862  1.00  0.00     0.030 C 
HETATM   20  C1  UNL     1      49.470  51.353  21.956  1.00  0.00     0.007 C 
ENDBRANCH   1  19
TORSDOF 7
ENDMDL
MODEL 3
REMARK VINA RESULT: -6.243888718      1.760      2.616
REMARK  7 active torsions:
REMARK  status: ('A' for Active; 'I' for Inactive)
REMARK    1  A    between atoms: C2_2  and  C3_3 
REMARK    2  A    between atoms: C4_5  and  C5_6 
REMARK    3  A    between atoms: C7_8  and  N1_9 
REMARK    4  A    between atoms: N1_9  and  C8_11 
REMARK    5  A    between atoms: C8_11  and  C9_12 
REMARK    6  A    between atoms: C9_12  and  N2_13 
REMARK    7  A    between atoms: C14_18  and  O2_19 
ROOT
HETATM    1  C3  UNL     1      50.575  50.064  18.860  1.00  0.00     0.152 C 
HETATM    2  O1  UNL     1      49.276  49.594  19.058  1.00  0.00    -0.376 OA
HETATM    3  C4  UNL     1      48.706  49.967  17.813  1.00  0.00     0.146 C 
HETATM    4  C7  UNL     1      48.963  51.501  17.918  1.00  0.00     0.137 C 
HETATM    5  C14 UNL     1      50.382  51.504  18.409  1.00  0.00     0.171 C 
ENDROOT
BRANCH   4   6
HETATM    6  N1  UNL     1      47.957  52.010  18.755  1.00  0.00    -0.408 N 
ATOM      7  H1  UNL     1      47.003  51.662  18.672  1.00  0.00     0.154 HD
BRANCH   6   8
HETATM    8  C8  UNL     1      48.265  53.010  19.718  1.00  0.00     0.159 C 
BRANCH   8   9
HETATM    9  C9  UNL     1      48.118  54.377  19.091  1.00  0.00     0.087 C 
BRANCH   9  10
HETATM   10  N2  UNL     1      48.095  55.444  19.959  1.00  0.00    -0.353 N 
HETATM   11  C10 UNL     1      49.019  55.520  21.016  1.00  0.00     0.068 C 
HETATM   12  C11 UNL     1      48.829  56.867  21.655  1.00  0.00     0.050 C 
HETATM   13  C12 UNL     1      47.410  57.220  21.301  1.00  0.00     0.050 C 
HETATM   14  C13 UNL     1      47.011  56.260  20.196  1.00  0.00     0.068 C 
ENDBRANCH   9  10
ENDBRANCH   8   9
ENDBRANCH   6   8
ENDBRANCH   4   6
BRANCH   3  15
HETATM   15  C5  UNL     1      47.222  49.745  17.839  1.00  0.00     0.029 C 
HETATM   16  C6  UNL     1      46.955  48.408  18.509  1.00  0.00     0.007 C 
ENDBRANCH   3  15
BRANCH   5  17
HETATM   17  O2  UNL     1      51.261  51.651  17.288  1.00  0.00    -0.391 OA
ATOM     18  H2  UNL     1      50.684  51.821  16.553  1.00  0.00     0.210 HD
ENDBRANCH   5  17
BRANCH   1  19
HETATM   19  C2  UNL     1      51.431  49.927  20.073  1.00  0.00     0.030 C 
HETATM   20  C1  UNL     1      50.719  50.530  21.261  1.00  0.00     0.007 C 
ENDBRANCH   1  19
TORSDOF 7
ENDMDL
MODEL 4
REMARK VINA RESULT: -6.197651968      3.206      4.744
REMARK  7 active torsions:
REMARK  status: ('A' for Active; 'I' for Inactive)
REMARK    1  A    between atoms: C2_2  and  C3_3 
REMARK    2  A    between atoms: C4_5  and  C5_6 
REMARK    3  A    between atoms: C7_8  and  N1_9 
REMARK    4  A    between atoms: N1_9  and  C8_11 
REMARK    5  A    between atoms: C8_11  and  C9_12 
REMARK    6  A    between atoms: C9_12  and  N2_13 
REMARK    7  A    between atoms: C14_18  and  O2_19 
ROOT
HETATM    1  C3  UNL     1      46.945  47.957  17.953  1.00  0.00     0.152 C 
HETATM    2  O1  UNL     1      46.920  48.341  16.611  1.00  0.00    -0.376 OA
HETATM    3  C4  UNL     1      48.315  48.355  16.351  1.00  0.00     0.146 C 
HETATM    4  C7  UNL     1      48.714  49.418  17.420  1.00  0.00     0.137 C 
HETATM    5  C14 UNL     1      47.921  48.929  18.596  1.00  0.00     0.171 C 
ENDROOT
BRANCH   4   6
HETATM    6  N1  UNL     1      48.399  50.668  16.864  1.00  0.00    -0.408 N 
ATOM      7  H1  UNL     1      48.510  50.821  15.862  1.00  0.00     0.154 HD
BRANCH   6   8
HETATM    8  C8  UNL     1      47.926  51.722  17.693  1.00  0.00     0.159 C 
BRANCH   8   9
HETATM    9  C9  UNL     1      49.100  52.436  18.321  1.00  0.00     0.087 C 
BRANCH   9  10
HETATM   10  N2  UNL     1      49.407  52.079  19.613  1.00  0.00    -0.353 N 
HETATM   11  C10 UNL     1      48.869  52.798  20.696  1.00  0.00     0.068 C 
HETATM   12  C11 UNL     1      49.265  52.055  21.942  1.00  0.00     0.050 C 
HETATM   13  C12 UNL     1      50.500  51.307  21.520  1.00  0.00     0.050 C 
HETATM   14  C13 UNL     1      50.517  51.363  20.004  1.00  0.00     0.068 C 
ENDBRANCH   9  10
ENDBRANCH   8   9
ENDBRANCH   6   8
ENDBRANCH   4   6
BRANCH   3  15
HETATM   15  C5  UNL     1      48.580  48.939  14.995  1.00  0.00     0.029 C 
HETATM   16  C6  UNL     1      47.789  48.143  13.972  1.00  0.00     0.007 C 
ENDBRANCH   3  15
BRANCH   5  17
HETATM   17  O2  UNL     1      48.762  48.107  19.414  1.00  0.00    -0.391 OA
ATOM     18  H2  UNL     1      49.508  48.658  19.620  1.00  0.00     0.210 HD
ENDBRANCH   5  17
BRANCH   1  19
HETATM   19  C2  UNL     1      45.593  47.963  18.581  1.00  0.00     0.030 C 
HETATM   20  C1  UNL     1      44.627  48.704  17.687  1.00  0.00     0.007 C 
ENDBRANCH   1  19
TORSDOF 7
ENDMDL
MODEL 5
REMARK VINA RESULT: -6.169426557      1.439      1.918
REMARK  7 active torsions:
REMARK  status: ('A' for Active; 'I' for Inactive)
REMARK    1  A    between atoms: C2_2  and  C3_3 
REMARK    2  A    between atoms: C4_5  and  C5_6 
REMARK    3  A    between atoms: C7_8  and  N1_9 
REMARK    4  A    between atoms: N1_9  and  C8_11 
REMARK    5  A    between atoms: C8_11  and  C9_12 
REMARK    6  A    between atoms: C9_12  and  N2_13 
REMARK    7  A    between atoms: C14_18  and  O2_19 
ROOT
HETATM    1  C3  UNL     1      49.037  49.476  18.942  1.00  0.00     0.152 C 
HETATM    2  O1  UNL     1      47.811  50.088  18.672  1.00  0.00    -0.376 OA
HETATM    3  C4  UNL     1      48.137  50.718  17.442  1.00  0.00     0.146 C 
HETATM    4  C7  UNL     1      49.309  51.604  17.967  1.00  0.00     0.137 C 
HETATM    5  C14 UNL     1      50.050  50.602  18.805  1.00  0.00     0.171 C 
ENDROOT
BRANCH   4   6
HETATM    6  N1  UNL     1      48.713  52.705  18.600  1.00  0.00    -0.408 N 
ATOM      7  H1  UNL     1      47.698  52.752  18.690  1.00  0.00     0.154 HD
BRANCH   6   8
HETATM    8  C8  UNL     1      49.519  53.757  19.116  1.00  0.00     0.159 C 
BRANCH   8   9
HETATM    9  C9  UNL     1      49.214  53.954  20.583  1.00  0.00     0.087 C 
BRANCH   9  10
HETATM   10  N2  UNL     1      48.674  55.169  20.934  1.00  0.00    -0.353 N 
HETATM   11  C10 UNL     1      47.578  55.691  20.224  1.00  0.00     0.068 C 
HETATM   12  C11 UNL     1      47.141  56.927  20.959  1.00  0.00     0.050 C 
HETATM   13  C12 UNL     1      48.386  57.354  21.687  1.00  0.00     0.050 C 
HETATM   14  C13 UNL     1      49.324  56.163  21.631  1.00  0.00     0.068 C 
ENDBRANCH   9  10
ENDBRANCH   8   9
ENDBRANCH   6   8
ENDBRANCH   4   6
BRANCH   3  15
HETATM   15  C5  UNL     1      47.023  51.629  17.020  1.00  0.00     0.029 C 
HETATM   16  C6  UNL     1      45.710  50.886  17.196  1.00  0.00     0.007 C 
ENDBRANCH   3  15
BRANCH   5  17
HETATM   17  O2  UNL     1      51.111  50.038  18.025  1.00  0.00    -0.391 OA
ATOM     18  H2  UNL     1      50.861  50.207  17.124  1.00  0.00     0.210 HD
ENDBRANCH   5  17
BRANCH   1  19
HETATM   19  C2  UNL     1      49.066  48.804  20.272  1.00  0.00     0.030 C 
HETATM   20  C1  UNL     1      49.792  49.684  21.263  1.00  0.00     0.007 C 
ENDBRANCH   1  19
TORSDOF 7
ENDMDL
