MODEL 1
REMARK VINA RESULT: -5.859096631      0.000      0.000
REMARK  8 active torsions:
REMARK  status: ('A' for Active; 'I' for Inactive)
REMARK    1  A    between atoms: O1_3  and  C2_4 
REMARK    2  A    between atoms: C2_4  and  C3_5 
REMARK    3  A    between atoms: C3_5  and  N2_6 
REMARK    4  A    between atoms: N2_6  and  C4_8 
REMARK    5  A    between atoms: C4_8  and  N3_10 
REMARK    6  A    between atoms: N3_10  and  C5_12 
REMARK    7  A    between atoms: C5_12  and  C6_13 
REMARK    8  A    between atoms: C6_13  and  C7_14 
ROOT
HETATM    1  N1  UNL     1      51.045  52.964  18.724  1.00  0.00    -0.164 NA
HETATM    2  C1  UNL     1      51.340  51.992  19.275  1.00  0.00     0.228 C 
HETATM    3  O1  UNL     1      51.715  50.870  19.927  1.00  0.00    -0.282 OA
ENDROOT
BRANCH   3   4
HETATM    4  C2  UNL     1      51.186  49.592  19.849  1.00  0.00     0.209 C 
BRANCH   4   5
HETATM    5  C3  UNL     1      49.713  49.475  19.692  1.00  0.00     0.149 C 
BRANCH   5   6
HETATM    6  N2  UNL     1      49.310  48.872  18.464  1.00  0.00    -0.365 N 
ATOM      7  H2  UNL     1      49.243  47.859  18.370  1.00  0.00     0.161 HD
BRANCH   6   8
HETATM    8  C4  UNL     1      48.999  49.747  17.365  1.00  0.00     0.167 C 
HETATM    9  S1  UNL     1      47.982  50.997  17.674  1.00  0.00    -0.041 SA
BRANCH   8  10
HETATM   10  N3  UNL     1      49.584  49.519  16.099  1.00  0.00    -0.367 N 
ATOM     11  H3  UNL     1      50.391  50.079  15.827  1.00  0.00     0.161 HD
BRANCH  10  12
HETATM   12  C5  UNL     1      49.090  48.531  15.179  1.00  0.00     0.124 C 
BRANCH  12  13
HETATM   13  C6  UNL     1      47.982  49.100  14.371  1.00  0.00     0.051 C 
BRANCH  13  14
HETATM   14  C7  UNL     1      46.611  48.638  14.735  1.00  0.00     0.123 C 
HETATM   15  C8  UNL     1      45.866  47.890  13.698  1.00  0.00     0.032 C 
HETATM   16  C9  UNL     1      44.930  46.850  14.246  1.00  0.00     0.004 C 
HETATM   17  C10 UNL     1      44.439  47.129  15.631  1.00  0.00     0.026 C 
HETATM   18  C11 UNL     1      45.372  47.975  16.458  1.00  0.00     0.168 C 
HETATM   19  O2  UNL     1      46.663  47.856  15.910  1.00  0.00    -0.386 OA
ENDBRANCH  13  14
ENDBRANCH  12  13
ENDBRANCH  10  12
ENDBRANCH   8  10
ENDBRANCH   6   8
ENDBRANCH   5   6
ENDBRANCH   4   5
ENDBRANCH   3   4
TORSDOF 8
ENDMDL
MODEL 2
REMARK VINA RESULT: -5.814536680      1.128      1.277
REMARK  8 active torsions:
REMARK  status: ('A' for Active; 'I' for Inactive)
REMARK    1  A    between atoms: O1_3  and  C2_4 
REMARK    2  A    between atoms: C2_4  and  C3_5 
REMARK    3  A    between atoms: C3_5  and  N2_6 
REMARK    4  A    between atoms: N2_6  and  C4_8 
REMARK    5  A    between atoms: C4_8  and  N3_10 
REMARK    6  A    between atoms: N3_10  and  C5_12 
REMARK    7  A    between atoms: C5_12  and  C6_13 
REMARK    8  A    between atoms: C6_13  and  C7_14 
ROOT
HETATM    1  N1  UNL     1      51.725  50.945  20.223  1.00  0.00    -0.164 NA
HETATM    2  C1  UNL     1      51.131  49.959  20.321  1.00  0.00     0.228 C 
HETATM    3  O1  UNL     1      50.465  48.788  20.425  1.00  0.00    -0.282 OA
ENDROOT
BRANCH   3   4
HETATM    4  C2  UNL     1      49.102  48.561  20.530  1.00  0.00     0.209 C 
BRANCH   4   5
HETATM    5  C3  UNL     1      48.260  48.931  19.362  1.00  0.00     0.149 C 
BRANCH   5   6
HETATM    6  N2  UNL     1      48.858  48.635  18.103  1.00  0.00    -0.365 N 
ATOM      7  H2  UNL     1      49.134  47.683  17.860  1.00  0.00     0.161 HD
BRANCH   6   8
HETATM    8  C4  UNL     1      49.057  49.727  17.187  1.00  0.00     0.167 C 
HETATM    9  S1  UNL     1      48.655  51.226  17.721  1.00  0.00    -0.041 SA
BRANCH   8  10
HETATM   10  N3  UNL     1      49.599  49.480  15.906  1.00  0.00    -0.367 N 
ATOM     11  H3  UNL     1      50.414  50.017  15.610  1.00  0.00     0.161 HD
BRANCH  10  12
HETATM   12  C5  UNL     1      49.053  48.505  15.003  1.00  0.00     0.124 C 
BRANCH  12  13
HETATM   13  C6  UNL     1      47.922  49.094  14.243  1.00  0.00     0.051 C 
BRANCH  13  14
HETATM   14  C7  UNL     1      46.562  48.621  14.633  1.00  0.00     0.123 C 
HETATM   15  C8  UNL     1      45.875  47.721  13.680  1.00  0.00     0.032 C 
HETATM   16  C9  UNL     1      44.969  46.715  14.331  1.00  0.00     0.004 C 
HETATM   17  C10 UNL     1      44.431  47.138  15.661  1.00  0.00     0.026 C 
HETATM   18  C11 UNL     1      45.307  48.117  16.398  1.00  0.00     0.168 C 
HETATM   19  O2  UNL     1      46.615  47.989  15.896  1.00  0.00    -0.386 OA
ENDBRANCH  13  14
ENDBRANCH  12  13
ENDBRANCH  10  12
ENDBRANCH   8  10
ENDBRANCH   6   8
ENDBRANCH   5   6
ENDBRANCH   4   5
ENDBRANCH   3   4
TORSDOF 8
ENDMDL
MODEL 3
REMARK VINA RESULT: -5.808755285      1.744      1.911
REMARK  8 active torsions:
REMARK  status: ('A' for Active; 'I' for Inactive)
REMARK    1  A    between atoms: O1_3  and  C2_4 
REMARK    2  A    between atoms: C2_4  and  C3_5 
REMARK    3  A    between atoms: C3_5  and  N2_6 
REMARK    4  A    between atoms: N2_6  and  C4_8 
REMARK    5  A    between atoms: C4_8  and  N3_10 
REMARK    6  A    between atoms: N3_10  and  C5_12 
REMARK    7  A    between atoms: C5_12  and  C6_13 
REMARK    8  A    between atoms: C6_13  and  C7_14 
ROOT
HETATM    1  N1  UNL     1      50.259  52.941  22.097  1.00  0.00    -0.164 NA
HETATM    2  C1  UNL     1      50.560  51.870  21.789  1.00  0.00     0.228 C 
HETATM    3  O1  UNL     1      50.944  50.627  21.423  1.00  0.00    -0.282 OA
ENDROOT
BRANCH   3   4
HETATM    4  C2  UNL     1      50.165  49.542  21.055  1.00  0.00     0.209 C 
BRANCH   4   5
HETATM    5  C3  UNL     1      49.187  49.748  19.955  1.00  0.00     0.149 C 
BRANCH   5   6
HETATM    6  N2  UNL     1      49.573  49.152  18.720  1.00  0.00    -0.365 N 
ATOM      7  H2  UNL     1      49.690  48.143  18.634  1.00  0.00     0.161 HD
BRANCH   6   8
HETATM    8  C4  UNL     1      49.791  50.027  17.598  1.00  0.00     0.167 C 
HETATM    9  S1  UNL     1      50.996  51.132  17.741  1.00  0.00    -0.041 SA
BRANCH   8  10
HETATM   10  N3  UNL     1      48.998  49.891  16.437  1.00  0.00    -0.367 N 
ATOM     11  H3  UNL     1      48.213  50.528  16.305  1.00  0.00     0.161 HD
BRANCH  10  12
HETATM   12  C5  UNL     1      49.251  48.895  15.433  1.00  0.00     0.124 C 
BRANCH  12  13
HETATM   13  C6  UNL     1      48.252  47.801  15.542  1.00  0.00     0.051 C 
BRANCH  13  14
HETATM   14  C7  UNL     1      46.952  48.170  16.174  1.00  0.00     0.123 C 
HETATM   15  C8  UNL     1      45.729  47.641  15.533  1.00  0.00     0.032 C 
HETATM   16  C9  UNL     1      44.606  47.362  16.491  1.00  0.00     0.004 C 
HETATM   17  C10 UNL     1      44.640  48.184  17.739  1.00  0.00     0.026 C 
HETATM   18  C11 UNL     1      46.017  48.651  18.134  1.00  0.00     0.168 C 
HETATM   19  O2  UNL     1      46.953  47.788  17.535  1.00  0.00    -0.386 OA
ENDBRANCH  13  14
ENDBRANCH  12  13
ENDBRANCH  10  12
ENDBRANCH   8  10
ENDBRANCH   6   8
ENDBRANCH   5   6
ENDBRANCH   4   5
ENDBRANCH   3   4
TORSDOF 8
ENDMDL
MODEL 4
REMARK VINA RESULT: -5.795502639      3.837      7.313
REMARK  8 active torsions:
REMARK  status: ('A' for Active; 'I' for Inactive)
REMARK    1  A    between atoms: O1_3  and  C2_4 
REMARK    2  A    between atoms: C2_4  and  C3_5 
REMARK    3  A    between atoms: C3_5  and  N2_6 
REMARK    4  A    between atoms: N2_6  and  C4_8 
REMARK    5  A    between atoms: C4_8  and  N3_10 
REMARK    6  A    between atoms: N3_10  and  C5_12 
REMARK    7  A    between atoms: C5_12  and  C6_13 
REMARK    8  A    between atoms: C6_13  and  C7_14 
ROOT
HETATM    1  N1  UNL     1      52.086  49.891  20.246  1.00  0.00    -0.164 NA
HETATM    2  C1  UNL     1      51.024  49.495  20.024  1.00  0.00     0.228 C 
HETATM    3  O1  UNL     1      49.791  49.002  19.778  1.00  0.00    -0.282 OA
ENDROOT
BRANCH   3   4
HETATM    4  C2  UNL     1      48.812  49.477  18.920  1.00  0.00     0.209 C 
BRANCH   4   5
HETATM    5  C3  UNL     1      49.250  49.930  17.574  1.00  0.00     0.149 C 
BRANCH   5   6
HETATM    6  N2  UNL     1      49.788  51.250  17.557  1.00  0.00    -0.365 N 
ATOM      7  H2  UNL     1      50.647  51.464  17.052  1.00  0.00     0.161 HD
BRANCH   6   8
HETATM    8  C4  UNL     1      49.072  52.269  18.277  1.00  0.00     0.167 C 
HETATM    9  S1  UNL     1      47.588  52.679  17.708  1.00  0.00    -0.041 SA
BRANCH   8  10
HETATM   10  N3  UNL     1      49.645  52.847  19.432  1.00  0.00    -0.367 N 
ATOM     11  H3  UNL     1      49.289  52.568  20.346  1.00  0.00     0.161 HD
BRANCH  10  12
HETATM   12  C5  UNL     1      50.709  53.812  19.375  1.00  0.00     0.124 C 
BRANCH  12  13
HETATM   13  C6  UNL     1      50.679  54.672  20.585  1.00  0.00     0.051 C 
BRANCH  13  14
HETATM   14  C7  UNL     1      49.356  55.274  20.921  1.00  0.00     0.123 C 
HETATM   15  C8  UNL     1      49.363  56.391  21.891  1.00  0.00     0.032 C 
HETATM   16  C9  UNL     1      48.285  57.411  21.658  1.00  0.00     0.004 C 
HETATM   17  C10 UNL     1      47.074  56.882  20.958  1.00  0.00     0.026 C 
HETATM   18  C11 UNL     1      47.342  55.692  20.075  1.00  0.00     0.168 C 
HETATM   19  O2  UNL     1      48.709  55.702  19.739  1.00  0.00    -0.386 OA
ENDBRANCH  13  14
ENDBRANCH  12  13
ENDBRANCH  10  12
ENDBRANCH   8  10
ENDBRANCH   6   8
ENDBRANCH   5   6
ENDBRANCH   4   5
ENDBRANCH   3   4
TORSDOF 8
ENDMDL
MODEL 5
REMARK VINA RESULT: -5.794061028      1.688      2.499
REMARK  8 active torsions:
REMARK  status: ('A' for Active; 'I' for Inactive)
REMARK    1  A    between atoms: O1_3  and  C2_4 
REMARK    2  A    between atoms: C2_4  and  C3_5 
REMARK    3  A    between atoms: C3_5  and  N2_6 
REMARK    4  A    between atoms: N2_6  and  C4_8 
REMARK    5  A    between atoms: C4_8  and  N3_10 
REMARK    6  A    between atoms: N3_10  and  C5_12 
REMARK    7  A    between atoms: C5_12  and  C6_13 
REMARK    8  A    between atoms: C6_13  and  C7_14 
ROOT
HETATM    1  N1  UNL     1      49.800  53.283  21.714  1.00  0.00    -0.164 NA
HETATM    2  C1  UNL     1      50.332  52.259  21.663  1.00  0.00     0.228 C 
HETATM    3  O1  UNL     1      50.984  51.077  21.608  1.00  0.00    -0.282 OA
ENDROOT
BRANCH   3   4
HETATM    4  C2  UNL     1      50.564  49.867  21.080  1.00  0.00     0.209 C 
BRANCH   4   5
HETATM    5  C3  UNL     1      51.358  49.304  19.957  1.00  0.00     0.149 C 
BRANCH   5   6
HETATM    6  N2  UNL     1      51.066  49.892  18.692  1.00  0.00    -0.365 N 
ATOM      7  H2  UNL     1      51.809  50.242  18.088  1.00  0.00     0.161 HD
BRANCH   6   8
HETATM    8  C4  UNL     1      49.684  49.974  18.300  1.00  0.00     0.167 C 
HETATM    9  S1  UNL     1      49.068  51.475  18.056  1.00  0.00    -0.041 SA
BRANCH   8  10
HETATM   10  N3  UNL     1      48.934  48.790  18.119  1.00  0.00    -0.367 N 
ATOM     11  H3  UNL     1      49.346  48.030  17.578  1.00  0.00     0.161 HD
BRANCH  10  12
HETATM   12  C5  UNL     1      47.617  48.611  18.665  1.00  0.00     0.124 C 
BRANCH  12  13
HETATM   13  C6  UNL     1      46.608  48.648  17.576  1.00  0.00     0.051 C 
BRANCH  13  14
HETATM   14  C7  UNL     1      47.101  48.265  16.221  1.00  0.00     0.123 C 
HETATM   15  C8  UNL     1      46.184  47.460  15.385  1.00  0.00     0.032 C 
HETATM   16  C9  UNL     1      46.313  47.718  13.910  1.00  0.00     0.004 C 
HETATM   17  C10 UNL     1      47.658  48.215  13.485  1.00  0.00     0.026 C 
HETATM   18  C11 UNL     1      48.412  48.952  14.561  1.00  0.00     0.168 C 
HETATM   19  O2  UNL     1      47.475  49.422  15.500  1.00  0.00    -0.386 OA
ENDBRANCH  13  14
ENDBRANCH  12  13
ENDBRANCH  10  12
ENDBRANCH   8  10
ENDBRANCH   6   8
ENDBRANCH   5   6
ENDBRANCH   4   5
ENDBRANCH   3   4
TORSDOF 8
ENDMDL
