MODEL 1
REMARK VINA RESULT: -6.823447395      0.000      0.000
REMARK  7 active torsions:
REMARK  status: ('A' for Active; 'I' for Inactive)
REMARK    1  A    between atoms: O1_2  and  C2_3 
REMARK    2  A    between atoms: C2_3  and  C3_4 
REMARK    3  A    between atoms: C3_4  and  O2_5 
REMARK    4  A    between atoms: C3_4  and  C4_7 
REMARK    5  A    between atoms: C4_7  and  N1_8 
REMARK    6  A    between atoms: N1_8  and  C5_11 
REMARK    7  A    between atoms: C5_11  and  C6_12 
ROOT
HETATM    1  C5  UNL     1      48.517  49.292  16.877  1.00  0.00     0.237 C 
ENDROOT
BRANCH   1   2
HETATM    2  N1  UNL     1      49.427  49.061  17.985  1.00  0.00    -0.072 N 
ATOM      3  H12 UNL     1      50.177  49.752  18.011  1.00  0.00     0.277 HD
ATOM      4  H11 UNL     1      49.995  48.226  17.842  1.00  0.00     0.277 HD
BRANCH   2   5
HETATM    5  C4  UNL     1      48.696  49.009  19.232  1.00  0.00     0.265 C 
BRANCH   5   6
HETATM    6  C3  UNL     1      49.664  49.008  20.415  1.00  0.00     0.167 C 
BRANCH   6   7
HETATM    7  C2  UNL     1      51.013  49.407  19.910  1.00  0.00     0.200 C 
BRANCH   7   8
HETATM    8  O1  UNL     1      51.631  50.337  20.764  1.00  0.00    -0.393 OA
HETATM    9  C1  UNL     1      50.669  51.085  21.434  1.00  0.00     0.201 C 
ENDBRANCH   7   8
ENDBRANCH   6   7
BRANCH   6  10
HETATM   10  O2  UNL     1      49.654  47.738  21.006  1.00  0.00    -0.392 OA
ATOM     11  H2  UNL     1      49.113  47.114  20.536  1.00  0.00     0.210 HD
ENDBRANCH   6  10
ENDBRANCH   5   6
ENDBRANCH   2   5
ENDBRANCH   1   2
BRANCH   1  12
HETATM   12  C6  UNL     1      48.156  48.000  16.242  1.00  0.00     0.020 C 
HETATM   13  C7  UNL     1      48.881  47.903  14.919  1.00  0.00     0.007 C 
HETATM   14  C8  UNL     1      47.857  48.080  13.864  1.00  0.00     0.001 C 
HETATM   15  C9  UNL     1      46.608  47.527  14.462  1.00  0.00     0.010 C 
HETATM   16  C10 UNL     1      46.681  47.807  15.974  1.00  0.00    -0.031 C 
HETATM   17  C11 UNL     1      46.163  46.569  16.641  1.00  0.00     0.036 C 
HETATM   18  C14 UNL     1      45.828  49.003  16.199  1.00  0.00     0.036 C 
HETATM   19  C12 UNL     1      45.185  46.779  17.727  1.00  0.00     0.168 C 
HETATM   20  O3  UNL     1      44.337  47.867  17.557  1.00  0.00    -0.391 OA
HETATM   21  C13 UNL     1      45.193  48.993  17.573  1.00  0.00     0.168 C 
ENDBRANCH   1  12
TORSDOF 7
ENDMDL
MODEL 2
REMARK VINA RESULT: -6.746322322      1.432      1.876
REMARK  7 active torsions:
REMARK  status: ('A' for Active; 'I' for Inactive)
REMARK    1  A    between atoms: O1_2  and  C2_3 
REMARK    2  A    between atoms: C2_3  and  C3_4 
REMARK    3  A    between atoms: C3_4  and  O2_5 
REMARK    4  A    between atoms: C3_4  and  C4_7 
REMARK    5  A    between atoms: C4_7  and  N1_8 
REMARK    6  A    between atoms: N1_8  and  C5_11 
REMARK    7  A    between atoms: C5_11  and  C6_12 
ROOT
HETATM    1  C5  UNL     1      48.111  48.698  17.400  1.00  0.00     0.237 C 
ENDROOT
BRANCH   1   2
HETATM    2  N1  UNL     1      49.400  49.252  17.030  1.00  0.00    -0.072 N 
ATOM      3  H12 UNL     1      49.511  49.314  16.018  1.00  0.00     0.277 HD
ATOM      4  H11 UNL     1      50.163  48.603  17.226  1.00  0.00     0.277 HD
BRANCH   2   5
HETATM    5  C4  UNL     1      49.601  50.532  17.674  1.00  0.00     0.265 C 
BRANCH   5   6
HETATM    6  C3  UNL     1      51.089  50.768  17.933  1.00  0.00     0.167 C 
BRANCH   6   7
HETATM    7  C2  UNL     1      51.227  51.454  19.254  1.00  0.00     0.200 C 
BRANCH   7   8
HETATM    8  O1  UNL     1      51.829  50.619  20.210  1.00  0.00    -0.393 OA
HETATM    9  C1  UNL     1      50.892  50.215  21.153  1.00  0.00     0.201 C 
ENDBRANCH   7   8
ENDBRANCH   6   7
BRANCH   6  10
HETATM   10  O2  UNL     1      51.619  51.513  16.871  1.00  0.00    -0.392 OA
ATOM     11  H2  UNL     1      51.302  51.227  16.022  1.00  0.00     0.210 HD
ENDBRANCH   6  10
ENDBRANCH   5   6
ENDBRANCH   2   5
ENDBRANCH   1   2
BRANCH   1  12
HETATM   12  C6  UNL     1      47.765  47.574  16.494  1.00  0.00     0.020 C 
HETATM   13  C7  UNL     1      48.590  47.710  15.234  1.00  0.00     0.007 C 
HETATM   14  C8  UNL     1      47.658  48.137  14.165  1.00  0.00     0.001 C 
HETATM   15  C9  UNL     1      46.351  47.531  14.548  1.00  0.00     0.010 C 
HETATM   16  C10 UNL     1      46.311  47.502  16.087  1.00  0.00    -0.031 C 
HETATM   17  C11 UNL     1      45.708  46.180  16.452  1.00  0.00     0.036 C 
HETATM   18  C14 UNL     1      45.477  48.665  16.485  1.00  0.00     0.036 C 
HETATM   19  C12 UNL     1      44.653  46.212  17.485  1.00  0.00     0.168 C 
HETATM   20  O3  UNL     1      43.852  47.347  17.475  1.00  0.00    -0.391 OA
HETATM   21  C13 UNL     1      44.734  48.410  17.779  1.00  0.00     0.168 C 
ENDBRANCH   1  12
TORSDOF 7
ENDMDL
MODEL 3
REMARK VINA RESULT: -6.724850721      4.306      7.237
REMARK  7 active torsions:
REMARK  status: ('A' for Active; 'I' for Inactive)
REMARK    1  A    between atoms: O1_2  and  C2_3 
REMARK    2  A    between atoms: C2_3  and  C3_4 
REMARK    3  A    between atoms: C3_4  and  O2_5 
REMARK    4  A    between atoms: C3_4  and  C4_7 
REMARK    5  A    between atoms: C4_7  and  N1_8 
REMARK    6  A    between atoms: N1_8  and  C5_11 
REMARK    7  A    between atoms: C5_11  and  C6_12 
ROOT
HETATM    1  C5  UNL     1      49.935  52.794  21.051  1.00  0.00     0.237 C 
ENDROOT
BRANCH   1   2
HETATM    2  N1  UNL     1      49.618  51.382  21.161  1.00  0.00    -0.072 N 
ATOM      3  H12 UNL     1      49.088  51.047  20.356  1.00  0.00     0.277 HD
ATOM      4  H11 UNL     1      48.921  51.204  21.885  1.00  0.00     0.277 HD
BRANCH   2   5
HETATM    5  C4  UNL     1      50.825  50.611  21.372  1.00  0.00     0.265 C 
BRANCH   5   6
HETATM    6  C3  UNL     1      51.334  50.049  20.045  1.00  0.00     0.167 C 
BRANCH   6   7
HETATM    7  C2  UNL     1      50.163  49.502  19.293  1.00  0.00     0.200 C 
BRANCH   7   8
HETATM    8  O1  UNL     1      49.841  50.304  18.185  1.00  0.00    -0.393 OA
HETATM    9  C1  UNL     1      50.981  50.935  17.702  1.00  0.00     0.201 C 
ENDBRANCH   7   8
ENDBRANCH   6   7
BRANCH   6  10
HETATM   10  O2  UNL     1      52.314  49.083  20.310  1.00  0.00    -0.392 OA
ATOM     11  H2  UNL     1      52.398  48.438  19.618  1.00  0.00     0.210 HD
ENDBRANCH   6  10
ENDBRANCH   5   6
ENDBRANCH   2   5
ENDBRANCH   1   2
BRANCH   1  12
HETATM   12  C6  UNL     1      48.714  53.560  20.697  1.00  0.00     0.020 C 
HETATM   13  C7  UNL     1      47.933  52.761  19.679  1.00  0.00     0.007 C 
HETATM   14  C8  UNL     1      48.085  53.465  18.385  1.00  0.00     0.001 C 
HETATM   15  C9  UNL     1      48.233  54.901  18.758  1.00  0.00     0.010 C 
HETATM   16  C10 UNL     1      48.964  54.932  20.113  1.00  0.00    -0.031 C 
HETATM   17  C11 UNL     1      48.283  55.998  20.916  1.00  0.00     0.036 C 
HETATM   18  C14 UNL     1      50.381  55.243  19.793  1.00  0.00     0.036 C 
HETATM   19  C12 UNL     1      49.171  56.946  21.619  1.00  0.00     0.168 C 
HETATM   20  O3  UNL     1      50.358  57.242  20.960  1.00  0.00    -0.391 OA
HETATM   21  C13 UNL     1      51.054  56.012  20.910  1.00  0.00     0.168 C 
ENDBRANCH   1  12
TORSDOF 7
ENDMDL
MODEL 4
REMARK VINA RESULT: -6.720888596      0.954      1.016
REMARK  7 active torsions:
REMARK  status: ('A' for Active; 'I' for Inactive)
REMARK    1  A    between atoms: O1_2  and  C2_3 
REMARK    2  A    between atoms: C2_3  and  C3_4 
REMARK    3  A    between atoms: C3_4  and  O2_5 
REMARK    4  A    between atoms: C3_4  and  C4_7 
REMARK    5  A    between atoms: C4_7  and  N1_8 
REMARK    6  A    between atoms: N1_8  and  C5_11 
REMARK    7  A    between atoms: C5_11  and  C6_12 
ROOT
HETATM    1  C5  UNL     1      48.371  49.318  17.343  1.00  0.00     0.237 C 
ENDROOT
BRANCH   1   2
HETATM    2  N1  UNL     1      49.534  49.115  18.188  1.00  0.00    -0.072 N 
ATOM      3  H12 UNL     1      50.277  49.781  17.978  1.00  0.00     0.277 HD
ATOM      4  H11 UNL     1      50.030  48.256  17.952  1.00  0.00     0.277 HD
BRANCH   2   5
HETATM    5  C4  UNL     1      49.153  49.152  19.584  1.00  0.00     0.265 C 
BRANCH   5   6
HETATM    6  C3  UNL     1      50.394  49.242  20.470  1.00  0.00     0.167 C 
BRANCH   6   7
HETATM    7  C2  UNL     1      50.742  50.686  20.637  1.00  0.00     0.200 C 
BRANCH   7   8
HETATM    8  O1  UNL     1      51.740  51.085  19.733  1.00  0.00    -0.393 OA
HETATM    9  C1  UNL     1      51.315  52.190  19.004  1.00  0.00     0.201 C 
ENDBRANCH   7   8
ENDBRANCH   6   7
BRANCH   6  10
HETATM   10  O2  UNL     1      51.424  48.495  19.883  1.00  0.00    -0.392 OA
ATOM     11  H2  UNL     1      51.165  48.081  19.068  1.00  0.00     0.210 HD
ENDBRANCH   6  10
ENDBRANCH   5   6
ENDBRANCH   2   5
ENDBRANCH   1   2
BRANCH   1  12
HETATM   12  C6  UNL     1      48.124  48.105  16.523  1.00  0.00     0.020 C 
HETATM   13  C7  UNL     1      48.966  48.201  15.270  1.00  0.00     0.007 C 
HETATM   14  C8  UNL     1      48.030  48.476  14.156  1.00  0.00     0.001 C 
HETATM   15  C9  UNL     1      46.760  47.810  14.563  1.00  0.00     0.010 C 
HETATM   16  C10 UNL     1      46.688  47.898  16.099  1.00  0.00    -0.031 C 
HETATM   17  C11 UNL     1      46.171  46.569  16.557  1.00  0.00     0.036 C 
HETATM   18  C14 UNL     1      45.767  49.027  16.389  1.00  0.00     0.036 C 
HETATM   19  C12 UNL     1      45.094  46.607  17.567  1.00  0.00     0.168 C 
HETATM   20  O3  UNL     1      44.216  47.678  17.454  1.00  0.00    -0.391 OA
HETATM   21  C13 UNL     1      45.015  48.821  17.687  1.00  0.00     0.168 C 
ENDBRANCH   1  12
TORSDOF 7
ENDMDL
MODEL 5
REMARK VINA RESULT: -6.692544797      1.836      3.080
REMARK  7 active torsions:
REMARK  status: ('A' for Active; 'I' for Inactive)
REMARK    1  A    between atoms: O1_2  and  C2_3 
REMARK    2  A    between atoms: C2_3  and  C3_4 
REMARK    3  A    between atoms: C3_4  and  O2_5 
REMARK    4  A    between atoms: C3_4  and  C4_7 
REMARK    5  A    between atoms: C4_7  and  N1_8 
REMARK    6  A    between atoms: N1_8  and  C5_11 
REMARK    7  A    between atoms: C5_11  and  C6_12 
ROOT
HETATM    1  C5  UNL     1      47.825  48.068  17.770  1.00  0.00     0.237 C 
ENDROOT
BRANCH   1   2
HETATM    2  N1  UNL     1      49.027  48.753  18.207  1.00  0.00    -0.072 N 
ATOM      3  H12 UNL     1      49.375  49.400  17.499  1.00  0.00     0.277 HD
ATOM      4  H11 UNL     1      49.830  48.125  18.245  1.00  0.00     0.277 HD
BRANCH   2   5
HETATM    5  C4  UNL     1      48.798  49.412  19.475  1.00  0.00     0.265 C 
BRANCH   5   6
HETATM    6  C3  UNL     1      49.961  49.146  20.430  1.00  0.00     0.167 C 
BRANCH   6   7
HETATM    7  C2  UNL     1      51.233  49.464  19.712  1.00  0.00     0.200 C 
BRANCH   7   8
HETATM    8  O1  UNL     1      51.820  50.643  20.200  1.00  0.00    -0.393 OA
HETATM    9  C1  UNL     1      51.339  51.745  19.502  1.00  0.00     0.201 C 
ENDBRANCH   7   8
ENDBRANCH   6   7
BRANCH   6  10
HETATM   10  O2  UNL     1      49.894  47.815  20.863  1.00  0.00    -0.392 OA
ATOM     11  H2  UNL     1      49.424  47.713  21.682  1.00  0.00     0.210 HD
ENDBRANCH   6  10
ENDBRANCH   5   6
ENDBRANCH   2   5
ENDBRANCH   1   2
BRANCH   1  12
HETATM   12  C6  UNL     1      46.625  48.776  18.283  1.00  0.00     0.020 C 
HETATM   13  C7  UNL     1      45.794  47.790  19.071  1.00  0.00     0.007 C 
HETATM   14  C8  UNL     1      44.595  47.500  18.251  1.00  0.00     0.001 C 
HETATM   15  C9  UNL     1      44.355  48.756  17.486  1.00  0.00     0.010 C 
HETATM   16  C10 UNL     1      45.736  49.383  17.222  1.00  0.00    -0.031 C 
HETATM   17  C11 UNL     1      45.560  50.856  17.436  1.00  0.00     0.036 C 
HETATM   18  C14 UNL     1      46.075  49.024  15.821  1.00  0.00     0.036 C 
HETATM   19  C12 UNL     1      46.144  51.735  16.403  1.00  0.00     0.168 C 
HETATM   20  O3  UNL     1      46.116  51.226  15.111  1.00  0.00    -0.391 OA
HETATM   21  C13 UNL     1      46.939  50.077  15.162  1.00  0.00     0.168 C 
ENDBRANCH   1  12
TORSDOF 7
ENDMDL
