MODEL 1
REMARK VINA RESULT: -6.520565973      0.000      0.000
REMARK  7 active torsions:
REMARK  status: ('A' for Active; 'I' for Inactive)
REMARK    1  A    between atoms: O1_2  and  C2_3 
REMARK    2  A    between atoms: C2_3  and  C3_4 
REMARK    3  A    between atoms: C3_4  and  C4_5 
REMARK    4  A    between atoms: C4_5  and  C5_6 
REMARK    5  A    between atoms: C5_6  and  O2_7 
REMARK    6  A    between atoms: N1_11  and  C8_12 
REMARK    7  A    between atoms: C8_12  and  C9_13 
ROOT
HETATM    1  C5  UNL     1      50.835  50.459  20.465  1.00  0.00     0.064 C 
HETATM    2  C6  UNL     1      50.390  50.857  21.838  1.00  0.00     0.058 C 
HETATM    3  C7  UNL     1      49.456  52.070  21.729  1.00  0.00     0.130 C 
HETATM    4  N1  UNL     1      50.212  53.138  21.223  1.00  0.00    -0.371 N 
HETATM    5  C13 UNL     1      50.928  52.937  20.026  1.00  0.00     0.066 C 
HETATM    6  C14 UNL     1      50.829  51.553  19.451  1.00  0.00     0.082 C 
ENDROOT
BRANCH   1   7
HETATM    7  C4  UNL     1      49.829  49.411  19.964  1.00  0.00     0.040 C 
BRANCH   7   8
HETATM    8  C3  UNL     1      49.430  49.827  18.579  1.00  0.00     0.029 C 
BRANCH   8   9
HETATM    9  C2  UNL     1      48.168  49.169  18.110  1.00  0.00     0.167 C 
BRANCH   9  10
HETATM   10  O1  UNL     1      48.352  48.444  16.952  1.00  0.00    -0.396 OA
HETATM   11  C1  UNL     1      47.612  47.290  16.851  1.00  0.00     0.201 C 
ENDBRANCH   9  10
ENDBRANCH   8   9
ENDBRANCH   7   8
ENDBRANCH   1   7
BRANCH   1  12
HETATM   12  O2  UNL     1      52.091  49.858  20.596  1.00  0.00    -0.389 OA
ATOM     13  H2  UNL     1      52.192  49.204  19.915  1.00  0.00     0.210 HD
ENDBRANCH   1  12
BRANCH   4  14
HETATM   14  C8  UNL     1      50.100  54.427  21.735  1.00  0.00     0.095 C 
BRANCH  14  15
HETATM   15  C9  UNL     1      49.198  55.306  20.920  1.00  0.00     0.160 C 
HETATM   16  C10 UNL     1      48.928  56.651  21.560  1.00  0.00     0.039 C 
HETATM   17  C11 UNL     1      47.516  56.969  21.137  1.00  0.00     0.029 C 
HETATM   18  C12 UNL     1      47.161  55.832  20.209  1.00  0.00     0.168 C 
HETATM   19  O3  UNL     1      47.995  54.773  20.554  1.00  0.00    -0.381 OA
ENDBRANCH  14  15
ENDBRANCH   4  14
TORSDOF 7
ENDMDL
MODEL 2
REMARK VINA RESULT: -6.473732102      1.027      1.284
REMARK  7 active torsions:
REMARK  status: ('A' for Active; 'I' for Inactive)
REMARK    1  A    between atoms: O1_2  and  C2_3 
REMARK    2  A    between atoms: C2_3  and  C3_4 
REMARK    3  A    between atoms: C3_4  and  C4_5 
REMARK    4  A    between atoms: C4_5  and  C5_6 
REMARK    5  A    between atoms: C5_6  and  O2_7 
REMARK    6  A    between atoms: N1_11  and  C8_12 
REMARK    7  A    between atoms: C8_12  and  C9_13 
ROOT
HETATM    1  C5  UNL     1      50.544  50.697  20.756  1.00  0.00     0.064 C 
HETATM    2  C6  UNL     1      50.001  51.704  21.721  1.00  0.00     0.058 C 
HETATM    3  C7  UNL     1      49.226  52.777  20.944  1.00  0.00     0.130 C 
HETATM    4  N1  UNL     1      50.148  53.453  20.130  1.00  0.00    -0.371 N 
HETATM    5  C13 UNL     1      50.961  52.688  19.271  1.00  0.00     0.066 C 
HETATM    6  C14 UNL     1      50.770  51.202  19.370  1.00  0.00     0.082 C 
ENDROOT
BRANCH   1   7
HETATM    7  C4  UNL     1      49.486  49.588  20.636  1.00  0.00     0.040 C 
BRANCH   7   8
HETATM    8  C3  UNL     1      49.239  49.388  19.171  1.00  0.00     0.029 C 
BRANCH   8   9
HETATM    9  C2  UNL     1      47.991  48.608  18.887  1.00  0.00     0.167 C 
BRANCH   9  10
HETATM   10  O1  UNL     1      47.962  48.112  17.602  1.00  0.00    -0.396 OA
HETATM   11  C1  UNL     1      47.235  46.958  17.427  1.00  0.00     0.201 C 
ENDBRANCH   9  10
ENDBRANCH   8   9
ENDBRANCH   7   8
ENDBRANCH   1   7
BRANCH   1  12
HETATM   12  O2  UNL     1      51.702  50.161  21.326  1.00  0.00    -0.389 OA
ATOM     13  H2  UNL     1      52.441  50.713  21.101  1.00  0.00     0.210 HD
ENDBRANCH   1  12
BRANCH   4  14
HETATM   14  C8  UNL     1      50.127  54.837  19.986  1.00  0.00     0.095 C 
BRANCH  14  15
HETATM   15  C9  UNL     1      49.180  55.512  20.934  1.00  0.00     0.160 C 
HETATM   16  C10 UNL     1      47.817  55.782  20.333  1.00  0.00     0.039 C 
HETATM   17  C11 UNL     1      47.388  57.070  20.991  1.00  0.00     0.029 C 
HETATM   18  C12 UNL     1      48.494  57.346  21.980  1.00  0.00     0.168 C 
HETATM   19  O3  UNL     1      49.616  56.671  21.510  1.00  0.00    -0.381 OA
ENDBRANCH  14  15
ENDBRANCH   4  14
TORSDOF 7
ENDMDL
MODEL 3
REMARK VINA RESULT: -6.471598153      1.909      2.328
REMARK  7 active torsions:
REMARK  status: ('A' for Active; 'I' for Inactive)
REMARK    1  A    between atoms: O1_2  and  C2_3 
REMARK    2  A    between atoms: C2_3  and  C3_4 
REMARK    3  A    between atoms: C3_4  and  C4_5 
REMARK    4  A    between atoms: C4_5  and  C5_6 
REMARK    5  A    between atoms: C5_6  and  O2_7 
REMARK    6  A    between atoms: N1_11  and  C8_12 
REMARK    7  A    between atoms: C8_12  and  C9_13 
ROOT
HETATM    1  C5  UNL     1      50.637  50.762  20.703  1.00  0.00     0.064 C 
HETATM    2  C6  UNL     1      50.147  51.920  21.515  1.00  0.00     0.058 C 
HETATM    3  C7  UNL     1      49.499  52.950  20.580  1.00  0.00     0.130 C 
HETATM    4  N1  UNL     1      50.507  53.444  19.738  1.00  0.00    -0.371 N 
HETATM    5  C13 UNL     1      51.284  52.517  19.016  1.00  0.00     0.066 C 
HETATM    6  C14 UNL     1      50.960  51.074  19.280  1.00  0.00     0.082 C 
ENDROOT
BRANCH   1   7
HETATM    7  C4  UNL     1      49.493  49.737  20.663  1.00  0.00     0.040 C 
BRANCH   7   8
HETATM    8  C3  UNL     1      49.249  49.422  19.217  1.00  0.00     0.029 C 
BRANCH   8   9
HETATM    9  C2  UNL     1      48.004  48.620  18.993  1.00  0.00     0.167 C 
BRANCH   9  10
HETATM   10  O1  UNL     1      47.949  48.076  17.728  1.00  0.00    -0.396 OA
HETATM   11  C1  UNL     1      48.405  48.885  16.714  1.00  0.00     0.201 C 
ENDBRANCH   9  10
ENDBRANCH   8   9
ENDBRANCH   7   8
ENDBRANCH   1   7
BRANCH   1  12
HETATM   12  O2  UNL     1      51.722  50.206  21.388  1.00  0.00    -0.389 OA
ATOM     13  H2  UNL     1      52.523  50.608  21.075  1.00  0.00     0.210 HD
ENDBRANCH   1  12
BRANCH   4  14
HETATM   14  C8  UNL     1      50.613  54.797  19.431  1.00  0.00     0.095 C 
BRANCH  14  15
HETATM   15  C9  UNL     1      51.101  55.624  20.584  1.00  0.00     0.160 C 
HETATM   16  C10 UNL     1      50.387  56.952  20.719  1.00  0.00     0.039 C 
HETATM   17  C11 UNL     1      51.453  57.876  21.251  1.00  0.00     0.029 C 
HETATM   18  C12 UNL     1      52.633  56.963  21.473  1.00  0.00     0.168 C 
HETATM   19  O3  UNL     1      52.444  55.870  20.633  1.00  0.00    -0.381 OA
ENDBRANCH  14  15
ENDBRANCH   4  14
TORSDOF 7
ENDMDL
MODEL 4
REMARK VINA RESULT: -6.382046448      2.290      6.559
REMARK  7 active torsions:
REMARK  status: ('A' for Active; 'I' for Inactive)
REMARK    1  A    between atoms: O1_2  and  C2_3 
REMARK    2  A    between atoms: C2_3  and  C3_4 
REMARK    3  A    between atoms: C3_4  and  C4_5 
REMARK    4  A    between atoms: C4_5  and  C5_6 
REMARK    5  A    between atoms: C5_6  and  O2_7 
REMARK    6  A    between atoms: N1_11  and  C8_12 
REMARK    7  A    between atoms: C8_12  and  C9_13 
ROOT
HETATM    1  C5  UNL     1      50.694  49.562  19.853  1.00  0.00     0.064 C 
HETATM    2  C6  UNL     1      50.967  50.381  18.630  1.00  0.00     0.058 C 
HETATM    3  C7  UNL     1      49.668  51.069  18.189  1.00  0.00     0.130 C 
HETATM    4  N1  UNL     1      48.768  50.063  17.810  1.00  0.00    -0.371 N 
HETATM    5  C13 UNL     1      48.508  49.024  18.726  1.00  0.00     0.066 C 
HETATM    6  C14 UNL     1      49.284  49.099  20.009  1.00  0.00     0.082 C 
ENDROOT
BRANCH   1   7
HETATM    7  C4  UNL     1      50.978  50.469  21.062  1.00  0.00     0.040 C 
BRANCH   7   8
HETATM    8  C3  UNL     1      49.657  50.732  21.721  1.00  0.00     0.029 C 
BRANCH   8   9
HETATM    9  C2  UNL     1      49.444  52.177  22.055  1.00  0.00     0.167 C 
BRANCH   9  10
HETATM   10  O1  UNL     1      50.548  52.951  21.770  1.00  0.00    -0.396 OA
HETATM   11  C1  UNL     1      50.281  54.221  21.317  1.00  0.00     0.201 C 
ENDBRANCH   9  10
ENDBRANCH   8   9
ENDBRANCH   7   8
ENDBRANCH   1   7
BRANCH   1  12
HETATM   12  O2  UNL     1      51.608  48.504  19.855  1.00  0.00    -0.389 OA
ATOM     13  H2  UNL     1      51.439  47.950  19.103  1.00  0.00     0.210 HD
ENDBRANCH   1  12
BRANCH   4  14
HETATM   14  C8  UNL     1      47.972  50.176  16.673  1.00  0.00     0.095 C 
BRANCH  14  15
HETATM   15  C9  UNL     1      47.867  48.894  15.901  1.00  0.00     0.160 C 
HETATM   16  C10 UNL     1      48.746  48.859  14.669  1.00  0.00     0.039 C 
HETATM   17  C11 UNL     1      47.951  48.033  13.689  1.00  0.00     0.029 C 
HETATM   18  C12 UNL     1      46.754  47.587  14.492  1.00  0.00     0.168 C 
HETATM   19  O3  UNL     1      46.611  48.509  15.525  1.00  0.00    -0.381 OA
ENDBRANCH  14  15
ENDBRANCH   4  14
TORSDOF 7
ENDMDL
MODEL 5
REMARK VINA RESULT: -6.372455329      2.088      6.725
REMARK  7 active torsions:
REMARK  status: ('A' for Active; 'I' for Inactive)
REMARK    1  A    between atoms: O1_2  and  C2_3 
REMARK    2  A    between atoms: C2_3  and  C3_4 
REMARK    3  A    between atoms: C3_4  and  C4_5 
REMARK    4  A    between atoms: C4_5  and  C5_6 
REMARK    5  A    between atoms: C5_6  and  O2_7 
REMARK    6  A    between atoms: N1_11  and  C8_12 
REMARK    7  A    between atoms: C8_12  and  C9_13 
ROOT
HETATM    1  C5  UNL     1      50.800  50.302  20.240  1.00  0.00     0.064 C 
HETATM    2  C6  UNL     1      50.644  50.182  18.757  1.00  0.00     0.058 C 
HETATM    3  C7  UNL     1      49.150  50.090  18.416  1.00  0.00     0.130 C 
HETATM    4  N1  UNL     1      48.666  48.897  18.971  1.00  0.00    -0.371 N 
HETATM    5  C13 UNL     1      48.891  48.662  20.342  1.00  0.00     0.066 C 
HETATM    6  C14 UNL     1      49.685  49.724  21.047  1.00  0.00     0.082 C 
ENDROOT
BRANCH   1   7
HETATM    7  C4  UNL     1      50.820  51.805  20.561  1.00  0.00     0.040 C 
BRANCH   7   8
HETATM    8  C3  UNL     1      49.873  52.013  21.705  1.00  0.00     0.029 C 
BRANCH   8   9
HETATM    9  C2  UNL     1      50.147  53.269  22.474  1.00  0.00     0.167 C 
BRANCH   9  10
HETATM   10  O1  UNL     1      50.644  54.277  21.676  1.00  0.00    -0.396 OA
HETATM   11  C1  UNL     1      50.406  55.556  22.118  1.00  0.00     0.201 C 
ENDBRANCH   9  10
ENDBRANCH   8   9
ENDBRANCH   7   8
ENDBRANCH   1   7
BRANCH   1  12
HETATM   12  O2  UNL     1      52.041  49.750  20.572  1.00  0.00    -0.389 OA
ATOM     13  H2  UNL     1      52.055  49.557  21.502  1.00  0.00     0.210 HD
ENDBRANCH   1  12
BRANCH   4  14
HETATM   14  C8  UNL     1      47.796  48.061  18.277  1.00  0.00     0.095 C 
BRANCH  14  15
HETATM   15  C9  UNL     1      47.674  48.416  16.825  1.00  0.00     0.160 C 
HETATM   16  C10 UNL     1      46.254  48.715  16.394  1.00  0.00     0.039 C 
HETATM   17  C11 UNL     1      46.203  48.221  14.971  1.00  0.00     0.029 C 
HETATM   18  C12 UNL     1      47.624  47.794  14.694  1.00  0.00     0.168 C 
HETATM   19  O3  UNL     1      48.198  47.525  15.932  1.00  0.00    -0.381 OA
ENDBRANCH  14  15
ENDBRANCH   4  14
TORSDOF 7
ENDMDL
