MODEL 1
REMARK VINA RESULT: -8.606683645      0.000      0.000
REMARK  15 active torsions:
REMARK  status: ('A' for Active; 'I' for Inactive)
REMARK    1  A    between atoms: C2_2  and  C3_3 
REMARK    2  A    between atoms: C3_3  and  C5_5 
REMARK    3  A    between atoms: C3_3  and  C7_7 
REMARK    4  A    between atoms: C10_10  and  O1_11 
REMARK    5  A    between atoms: O1_11  and  C11_12 
REMARK    6  A    between atoms: C11_12  and  C12_13 
REMARK    7  A    between atoms: C12_13  and  C13_14 
REMARK    8  A    between atoms: C13_14  and  O2_15 
REMARK    9  A    between atoms: O2_15  and  C14_16 
REMARK   10  A    between atoms: C18_20  and  O3_21 
REMARK   11  A    between atoms: O3_21  and  C19_22 
REMARK   12  A    between atoms: C21_25  and  O5_26 
REMARK   13  A    between atoms: C22_28  and  O6_29 
REMARK   14  A    between atoms: C23_31  and  O7_32 
REMARK   15  A    between atoms: C24_34  and  C25_35 
ROOT
HETATM    1  C13 UNL     1      46.761  51.774  16.984  1.00  0.00     0.170 C 
ENDROOT
BRANCH   1   2
HETATM    2  C12 UNL     1      47.670  52.168  18.158  1.00  0.00     0.053 C 
BRANCH   2   3
HETATM    3  C11 UNL     1      48.955  52.748  17.681  1.00  0.00     0.178 C 
BRANCH   3   4
HETATM    4  O1  UNL     1      49.211  54.065  17.950  1.00  0.00    -0.350 OA
BRANCH   4   5
HETATM    5  C10 UNL     1      48.411  55.169  17.917  1.00  0.00     0.075 A 
HETATM    6  C9  UNL     1      47.587  55.538  16.888  1.00  0.00     0.038 A 
HETATM    7  C8  UNL     1      46.797  56.667  16.911  1.00  0.00     0.011 A 
HETATM    8  C7  UNL     1      46.816  57.489  18.015  1.00  0.00    -0.042 A 
HETATM    9  C29 UNL     1      47.644  57.128  19.063  1.00  0.00     0.019 A 
HETATM   10  C24 UNL     1      48.432  56.001  19.040  1.00  0.00    -0.017 A 
BRANCH   8  11
HETATM   11  C3  UNL     1      45.982  58.717  18.089  1.00  0.00     0.017 C 
HETATM   12  C4  UNL     1      45.412  59.001  16.716  1.00  0.00     0.029 C 
BRANCH  11  13
HETATM   13  C2  UNL     1      46.807  59.878  18.512  1.00  0.00    -0.019 C 
HETATM   14  C1  UNL     1      46.468  61.114  18.172  1.00  0.00     0.008 C 
ENDBRANCH  11  13
BRANCH  11  15
HETATM   15  C5  UNL     1      44.850  58.576  19.018  1.00  0.00    -0.019 C 
HETATM   16  C6  UNL     1      43.593  58.879  18.683  1.00  0.00     0.008 C 
ENDBRANCH  11  15
ENDBRANCH   8  11
BRANCH  10  17
HETATM   17  C25 UNL     1      49.309  55.642  20.178  1.00  0.00    -0.021 C 
HETATM   18  C26 UNL     1      50.760  55.557  19.765  1.00  0.00     0.019 C 
HETATM   19  C27 UNL     1      49.191  56.719  21.234  1.00  0.00     0.019 C 
HETATM   20  C28 UNL     1      48.872  54.352  20.841  1.00  0.00     0.019 C 
ENDBRANCH  10  17
ENDBRANCH   4   5
ENDBRANCH   3   4
ENDBRANCH   2   3
ENDBRANCH   1   2
BRANCH   1  21
HETATM   21  O2  UNL     1      46.244  50.525  17.309  1.00  0.00    -0.379 OA
BRANCH  21  22
HETATM   22  C14 UNL     1      47.226  49.543  17.400  1.00  0.00     0.184 C 
HETATM   23  C15 UNL     1      46.895  48.744  18.630  1.00  0.00    -0.021 C 
HETATM   24  C16 UNL     1      47.783  48.534  19.593  1.00  0.00    -0.023 C 
HETATM   25  C18 UNL     1      45.511  48.202  18.704  1.00  0.00     0.194 C 
HETATM   26  C17 UNL     1      49.160  49.048  19.566  1.00  0.00     0.036 C 
HETATM   27  C21 UNL     1      45.067  47.794  17.311  1.00  0.00     0.183 C 
HETATM   28  C22 UNL     1      46.259  47.425  16.456  1.00  0.00     0.181 C 
HETATM   29  C23 UNL     1      47.194  48.575  16.246  1.00  0.00     0.182 C 
BRANCH  25  30
HETATM   30  O3  UNL     1      45.440  47.040  19.517  1.00  0.00    -0.309 OA
BRANCH  30  31
HETATM   31  C19 UNL     1      44.687  47.001  20.666  1.00  0.00     0.255 C 
HETATM   32  C20 UNL     1      45.240  47.113  22.038  1.00  0.00     0.126 C 
HETATM   33  O4  UNL     1      43.442  46.863  20.547  1.00  0.00    -0.266 OA
ENDBRANCH  30  31
ENDBRANCH  25  30
BRANCH  27  34
HETATM   34  O5  UNL     1      44.255  46.665  17.402  1.00  0.00    -0.390 OA
ATOM     35  H5  UNL     1      43.358  46.938  17.556  1.00  0.00     0.210 HD
ENDBRANCH  27  34
BRANCH  28  36
HETATM   36  O6  UNL     1      45.776  46.901  15.269  1.00  0.00    -0.390 OA
ATOM     37  H6  UNL     1      46.246  47.320  14.558  1.00  0.00     0.210 HD
ENDBRANCH  28  36
BRANCH  29  38
HETATM   38  O7  UNL     1      46.975  49.212  15.027  1.00  0.00    -0.390 OA
ATOM     39  H7  UNL     1      47.712  49.751  14.764  1.00  0.00     0.210 HD
ENDBRANCH  29  38
ENDBRANCH  21  22
ENDBRANCH   1  21
TORSDOF 15
ENDMDL
MODEL 2
REMARK VINA RESULT: -8.308351308      2.420      4.333
REMARK  15 active torsions:
REMARK  status: ('A' for Active; 'I' for Inactive)
REMARK    1  A    between atoms: C2_2  and  C3_3 
REMARK    2  A    between atoms: C3_3  and  C5_5 
REMARK    3  A    between atoms: C3_3  and  C7_7 
REMARK    4  A    between atoms: C10_10  and  O1_11 
REMARK    5  A    between atoms: O1_11  and  C11_12 
REMARK    6  A    between atoms: C11_12  and  C12_13 
REMARK    7  A    between atoms: C12_13  and  C13_14 
REMARK    8  A    between atoms: C13_14  and  O2_15 
REMARK    9  A    between atoms: O2_15  and  C14_16 
REMARK   10  A    between atoms: C18_20  and  O3_21 
REMARK   11  A    between atoms: O3_21  and  C19_22 
REMARK   12  A    between atoms: C21_25  and  O5_26 
REMARK   13  A    between atoms: C22_28  and  O6_29 
REMARK   14  A    between atoms: C23_31  and  O7_32 
REMARK   15  A    between atoms: C24_34  and  C25_35 
ROOT
HETATM    1  C13 UNL     1      49.571  53.448  19.919  1.00  0.00     0.170 C 
ENDROOT
BRANCH   1   2
HETATM    2  C12 UNL     1      48.375  54.362  19.615  1.00  0.00     0.053 C 
BRANCH   2   3
HETATM    3  C11 UNL     1      48.820  55.716  19.182  1.00  0.00     0.178 C 
BRANCH   3   4
HETATM    4  O1  UNL     1      47.871  56.600  18.744  1.00  0.00    -0.350 OA
BRANCH   4   5
HETATM    5  C10 UNL     1      47.265  56.752  17.532  1.00  0.00     0.075 A 
HETATM    6  C9  UNL     1      47.519  56.017  16.405  1.00  0.00     0.038 A 
HETATM    7  C8  UNL     1      46.872  56.214  15.204  1.00  0.00     0.011 A 
HETATM    8  C7  UNL     1      45.912  57.196  15.102  1.00  0.00    -0.042 A 
HETATM    9  C29 UNL     1      45.645  57.945  16.233  1.00  0.00     0.019 A 
HETATM   10  C24 UNL     1      46.290  57.749  17.431  1.00  0.00    -0.017 A 
BRANCH   8  11
HETATM   11  C3  UNL     1      45.186  57.448  13.829  1.00  0.00     0.017 C 
HETATM   12  C4  UNL     1      46.080  57.055  12.673  1.00  0.00     0.029 C 
BRANCH  11  13
HETATM   13  C2  UNL     1      44.848  58.889  13.702  1.00  0.00    -0.019 C 
HETATM   14  C1  UNL     1      44.217  59.349  12.630  1.00  0.00     0.008 C 
ENDBRANCH  11  13
BRANCH  11  15
HETATM   15  C5  UNL     1      43.949  56.659  13.720  1.00  0.00    -0.019 C 
HETATM   16  C6  UNL     1      43.868  55.528  13.014  1.00  0.00     0.008 C 
ENDBRANCH  11  15
ENDBRANCH   8  11
BRANCH  10  17
HETATM   17  C25 UNL     1      45.982  58.569  18.626  1.00  0.00    -0.021 C 
HETATM   18  C26 UNL     1      47.078  59.565  18.922  1.00  0.00     0.019 C 
HETATM   19  C27 UNL     1      44.710  59.345  18.359  1.00  0.00     0.019 C 
HETATM   20  C28 UNL     1      45.705  57.710  19.842  1.00  0.00     0.019 C 
ENDBRANCH  10  17
ENDBRANCH   4   5
ENDBRANCH   3   4
ENDBRANCH   2   3
ENDBRANCH   1   2
BRANCH   1  21
HETATM   21  O2  UNL     1      49.743  52.661  18.787  1.00  0.00    -0.379 OA
BRANCH  21  22
HETATM   22  C14 UNL     1      50.470  51.502  19.041  1.00  0.00     0.184 C 
HETATM   23  C15 UNL     1      49.451  50.428  19.306  1.00  0.00    -0.021 C 
HETATM   24  C16 UNL     1      49.483  49.682  20.403  1.00  0.00    -0.023 C 
HETATM   25  C18 UNL     1      48.405  50.249  18.263  1.00  0.00     0.194 C 
HETATM   26  C17 UNL     1      50.495  49.822  21.460  1.00  0.00     0.036 C 
HETATM   27  C21 UNL     1      49.026  50.479  16.898  1.00  0.00     0.183 C 
HETATM   28  C22 UNL     1      50.504  50.155  16.920  1.00  0.00     0.181 C 
HETATM   29  C23 UNL     1      51.271  51.041  17.852  1.00  0.00     0.182 C 
BRANCH  25  30
HETATM   30  O3  UNL     1      47.879  48.930  18.261  1.00  0.00    -0.309 OA
BRANCH  30  31
HETATM   31  C19 UNL     1      46.538  48.682  18.433  1.00  0.00     0.255 C 
HETATM   32  C20 UNL     1      45.955  47.983  19.604  1.00  0.00     0.126 C 
HETATM   33  O4  UNL     1      45.749  49.076  17.535  1.00  0.00    -0.266 OA
ENDBRANCH  30  31
ENDBRANCH  25  30
BRANCH  27  34
HETATM   34  O5  UNL     1      48.428  49.624  15.974  1.00  0.00    -0.390 OA
ATOM     35  H5  UNL     1      48.537  49.983  15.100  1.00  0.00     0.210 HD
ENDBRANCH  27  34
BRANCH  28  36
HETATM   36  O6  UNL     1      50.966  50.217  15.617  1.00  0.00    -0.390 OA
ATOM     37  H6  UNL     1      51.697  49.615  15.542  1.00  0.00     0.210 HD
ENDBRANCH  28  36
BRANCH  29  38
HETATM   38  O7  UNL     1      51.883  52.099  17.184  1.00  0.00    -0.390 OA
ATOM     39  H7  UNL     1      52.661  52.408  17.634  1.00  0.00     0.210 HD
ENDBRANCH  29  38
ENDBRANCH  21  22
ENDBRANCH   1  21
TORSDOF 15
ENDMDL
MODEL 3
REMARK VINA RESULT: -8.211998318      1.552      2.287
REMARK  15 active torsions:
REMARK  status: ('A' for Active; 'I' for Inactive)
REMARK    1  A    between atoms: C2_2  and  C3_3 
REMARK    2  A    between atoms: C3_3  and  C5_5 
REMARK    3  A    between atoms: C3_3  and  C7_7 
REMARK    4  A    between atoms: C10_10  and  O1_11 
REMARK    5  A    between atoms: O1_11  and  C11_12 
REMARK    6  A    between atoms: C11_12  and  C12_13 
REMARK    7  A    between atoms: C12_13  and  C13_14 
REMARK    8  A    between atoms: C13_14  and  O2_15 
REMARK    9  A    between atoms: O2_15  and  C14_16 
REMARK   10  A    between atoms: C18_20  and  O3_21 
REMARK   11  A    between atoms: O3_21  and  C19_22 
REMARK   12  A    between atoms: C21_25  and  O5_26 
REMARK   13  A    between atoms: C22_28  and  O6_29 
REMARK   14  A    between atoms: C23_31  and  O7_32 
REMARK   15  A    between atoms: C24_34  and  C25_35 
ROOT
HETATM    1  C13 UNL     1      48.923  52.503  19.734  1.00  0.00     0.170 C 
ENDROOT
BRANCH   1   2
HETATM    2  C12 UNL     1      50.438  52.750  19.800  1.00  0.00     0.053 C 
BRANCH   2   3
HETATM    3  C11 UNL     1      50.836  53.920  18.970  1.00  0.00     0.178 C 
BRANCH   3   4
HETATM    4  O1  UNL     1      50.463  55.168  19.388  1.00  0.00    -0.350 OA
BRANCH   4   5
HETATM    5  C10 UNL     1      49.377  55.937  19.091  1.00  0.00     0.075 A 
HETATM    6  C9  UNL     1      48.589  55.824  17.976  1.00  0.00     0.038 A 
HETATM    7  C8  UNL     1      47.500  56.630  17.727  1.00  0.00     0.011 A 
HETATM    8  C7  UNL     1      47.158  57.612  18.631  1.00  0.00    -0.042 A 
HETATM    9  C29 UNL     1      47.945  57.737  19.761  1.00  0.00     0.019 A 
HETATM   10  C24 UNL     1      49.032  56.933  20.009  1.00  0.00    -0.017 A 
BRANCH   8  11
HETATM   11  C3  UNL     1      45.992  58.506  18.408  1.00  0.00     0.017 C 
HETATM   12  C4  UNL     1      45.537  58.364  16.972  1.00  0.00     0.029 C 
BRANCH  11  13
HETATM   13  C2  UNL     1      46.372  59.922  18.650  1.00  0.00    -0.019 C 
HETATM   14  C1  UNL     1      46.106  60.861  17.752  1.00  0.00     0.008 C 
ENDBRANCH  11  13
BRANCH  11  15
HETATM   15  C5  UNL     1      44.849  58.167  19.270  1.00  0.00    -0.019 C 
HETATM   16  C6  UNL     1      43.631  58.685  19.099  1.00  0.00     0.008 C 
ENDBRANCH  11  15
ENDBRANCH   8  11
BRANCH  10  17
HETATM   17  C25 UNL     1      49.856  57.092  21.231  1.00  0.00    -0.021 C 
HETATM   18  C26 UNL     1      51.201  57.710  20.925  1.00  0.00     0.019 C 
HETATM   19  C27 UNL     1      49.129  58.016  22.183  1.00  0.00     0.019 C 
HETATM   20  C28 UNL     1      50.031  55.780  21.967  1.00  0.00     0.019 C 
ENDBRANCH  10  17
ENDBRANCH   4   5
ENDBRANCH   3   4
ENDBRANCH   2   3
ENDBRANCH   1   2
BRANCH   1  21
HETATM   21  O2  UNL     1      48.726  51.648  18.657  1.00  0.00    -0.379 OA
BRANCH  21  22
HETATM   22  C14 UNL     1      49.432  50.456  18.779  1.00  0.00     0.184 C 
HETATM   23  C15 UNL     1      48.434  49.432  19.244  1.00  0.00    -0.021 C 
HETATM   24  C16 UNL     1      48.640  48.687  20.323  1.00  0.00    -0.023 C 
HETATM   25  C18 UNL     1      47.199  49.304  18.424  1.00  0.00     0.194 C 
HETATM   26  C17 UNL     1      49.842  48.778  21.164  1.00  0.00     0.036 C 
HETATM   27  C21 UNL     1      47.557  49.502  16.963  1.00  0.00     0.183 C 
HETATM   28  C22 UNL     1      48.994  49.107  16.704  1.00  0.00     0.181 C 
HETATM   29  C23 UNL     1      49.967  49.956  17.462  1.00  0.00     0.182 C 
BRANCH  25  30
HETATM   30  O3  UNL     1      46.620  48.012  18.536  1.00  0.00    -0.309 OA
BRANCH  30  31
HETATM   31  C19 UNL     1      45.324  47.830  18.957  1.00  0.00     0.255 C 
HETATM   32  C20 UNL     1      44.939  47.254  20.268  1.00  0.00     0.126 C 
HETATM   33  O4  UNL     1      44.400  48.177  18.177  1.00  0.00    -0.266 OA
ENDBRANCH  30  31
ENDBRANCH  25  30
BRANCH  27  34
HETATM   34  O5  UNL     1      46.752  48.677  16.179  1.00  0.00    -0.390 OA
ATOM     35  H5  UNL     1      46.411  47.972  16.717  1.00  0.00     0.210 HD
ENDBRANCH  27  34
BRANCH  28  36
HETATM   36  O6  UNL     1      49.199  49.146  15.336  1.00  0.00    -0.390 OA
ATOM     37  H6  UNL     1      49.220  48.249  15.024  1.00  0.00     0.210 HD
ENDBRANCH  28  36
BRANCH  29  38
HETATM   38  O7  UNL     1      50.489  50.982  16.679  1.00  0.00    -0.390 OA
ATOM     39  H7  UNL     1      50.595  51.790  17.167  1.00  0.00     0.210 HD
ENDBRANCH  29  38
ENDBRANCH  21  22
ENDBRANCH   1  21
TORSDOF 15
ENDMDL
MODEL 4
REMARK VINA RESULT: -8.158518305      1.290      1.993
REMARK  15 active torsions:
REMARK  status: ('A' for Active; 'I' for Inactive)
REMARK    1  A    between atoms: C2_2  and  C3_3 
REMARK    2  A    between atoms: C3_3  and  C5_5 
REMARK    3  A    between atoms: C3_3  and  C7_7 
REMARK    4  A    between atoms: C10_10  and  O1_11 
REMARK    5  A    between atoms: O1_11  and  C11_12 
REMARK    6  A    between atoms: C11_12  and  C12_13 
REMARK    7  A    between atoms: C12_13  and  C13_14 
REMARK    8  A    between atoms: C13_14  and  O2_15 
REMARK    9  A    between atoms: O2_15  and  C14_16 
REMARK   10  A    between atoms: C18_20  and  O3_21 
REMARK   11  A    between atoms: O3_21  and  C19_22 
REMARK   12  A    between atoms: C21_25  and  O5_26 
REMARK   13  A    between atoms: C22_28  and  O6_29 
REMARK   14  A    between atoms: C23_31  and  O7_32 
REMARK   15  A    between atoms: C24_34  and  C25_35 
ROOT
HETATM    1  C13 UNL     1      46.660  51.408  17.387  1.00  0.00     0.170 C 
ENDROOT
BRANCH   1   2
HETATM    2  C12 UNL     1      47.936  51.515  16.538  1.00  0.00     0.053 C 
BRANCH   2   3
HETATM    3  C11 UNL     1      49.158  51.510  17.389  1.00  0.00     0.178 C 
BRANCH   3   4
HETATM    4  O1  UNL     1      49.710  52.713  17.737  1.00  0.00    -0.350 OA
BRANCH   4   5
HETATM    5  C10 UNL     1      49.163  53.838  18.282  1.00  0.00     0.075 A 
HETATM    6  C9  UNL     1      48.277  54.683  17.668  1.00  0.00     0.038 A 
HETATM    7  C8  UNL     1      47.754  55.807  18.269  1.00  0.00     0.011 A 
HETATM    8  C7  UNL     1      48.123  56.124  19.557  1.00  0.00    -0.042 A 
HETATM    9  C29 UNL     1      49.017  55.279  20.189  1.00  0.00     0.019 A 
HETATM   10  C24 UNL     1      49.539  54.157  19.589  1.00  0.00    -0.017 A 
BRANCH   8  11
HETATM   11  C3  UNL     1      47.587  57.325  20.249  1.00  0.00     0.017 C 
HETATM   12  C4  UNL     1      47.896  58.547  19.413  1.00  0.00     0.029 C 
BRANCH  11  13
HETATM   13  C2  UNL     1      48.228  57.484  21.581  1.00  0.00    -0.019 C 
HETATM   14  C1  UNL     1      48.717  58.656  21.965  1.00  0.00     0.008 C 
ENDBRANCH  11  13
BRANCH  11  15
HETATM   15  C5  UNL     1      46.128  57.269  20.428  1.00  0.00    -0.019 C 
HETATM   16  C6  UNL     1      45.276  57.972  19.678  1.00  0.00     0.008 C 
ENDBRANCH  11  15
ENDBRANCH   8  11
BRANCH  10  17
HETATM   17  C25 UNL     1      50.495  53.271  20.293  1.00  0.00    -0.021 C 
HETATM   18  C26 UNL     1      51.754  53.050  19.487  1.00  0.00     0.019 C 
HETATM   19  C27 UNL     1      50.891  53.931  21.596  1.00  0.00     0.019 C 
HETATM   20  C28 UNL     1      49.866  51.946  20.665  1.00  0.00     0.019 C 
ENDBRANCH  10  17
ENDBRANCH   4   5
ENDBRANCH   3   4
ENDBRANCH   2   3
ENDBRANCH   1   2
BRANCH   1  21
HETATM   21  O2  UNL     1      46.111  50.167  17.089  1.00  0.00    -0.379 OA
BRANCH  21  22
HETATM   22  C14 UNL     1      47.036  49.132  17.183  1.00  0.00     0.184 C 
HETATM   23  C15 UNL     1      46.716  48.410  18.463  1.00  0.00    -0.021 C 
HETATM   24  C16 UNL     1      47.634  48.189  19.395  1.00  0.00    -0.023 C 
HETATM   25  C18 UNL     1      45.308  47.957  18.622  1.00  0.00     0.194 C 
HETATM   26  C17 UNL     1      49.036  48.617  19.283  1.00  0.00     0.036 C 
HETATM   27  C21 UNL     1      44.777  47.516  17.271  1.00  0.00     0.183 C 
HETATM   28  C22 UNL     1      45.904  47.037  16.383  1.00  0.00     0.181 C 
HETATM   29  C23 UNL     1      46.894  48.118  16.079  1.00  0.00     0.182 C 
BRANCH  25  30
HETATM   30  O3  UNL     1      45.207  46.838  19.492  1.00  0.00    -0.309 OA
BRANCH  30  31
HETATM   31  C19 UNL     1      44.534  46.906  20.688  1.00  0.00     0.255 C 
HETATM   32  C20 UNL     1      45.180  47.116  22.006  1.00  0.00     0.126 C 
HETATM   33  O4  UNL     1      43.282  46.782  20.664  1.00  0.00    -0.266 OA
ENDBRANCH  30  31
ENDBRANCH  25  30
BRANCH  27  34
HETATM   34  O5  UNL     1      43.905  46.443  17.450  1.00  0.00    -0.390 OA
ATOM     35  H5  UNL     1      43.164  46.542  16.864  1.00  0.00     0.210 HD
ENDBRANCH  27  34
BRANCH  28  36
HETATM   36  O6  UNL     1      45.337  46.491  15.244  1.00  0.00    -0.390 OA
ATOM     37  H6  UNL     1      45.514  47.084  14.523  1.00  0.00     0.210 HD
ENDBRANCH  28  36
BRANCH  29  38
HETATM   38  O7  UNL     1      46.657  48.712  14.842  1.00  0.00    -0.390 OA
ATOM     39  H7  UNL     1      47.458  49.001  14.421  1.00  0.00     0.210 HD
ENDBRANCH  29  38
ENDBRANCH  21  22
ENDBRANCH   1  21
TORSDOF 15
ENDMDL
MODEL 5
REMARK VINA RESULT: -8.142852938      2.107      4.172
REMARK  15 active torsions:
REMARK  status: ('A' for Active; 'I' for Inactive)
REMARK    1  A    between atoms: C2_2  and  C3_3 
REMARK    2  A    between atoms: C3_3  and  C5_5 
REMARK    3  A    between atoms: C3_3  and  C7_7 
REMARK    4  A    between atoms: C10_10  and  O1_11 
REMARK    5  A    between atoms: O1_11  and  C11_12 
REMARK    6  A    between atoms: C11_12  and  C12_13 
REMARK    7  A    between atoms: C12_13  and  C13_14 
REMARK    8  A    between atoms: C13_14  and  O2_15 
REMARK    9  A    between atoms: O2_15  and  C14_16 
REMARK   10  A    between atoms: C18_20  and  O3_21 
REMARK   11  A    between atoms: O3_21  and  C19_22 
REMARK   12  A    between atoms: C21_25  and  O5_26 
REMARK   13  A    between atoms: C22_28  and  O6_29 
REMARK   14  A    between atoms: C23_31  and  O7_32 
REMARK   15  A    between atoms: C24_34  and  C25_35 
ROOT
HETATM    1  C13 UNL     1      49.895  52.889  21.749  1.00  0.00     0.170 C 
ENDROOT
BRANCH   1   2
HETATM    2  C12 UNL     1      50.855  54.087  21.792  1.00  0.00     0.053 C 
BRANCH   2   3
HETATM    3  C11 UNL     1      50.137  55.369  21.549  1.00  0.00     0.178 C 
BRANCH   3   4
HETATM    4  O1  UNL     1      48.990  55.338  20.804  1.00  0.00    -0.350 OA
BRANCH   4   5
HETATM    5  C10 UNL     1      48.237  56.335  20.257  1.00  0.00     0.075 A 
HETATM    6  C9  UNL     1      47.860  57.495  20.879  1.00  0.00     0.038 A 
HETATM    7  C8  UNL     1      47.097  58.471  20.275  1.00  0.00     0.011 A 
HETATM    8  C7  UNL     1      46.677  58.299  18.975  1.00  0.00    -0.042 A 
HETATM    9  C29 UNL     1      47.051  57.131  18.335  1.00  0.00     0.019 A 
HETATM   10  C24 UNL     1      47.812  56.158  18.938  1.00  0.00    -0.017 A 
BRANCH   8  11
HETATM   11  C3  UNL     1      45.854  59.322  18.279  1.00  0.00     0.017 C 
HETATM   12  C4  UNL     1      45.760  58.956  16.814  1.00  0.00     0.029 C 
BRANCH  11  13
HETATM   13  C2  UNL     1      46.485  60.662  18.396  1.00  0.00    -0.019 C 
HETATM   14  C1  UNL     1      45.763  61.731  18.703  1.00  0.00     0.008 C 
ENDBRANCH  11  13
BRANCH  11  15
HETATM   15  C5  UNL     1      44.482  59.396  18.805  1.00  0.00    -0.019 C 
HETATM   16  C6  UNL     1      43.438  58.830  18.195  1.00  0.00     0.008 C 
ENDBRANCH  11  15
ENDBRANCH   8  11
BRANCH  10  17
HETATM   17  C25 UNL     1      48.196  54.917  18.225  1.00  0.00    -0.021 C 
HETATM   18  C26 UNL     1      49.694  54.715  18.217  1.00  0.00     0.019 C 
HETATM   19  C27 UNL     1      47.574  53.739  18.942  1.00  0.00     0.019 C 
HETATM   20  C28 UNL     1      47.651  54.887  16.813  1.00  0.00     0.019 C 
ENDBRANCH  10  17
ENDBRANCH   4   5
ENDBRANCH   3   4
ENDBRANCH   2   3
ENDBRANCH   1   2
BRANCH   1  21
HETATM   21  O2  UNL     1      49.972  52.389  20.455  1.00  0.00    -0.379 OA
BRANCH  21  22
HETATM   22  C14 UNL     1      50.604  51.151  20.392  1.00  0.00     0.184 C 
HETATM   23  C15 UNL     1      49.551  50.174  19.947  1.00  0.00    -0.021 C 
HETATM   24  C16 UNL     1      49.287  49.064  20.625  1.00  0.00    -0.023 C 
HETATM   25  C18 UNL     1      48.820  50.526  18.700  1.00  0.00     0.194 C 
HETATM   26  C17 UNL     1      49.981  48.674  21.861  1.00  0.00     0.036 C 
HETATM   27  C21 UNL     1      49.783  51.196  17.737  1.00  0.00     0.183 C 
HETATM   28  C22 UNL     1      51.201  50.732  17.988  1.00  0.00     0.181 C 
HETATM   29  C23 UNL     1      51.693  51.101  19.353  1.00  0.00     0.182 C 
BRANCH  25  30
HETATM   30  O3  UNL     1      48.312  49.375  18.040  1.00  0.00    -0.309 OA
BRANCH  30  31
HETATM   31  C19 UNL     1      46.974  49.228  17.761  1.00  0.00     0.255 C 
HETATM   32  C20 UNL     1      46.021  48.457  18.596  1.00  0.00     0.126 C 
HETATM   33  O4  UNL     1      46.526  49.787  16.727  1.00  0.00    -0.266 OA
ENDBRANCH  30  31
ENDBRANCH  25  30
BRANCH  27  34
HETATM   34  O5  UNL     1      49.452  50.835  16.432  1.00  0.00    -0.390 OA
ATOM     35  H5  UNL     1      49.850  49.995  16.231  1.00  0.00     0.210 HD
ENDBRANCH  27  34
BRANCH  28  36
HETATM   36  O6  UNL     1      51.994  51.242  16.975  1.00  0.00    -0.390 OA
ATOM     37  H6  UNL     1      51.627  52.079  16.717  1.00  0.00     0.210 HD
ENDBRANCH  28  36
BRANCH  29  38
HETATM   38  O7  UNL     1      52.462  52.262  19.337  1.00  0.00    -0.390 OA
ATOM     39  H7  UNL     1      52.242  52.829  18.607  1.00  0.00     0.210 HD
ENDBRANCH  29  38
ENDBRANCH  21  22
ENDBRANCH   1  21
TORSDOF 15
ENDMDL
