MODEL 1
REMARK VINA RESULT: -7.393613661      0.000      0.000
REMARK  13 active torsions:
REMARK  status: ('A' for Active; 'I' for Inactive)
REMARK    1  A    between atoms: C12_18  and  C13_19 
REMARK    2  A    between atoms: C13_19  and  C14_20 
REMARK       I    between atoms: C14_20  and  N3_22 
REMARK    3  A    between atoms: N3_22  and  C15_24 
REMARK    4  A    between atoms: C15_24  and  O3_25 
REMARK    5  A    between atoms: C15_24  and  C16_28 
REMARK    6  A    between atoms: O3_25  and  O4_26 
REMARK    7  A    between atoms: C16_28  and  C17_30 
REMARK    8  A    between atoms: C17_30  and  C18_32 
REMARK    9  A    between atoms: C18_32  and  O6_33 
REMARK   10  A    between atoms: C18_32  and  C19_35 
REMARK   11  A    between atoms: C19_35  and  O7_36 
REMARK   12  A    between atoms: C19_35  and  C20_38 
REMARK   13  A    between atoms: C20_38  and  O8_39 
ROOT
HETATM    1  C13 UNL     1     -12.890  -6.672   5.729  1.00  0.00     0.117 C 
ENDROOT
BRANCH   1   2
HETATM    2  C12 UNL     1     -11.494  -6.883   6.263  1.00  0.00     0.096 C 
HETATM    3  C11 UNL     1     -11.023  -8.286   6.215  1.00  0.00     0.042 C 
HETATM    4  C10 UNL     1      -9.616  -8.468   5.685  1.00  0.00     0.233 C 
HETATM    5  N2  UNL     1      -8.643  -7.667   6.387  1.00  0.00    -0.074 N 
HETATM    6  C9  UNL     1      -7.326  -8.275   6.327  1.00  0.00     0.251 C 
ATOM      7  H22 UNL     1      -8.929  -7.485   7.349  1.00  0.00     0.277 HD
ATOM      8  H21 UNL     1      -8.629  -6.707   6.045  1.00  0.00     0.277 HD
HETATM    9  C8  UNL     1      -7.042  -8.854   7.717  1.00  0.00     0.150 C 
HETATM   10  N1  UNL     1      -7.690 -10.146   7.770  1.00  0.00    -0.359 N 
HETATM   11  C7  UNL     1      -8.452 -10.629   8.864  1.00  0.00     0.217 C 
ATOM     12  H1  UNL     1      -7.591 -10.756   6.959  1.00  0.00     0.162 HD
HETATM   13  C6  UNL     1      -8.055 -10.554  10.276  1.00  0.00     0.103 C 
HETATM   14  O1  UNL     1      -9.570 -11.171   8.590  1.00  0.00    -0.274 OA
HETATM   15  C5  UNL     1      -8.608  -9.373  11.025  1.00  0.00     0.009 C 
HETATM   16  C4  UNL     1     -10.083  -9.179  10.882  1.00  0.00     0.003 C 
HETATM   17  C3  UNL     1     -10.305  -7.885  10.105  1.00  0.00     0.032 C 
HETATM   18  C2  UNL     1     -11.730  -7.614   9.781  1.00  0.00     0.127 C 
HETATM   19  C1  UNL     1     -12.590  -8.886   9.917  1.00  0.00     0.040 C 
HETATM   20  O10 UNL     1     -12.039  -6.940   8.643  1.00  0.00    -0.316 OA
HETATM   21  C21 UNL     1     -11.483  -6.266   7.639  1.00  0.00     0.263 C 
HETATM   22  O9  UNL     1     -10.915  -5.136   7.624  1.00  0.00    -0.265 OA
ENDBRANCH   1   2
BRANCH   1  23
HETATM   23  C14 UNL     1     -13.135  -5.333   5.161  1.00  0.00     0.220 C 
HETATM   24  O2  UNL     1     -14.320  -4.913   5.148  1.00  0.00    -0.274 OA
HETATM   25  N3  UNL     1     -12.049  -4.590   4.663  1.00  0.00    -0.331 N 
ATOM     26  H3  UNL     1     -11.124  -5.018   4.718  1.00  0.00     0.165 HD
BRANCH  25  27
HETATM   27  C15 UNL     1     -12.135  -3.279   4.083  1.00  0.00     0.283 C 
BRANCH  27  28
HETATM   28  O3  UNL     1     -12.761  -2.453   4.992  1.00  0.00    -0.215 OA
BRANCH  28  29
HETATM   29  O4  UNL     1     -13.766  -1.782   4.494  1.00  0.00    -0.248 OA
ATOM     30  H4  UNL     1     -13.855  -0.905   4.845  1.00  0.00     0.253 HD
ENDBRANCH  28  29
ENDBRANCH  27  28
BRANCH  27  31
HETATM   31  C16 UNL     1     -10.877  -2.701   3.595  1.00  0.00     0.182 C 
HETATM   32  S1  UNL     1     -10.049  -1.675   4.881  1.00  0.00    -0.080 SA
BRANCH  31  33
HETATM   33  C17 UNL     1     -10.841  -2.042   2.305  1.00  0.00     0.176 C 
HETATM   34  O5  UNL     1     -11.909  -1.482   1.966  1.00  0.00    -0.294 OA
BRANCH  33  35
HETATM   35  C18 UNL     1      -9.742  -1.933   1.333  1.00  0.00     0.219 C 
BRANCH  35  36
HETATM   36  O6  UNL     1      -9.357  -0.627   1.081  1.00  0.00    -0.385 OA
ATOM     37  H6  UNL     1      -8.417  -0.496   1.116  1.00  0.00     0.210 HD
ENDBRANCH  35  36
BRANCH  35  38
HETATM   38  C19 UNL     1     -10.045  -2.655   0.033  1.00  0.00     0.177 C 
BRANCH  38  39
HETATM   39  O7  UNL     1     -10.800  -1.777  -0.770  1.00  0.00    -0.390 OA
ATOM     40  H7  UNL     1     -11.510  -2.280  -1.150  1.00  0.00     0.210 HD
ENDBRANCH  38  39
BRANCH  38  41
HETATM   41  C20 UNL     1      -8.765  -2.922  -0.731  1.00  0.00     0.198 C 
BRANCH  41  42
HETATM   42  O8  UNL     1      -7.768  -3.274   0.183  1.00  0.00    -0.398 OA
ATOM     43  H8  UNL     1      -7.077  -2.624   0.141  1.00  0.00     0.209 HD
ENDBRANCH  41  42
ENDBRANCH  38  41
ENDBRANCH  35  38
ENDBRANCH  33  35
ENDBRANCH  31  33
ENDBRANCH  27  31
ENDBRANCH  25  27
ENDBRANCH   1  23
TORSDOF 13
ENDMDL
MODEL 2
REMARK VINA RESULT: -7.287675240      2.219      3.323
REMARK  13 active torsions:
REMARK  status: ('A' for Active; 'I' for Inactive)
REMARK    1  A    between atoms: C12_18  and  C13_19 
REMARK    2  A    between atoms: C13_19  and  C14_20 
REMARK       I    between atoms: C14_20  and  N3_22 
REMARK    3  A    between atoms: N3_22  and  C15_24 
REMARK    4  A    between atoms: C15_24  and  O3_25 
REMARK    5  A    between atoms: C15_24  and  C16_28 
REMARK    6  A    between atoms: O3_25  and  O4_26 
REMARK    7  A    between atoms: C16_28  and  C17_30 
REMARK    8  A    between atoms: C17_30  and  C18_32 
REMARK    9  A    between atoms: C18_32  and  O6_33 
REMARK   10  A    between atoms: C18_32  and  C19_35 
REMARK   11  A    between atoms: C19_35  and  O7_36 
REMARK   12  A    between atoms: C19_35  and  C20_38 
REMARK   13  A    between atoms: C20_38  and  O8_39 
ROOT
HETATM    1  C13 UNL     1     -11.192  -4.202   7.016  1.00  0.00     0.117 C 
ENDROOT
BRANCH   1   2
HETATM    2  C12 UNL     1     -11.687  -5.432   7.738  1.00  0.00     0.096 C 
HETATM    3  C11 UNL     1     -11.252  -5.532   9.150  1.00  0.00     0.042 C 
HETATM    4  C10 UNL     1     -12.343  -5.918  10.127  1.00  0.00     0.233 C 
HETATM    5  N2  UNL     1     -13.027  -7.133   9.756  1.00  0.00    -0.074 N 
HETATM    6  C9  UNL     1     -13.575  -7.800  10.923  1.00  0.00     0.251 C 
ATOM      7  H22 UNL     1     -12.424  -7.755   9.216  1.00  0.00     0.277 HD
ATOM      8  H21 UNL     1     -13.743  -6.961   9.050  1.00  0.00     0.277 HD
HETATM    9  C8  UNL     1     -12.694  -9.026  11.187  1.00  0.00     0.150 C 
HETATM   10  N1  UNL     1     -11.546  -8.560  11.931  1.00  0.00    -0.359 N 
HETATM   11  C7  UNL     1     -10.203  -8.941  11.680  1.00  0.00     0.217 C 
ATOM     12  H1  UNL     1     -11.714  -7.907  12.697  1.00  0.00     0.162 HD
HETATM   13  C6  UNL     1      -9.739 -10.315  11.448  1.00  0.00     0.103 C 
HETATM   14  O1  UNL     1      -9.336  -8.010  11.654  1.00  0.00    -0.274 OA
HETATM   15  C5  UNL     1      -9.623 -10.707  10.001  1.00  0.00     0.009 C 
HETATM   16  C4  UNL     1      -8.856  -9.743   9.153  1.00  0.00     0.003 C 
HETATM   17  C3  UNL     1      -9.837  -9.116   8.167  1.00  0.00     0.032 C 
HETATM   18  C2  UNL     1      -9.242  -8.044   7.326  1.00  0.00     0.127 C 
HETATM   19  C1  UNL     1      -7.924  -7.521   7.930  1.00  0.00     0.040 C 
HETATM   20  O10 UNL     1     -10.024  -7.015   6.906  1.00  0.00    -0.316 OA
HETATM   21  C21 UNL     1     -11.289  -6.603   6.875  1.00  0.00     0.263 C 
HETATM   22  O9  UNL     1     -12.277  -7.036   6.216  1.00  0.00    -0.265 OA
ENDBRANCH   1   2
BRANCH   1  23
HETATM   23  C14 UNL     1     -12.172  -3.591   6.099  1.00  0.00     0.220 C 
HETATM   24  O2  UNL     1     -13.380  -3.912   6.238  1.00  0.00    -0.274 OA
HETATM   25  N3  UNL     1     -11.723  -2.686   5.119  1.00  0.00    -0.331 N 
ATOM     26  H3  UNL     1     -10.722  -2.490   5.086  1.00  0.00     0.165 HD
BRANCH  25  27
HETATM   27  C15 UNL     1     -12.558  -2.017   4.161  1.00  0.00     0.283 C 
BRANCH  27  28
HETATM   28  O3  UNL     1     -13.271  -1.043   4.827  1.00  0.00    -0.215 OA
BRANCH  28  29
HETATM   29  O4  UNL     1     -14.553  -1.286   4.906  1.00  0.00    -0.248 OA
ATOM     30  H4  UNL     1     -14.816  -1.708   5.715  1.00  0.00     0.253 HD
ENDBRANCH  28  29
ENDBRANCH  27  28
BRANCH  27  31
HETATM   31  C16 UNL     1     -11.882  -1.483   2.973  1.00  0.00     0.182 C 
HETATM   32  S1  UNL     1     -13.059  -0.641   1.833  1.00  0.00    -0.080 SA
BRANCH  31  33
HETATM   33  C17 UNL     1     -10.958  -2.322   2.234  1.00  0.00     0.176 C 
HETATM   34  O5  UNL     1     -11.150  -3.554   2.352  1.00  0.00    -0.294 OA
BRANCH  33  35
HETATM   35  C18 UNL     1      -9.828  -1.945   1.371  1.00  0.00     0.219 C 
BRANCH  35  36
HETATM   36  O6  UNL     1      -9.668  -0.577   1.239  1.00  0.00    -0.385 OA
ATOM     37  H6  UNL     1      -8.767  -0.314   1.089  1.00  0.00     0.210 HD
ENDBRANCH  35  36
BRANCH  35  38
HETATM   38  C19 UNL     1      -9.898  -2.604   0.006  1.00  0.00     0.177 C 
BRANCH  38  39
HETATM   39  O7  UNL     1     -10.726  -1.801  -0.806  1.00  0.00    -0.390 OA
ATOM     40  H7  UNL     1     -11.033  -2.344  -1.522  1.00  0.00     0.210 HD
ENDBRANCH  38  39
BRANCH  38  41
HETATM   41  C20 UNL     1      -8.534  -2.596  -0.653  1.00  0.00     0.198 C 
BRANCH  41  42
HETATM   42  O8  UNL     1      -7.661  -3.361   0.125  1.00  0.00    -0.398 OA
ATOM     43  H8  UNL     1      -6.802  -2.958   0.098  1.00  0.00     0.209 HD
ENDBRANCH  41  42
ENDBRANCH  38  41
ENDBRANCH  35  38
ENDBRANCH  33  35
ENDBRANCH  31  33
ENDBRANCH  27  31
ENDBRANCH  25  27
ENDBRANCH   1  23
TORSDOF 13
ENDMDL
MODEL 3
REMARK VINA RESULT: -7.266960399      2.296      3.271
REMARK  13 active torsions:
REMARK  status: ('A' for Active; 'I' for Inactive)
REMARK    1  A    between atoms: C12_18  and  C13_19 
REMARK    2  A    between atoms: C13_19  and  C14_20 
REMARK       I    between atoms: C14_20  and  N3_22 
REMARK    3  A    between atoms: N3_22  and  C15_24 
REMARK    4  A    between atoms: C15_24  and  O3_25 
REMARK    5  A    between atoms: C15_24  and  C16_28 
REMARK    6  A    between atoms: O3_25  and  O4_26 
REMARK    7  A    between atoms: C16_28  and  C17_30 
REMARK    8  A    between atoms: C17_30  and  C18_32 
REMARK    9  A    between atoms: C18_32  and  O6_33 
REMARK   10  A    between atoms: C18_32  and  C19_35 
REMARK   11  A    between atoms: C19_35  and  O7_36 
REMARK   12  A    between atoms: C19_35  and  C20_38 
REMARK   13  A    between atoms: C20_38  and  O8_39 
ROOT
HETATM    1  C13 UNL     1     -11.215  -6.021   5.935  1.00  0.00     0.117 C 
ENDROOT
BRANCH   1   2
HETATM    2  C12 UNL     1     -11.627  -6.676   7.230  1.00  0.00     0.096 C 
HETATM    3  C11 UNL     1     -10.613  -6.603   8.306  1.00  0.00     0.042 C 
HETATM    4  C10 UNL     1     -11.151  -6.203   9.664  1.00  0.00     0.233 C 
HETATM    5  N2  UNL     1     -12.244  -7.035  10.103  1.00  0.00    -0.074 N 
HETATM    6  C9  UNL     1     -12.323  -7.072  11.552  1.00  0.00     0.251 C 
ATOM      7  H22 UNL     1     -12.186  -7.974   9.706  1.00  0.00     0.277 HD
ATOM      8  H21 UNL     1     -13.128  -6.745   9.686  1.00  0.00     0.277 HD
HETATM    9  C8  UNL     1     -11.819  -8.452  11.988  1.00  0.00     0.150 C 
HETATM   10  N1  UNL     1     -10.376  -8.377  12.019  1.00  0.00    -0.359 N 
HETATM   11  C7  UNL     1      -9.498  -9.367  11.506  1.00  0.00     0.217 C 
ATOM     12  H1  UNL     1      -9.956  -7.549  12.442  1.00  0.00     0.162 HD
HETATM   13  C6  UNL     1      -9.622 -10.812  11.734  1.00  0.00     0.103 C 
HETATM   14  O1  UNL     1      -8.527  -8.958  10.792  1.00  0.00    -0.274 OA
HETATM   15  C5  UNL     1     -10.340 -11.562  10.647  1.00  0.00     0.009 C 
HETATM   16  C4  UNL     1      -9.840 -11.288   9.265  1.00  0.00     0.003 C 
HETATM   17  C3  UNL     1     -10.950 -10.559   8.511  1.00  0.00     0.032 C 
HETATM   18  C2  UNL     1     -10.558 -10.114   7.147  1.00  0.00     0.127 C 
HETATM   19  C1  UNL     1      -9.026 -10.101   6.978  1.00  0.00     0.040 C 
HETATM   20  O10 UNL     1     -11.111  -8.987   6.630  1.00  0.00    -0.316 OA
HETATM   21  C21 UNL     1     -12.053  -8.077   6.866  1.00  0.00     0.263 C 
HETATM   22  O9  UNL     1     -13.313  -8.173   6.838  1.00  0.00    -0.265 OA
ENDBRANCH   1   2
BRANCH   1  23
HETATM   23  C14 UNL     1     -11.354  -4.553   5.916  1.00  0.00     0.220 C 
HETATM   24  O2  UNL     1     -12.305  -4.049   6.567  1.00  0.00    -0.274 OA
HETATM   25  N3  UNL     1     -10.432  -3.786   5.181  1.00  0.00    -0.331 N 
ATOM     26  H3  UNL     1      -9.695  -4.288   4.685  1.00  0.00     0.165 HD
BRANCH  25  27
HETATM   27  C15 UNL     1     -10.443  -2.354   5.071  1.00  0.00     0.283 C 
BRANCH  27  28
HETATM   28  O3  UNL     1      -9.165  -1.900   5.322  1.00  0.00    -0.215 OA
BRANCH  28  29
HETATM   29  O4  UNL     1      -9.124  -0.732   5.909  1.00  0.00    -0.248 OA
ATOM     30  H4  UNL     1      -8.852  -0.768   6.818  1.00  0.00     0.253 HD
ENDBRANCH  28  29
ENDBRANCH  27  28
BRANCH  27  31
HETATM   31  C16 UNL     1     -10.983  -1.804   3.821  1.00  0.00     0.182 C 
HETATM   32  S1  UNL     1     -12.804  -1.546   3.916  1.00  0.00    -0.080 SA
BRANCH  31  33
HETATM   33  C17 UNL     1     -10.610  -2.400   2.553  1.00  0.00     0.176 C 
HETATM   34  O5  UNL     1     -11.146  -3.505   2.310  1.00  0.00    -0.294 OA
BRANCH  33  35
HETATM   35  C18 UNL     1      -9.697  -1.905   1.512  1.00  0.00     0.219 C 
BRANCH  35  36
HETATM   36  O6  UNL     1      -9.763  -0.534   1.328  1.00  0.00    -0.385 OA
ATOM     37  H6  UNL     1     -10.156  -0.282   0.500  1.00  0.00     0.210 HD
ENDBRANCH  35  36
BRANCH  35  38
HETATM   38  C19 UNL     1      -9.880  -2.626   0.190  1.00  0.00     0.177 C 
BRANCH  38  39
HETATM   39  O7  UNL     1     -10.792  -1.872  -0.577  1.00  0.00    -0.390 OA
ATOM     40  H7  UNL     1     -10.745  -2.194  -1.469  1.00  0.00     0.210 HD
ENDBRANCH  38  39
BRANCH  38  41
HETATM   41  C20 UNL     1      -8.582  -2.632  -0.591  1.00  0.00     0.198 C 
BRANCH  41  42
HETATM   42  O8  UNL     1      -7.633  -3.361   0.131  1.00  0.00    -0.398 OA
ATOM     43  H8  UNL     1      -6.848  -2.833   0.216  1.00  0.00     0.209 HD
ENDBRANCH  41  42
ENDBRANCH  38  41
ENDBRANCH  35  38
ENDBRANCH  33  35
ENDBRANCH  31  33
ENDBRANCH  27  31
ENDBRANCH  25  27
ENDBRANCH   1  23
TORSDOF 13
ENDMDL
MODEL 4
REMARK VINA RESULT: -7.216314439      4.813      6.513
REMARK  13 active torsions:
REMARK  status: ('A' for Active; 'I' for Inactive)
REMARK    1  A    between atoms: C12_18  and  C13_19 
REMARK    2  A    between atoms: C13_19  and  C14_20 
REMARK       I    between atoms: C14_20  and  N3_22 
REMARK    3  A    between atoms: N3_22  and  C15_24 
REMARK    4  A    between atoms: C15_24  and  O3_25 
REMARK    5  A    between atoms: C15_24  and  C16_28 
REMARK    6  A    between atoms: O3_25  and  O4_26 
REMARK    7  A    between atoms: C16_28  and  C17_30 
REMARK    8  A    between atoms: C17_30  and  C18_32 
REMARK    9  A    between atoms: C18_32  and  O6_33 
REMARK   10  A    between atoms: C18_32  and  C19_35 
REMARK   11  A    between atoms: C19_35  and  O7_36 
REMARK   12  A    between atoms: C19_35  and  C20_38 
REMARK   13  A    between atoms: C20_38  and  O8_39 
ROOT
HETATM    1  C13 UNL     1     -11.106  -2.277   5.905  1.00  0.00     0.117 C 
ENDROOT
BRANCH   1   2
HETATM    2  C12 UNL     1     -12.046  -2.615   7.036  1.00  0.00     0.096 C 
HETATM    3  C11 UNL     1     -12.798  -1.460   7.577  1.00  0.00     0.042 C 
HETATM    4  C10 UNL     1     -14.276  -1.706   7.795  1.00  0.00     0.233 C 
HETATM    5  N2  UNL     1     -14.539  -2.864   8.613  1.00  0.00    -0.074 N 
HETATM    6  C9  UNL     1     -15.808  -2.736   9.306  1.00  0.00     0.251 C 
ATOM      7  H22 UNL     1     -13.773  -3.048   9.262  1.00  0.00     0.277 HD
ATOM      8  H21 UNL     1     -14.492  -3.727   8.071  1.00  0.00     0.277 HD
HETATM    9  C8  UNL     1     -15.482  -2.452  10.777  1.00  0.00     0.150 C 
HETATM   10  N1  UNL     1     -15.227  -1.033  10.880  1.00  0.00    -0.359 N 
HETATM   11  C7  UNL     1     -14.159  -0.449  11.608  1.00  0.00     0.217 C 
ATOM     12  H1  UNL     1     -15.863  -0.403  10.391  1.00  0.00     0.162 HD
HETATM   13  C6  UNL     1     -13.759  -0.817  12.972  1.00  0.00     0.103 C 
HETATM   14  O1  UNL     1     -13.498   0.467  11.022  1.00  0.00    -0.274 OA
HETATM   15  C5  UNL     1     -12.641  -1.819  13.054  1.00  0.00     0.009 C 
HETATM   16  C4  UNL     1     -11.441  -1.482  12.227  1.00  0.00     0.003 C 
HETATM   17  C3  UNL     1     -11.339  -2.526  11.119  1.00  0.00     0.032 C 
HETATM   18  C2  UNL     1     -10.253  -2.259  10.139  1.00  0.00     0.127 C 
HETATM   19  C1  UNL     1      -9.776  -0.795  10.213  1.00  0.00     0.040 C 
HETATM   20  O10 UNL     1     -10.409  -2.652   8.848  1.00  0.00    -0.316 OA
HETATM   21  C21 UNL     1     -11.215  -3.354   8.055  1.00  0.00     0.263 C 
HETATM   22  O9  UNL     1     -11.424  -4.599   7.992  1.00  0.00    -0.265 OA
ENDBRANCH   1   2
BRANCH   1  23
HETATM   23  C14 UNL     1     -11.712  -2.341   4.562  1.00  0.00     0.220 C 
HETATM   24  O2  UNL     1     -11.834  -3.473   4.029  1.00  0.00    -0.274 OA
HETATM   25  N3  UNL     1     -12.124  -1.148   3.938  1.00  0.00    -0.331 N 
ATOM     26  H3  UNL     1     -11.982  -0.277   4.452  1.00  0.00     0.165 HD
BRANCH  25  27
HETATM   27  C15 UNL     1     -12.726  -1.055   2.637  1.00  0.00     0.283 C 
BRANCH  27  28
HETATM   28  O3  UNL     1     -13.907  -0.355   2.766  1.00  0.00    -0.215 OA
BRANCH  28  29
HETATM   29  O4  UNL     1     -14.359  -0.301   3.991  1.00  0.00    -0.248 OA
ATOM     30  H4  UNL     1     -15.273  -0.049   4.053  1.00  0.00     0.253 HD
ENDBRANCH  28  29
ENDBRANCH  27  28
BRANCH  27  31
HETATM   31  C16 UNL     1     -11.880  -0.510   1.569  1.00  0.00     0.182 C 
HETATM   32  S1  UNL     1     -12.805  -0.328  -0.014  1.00  0.00    -0.080 SA
BRANCH  31  33
HETATM   33  C17 UNL     1     -10.564  -1.072   1.337  1.00  0.00     0.176 C 
HETATM   34  O5  UNL     1      -9.616  -0.258   1.427  1.00  0.00    -0.294 OA
BRANCH  33  35
HETATM   35  C18 UNL     1     -10.174  -2.452   1.010  1.00  0.00     0.219 C 
BRANCH  35  36
HETATM   36  O6  UNL     1      -9.708  -3.166   2.100  1.00  0.00    -0.385 OA
ATOM     37  H6  UNL     1      -9.559  -4.086   1.915  1.00  0.00     0.210 HD
ENDBRANCH  35  36
BRANCH  35  38
HETATM   38  C19 UNL     1      -9.175  -2.516  -0.131  1.00  0.00     0.177 C 
BRANCH  38  39
HETATM   39  O7  UNL     1      -8.015  -3.148   0.362  1.00  0.00    -0.390 OA
ATOM     40  H7  UNL     1      -7.341  -2.483   0.438  1.00  0.00     0.210 HD
ENDBRANCH  38  39
BRANCH  38  41
HETATM   41  C20 UNL     1      -9.698  -3.408  -1.238  1.00  0.00     0.198 C 
BRANCH  41  42
HETATM   42  O8  UNL     1      -8.678  -4.285  -1.620  1.00  0.00    -0.398 OA
ATOM     43  H8  UNL     1      -9.072  -5.042  -2.037  1.00  0.00     0.209 HD
ENDBRANCH  41  42
ENDBRANCH  38  41
ENDBRANCH  35  38
ENDBRANCH  33  35
ENDBRANCH  31  33
ENDBRANCH  27  31
ENDBRANCH  25  27
ENDBRANCH   1  23
TORSDOF 13
ENDMDL
MODEL 5
REMARK VINA RESULT: -7.135323540      2.087      3.319
REMARK  13 active torsions:
REMARK  status: ('A' for Active; 'I' for Inactive)
REMARK    1  A    between atoms: C12_18  and  C13_19 
REMARK    2  A    between atoms: C13_19  and  C14_20 
REMARK       I    between atoms: C14_20  and  N3_22 
REMARK    3  A    between atoms: N3_22  and  C15_24 
REMARK    4  A    between atoms: C15_24  and  O3_25 
REMARK    5  A    between atoms: C15_24  and  C16_28 
REMARK    6  A    between atoms: O3_25  and  O4_26 
REMARK    7  A    between atoms: C16_28  and  C17_30 
REMARK    8  A    between atoms: C17_30  and  C18_32 
REMARK    9  A    between atoms: C18_32  and  O6_33 
REMARK   10  A    between atoms: C18_32  and  C19_35 
REMARK   11  A    between atoms: C19_35  and  O7_36 
REMARK   12  A    between atoms: C19_35  and  C20_38 
REMARK   13  A    between atoms: C20_38  and  O8_39 
ROOT
HETATM    1  C13 UNL     1     -10.803  -6.034   6.048  1.00  0.00     0.117 C 
ENDROOT
BRANCH   1   2
HETATM    2  C12 UNL     1     -11.188  -7.198   6.929  1.00  0.00     0.096 C 
HETATM    3  C11 UNL     1     -10.982  -6.968   8.377  1.00  0.00     0.042 C 
HETATM    4  C10 UNL     1     -12.135  -7.395   9.261  1.00  0.00     0.233 C 
HETATM    5  N2  UNL     1     -12.525  -8.768   9.053  1.00  0.00    -0.074 N 
HETATM    6  C9  UNL     1     -13.134  -9.324  10.247  1.00  0.00     0.251 C 
ATOM      7  H22 UNL     1     -11.742  -9.337   8.729  1.00  0.00     0.277 HD
ATOM      8  H21 UNL     1     -13.134  -8.866   8.240  1.00  0.00     0.277 HD
HETATM    9  C8  UNL     1     -12.108 -10.283  10.860  1.00  0.00     0.150 C 
HETATM   10  N1  UNL     1     -11.198  -9.476  11.641  1.00  0.00    -0.359 N 
HETATM   11  C7  UNL     1      -9.786  -9.615  11.646  1.00  0.00     0.217 C 
ATOM     12  H1  UNL     1     -11.602  -8.750  12.233  1.00  0.00     0.162 HD
HETATM   13  C6  UNL     1      -9.058 -10.886  11.753  1.00  0.00     0.103 C 
HETATM   14  O1  UNL     1      -9.104  -8.545  11.548  1.00  0.00    -0.274 OA
HETATM   15  C5  UNL     1      -8.638 -11.485  10.439  1.00  0.00     0.009 C 
HETATM   16  C4  UNL     1      -7.922 -10.543   9.525  1.00  0.00     0.003 C 
HETATM   17  C3  UNL     1      -8.821 -10.305   8.314  1.00  0.00     0.032 C 
HETATM   18  C2  UNL     1      -8.291  -9.293   7.362  1.00  0.00     0.127 C 
HETATM   19  C1  UNL     1      -7.203  -8.419   8.017  1.00  0.00     0.040 C 
HETATM   20  O10 UNL     1      -9.160  -8.529   6.650  1.00  0.00    -0.316 OA
HETATM   21  C21 UNL     1     -10.455  -8.393   6.374  1.00  0.00     0.263 C 
HETATM   22  O9  UNL     1     -11.230  -9.123   5.691  1.00  0.00    -0.265 OA
ENDBRANCH   1   2
BRANCH   1  23
HETATM   23  C14 UNL     1     -11.938  -5.356   5.394  1.00  0.00     0.220 C 
HETATM   24  O2  UNL     1     -12.846  -6.076   4.907  1.00  0.00    -0.274 OA
HETATM   25  N3  UNL     1     -11.959  -3.949   5.342  1.00  0.00    -0.331 N 
ATOM     26  H3  UNL     1     -11.175  -3.453   5.767  1.00  0.00     0.165 HD
BRANCH  25  27
HETATM   27  C15 UNL     1     -12.993  -3.156   4.740  1.00  0.00     0.283 C 
BRANCH  27  28
HETATM   28  O3  UNL     1     -14.016  -3.028   5.655  1.00  0.00    -0.215 OA
BRANCH  28  29
HETATM   29  O4  UNL     1     -14.985  -3.890   5.491  1.00  0.00    -0.248 OA
ATOM     30  H4  UNL     1     -15.537  -3.999   6.255  1.00  0.00     0.253 HD
ENDBRANCH  28  29
ENDBRANCH  27  28
BRANCH  27  31
HETATM   31  C16 UNL     1     -12.579  -1.856   4.196  1.00  0.00     0.182 C 
HETATM   32  S1  UNL     1     -13.838  -0.548   4.510  1.00  0.00    -0.080 SA
BRANCH  31  33
HETATM   33  C17 UNL     1     -12.074  -1.773   2.840  1.00  0.00     0.176 C 
HETATM   34  O5  UNL     1     -12.700  -0.991   2.088  1.00  0.00    -0.294 OA
BRANCH  33  35
HETATM   35  C18 UNL     1     -10.941  -2.470   2.213  1.00  0.00     0.219 C 
BRANCH  35  36
HETATM   36  O6  UNL     1      -9.918  -2.765   3.098  1.00  0.00    -0.385 OA
ATOM     37  H6  UNL     1      -9.483  -1.994   3.444  1.00  0.00     0.210 HD
ENDBRANCH  35  36
BRANCH  35  38
HETATM   38  C19 UNL     1     -10.399  -1.726   1.006  1.00  0.00     0.177 C 
BRANCH  38  39
HETATM   39  O7  UNL     1      -9.773  -0.555   1.481  1.00  0.00    -0.390 OA
ATOM     40  H7  UNL     1      -9.389  -0.116   0.732  1.00  0.00     0.210 HD
ENDBRANCH  38  39
BRANCH  38  41
HETATM   41  C20 UNL     1      -9.311  -2.537   0.333  1.00  0.00     0.198 C 
BRANCH  41  42
HETATM   42  O8  UNL     1      -8.629  -1.707  -0.561  1.00  0.00    -0.398 OA
ATOM     43  H8  UNL     1      -8.751  -0.806  -0.289  1.00  0.00     0.209 HD
ENDBRANCH  41  42
ENDBRANCH  38  41
ENDBRANCH  35  38
ENDBRANCH  33  35
ENDBRANCH  31  33
ENDBRANCH  27  31
ENDBRANCH  25  27
ENDBRANCH   1  23
TORSDOF 13
ENDMDL
