MODEL 1
REMARK VINA RESULT: -9.596399798      0.000      0.000
REMARK  13 active torsions:
REMARK  status: ('A' for Active; 'I' for Inactive)
REMARK    1  A    between atoms: C2_2  and  C4_4 
REMARK    2  A    between atoms: C4_4  and  N1_5 
REMARK    3  A    between atoms: C4_4  and  C11_25 
REMARK    4  A    between atoms: N1_5  and  C5_7 
REMARK    5  A    between atoms: N3_13  and  O1_15 
REMARK    6  A    between atoms: O1_15  and  C9_16 
REMARK    7  A    between atoms: C10_19  and  O2_20 
REMARK    8  A    between atoms: C11_25  and  C12_30 
REMARK    9  A    between atoms: N7_26  and  O4_28 
REMARK       I    between atoms: C12_30  and  N8_32 
REMARK   10  A    between atoms: C14_34  and  O6_35 
REMARK   11  A    between atoms: C14_34  and  C15_37 
REMARK   12  A    between atoms: C15_37  and  O7_38 
REMARK   13  A    between atoms: C15_37  and  C16_40 
ROOT
HETATM    1  C4  UNL     1     -13.994  -2.137   6.582  1.00  0.00     0.144 C 
ENDROOT
BRANCH   1   2
HETATM    2  C2  UNL     1     -15.242  -2.973   6.758  1.00  0.00     0.006 C 
HETATM    3  C1  UNL     1     -15.392  -3.950   5.595  1.00  0.00     0.012 C 
HETATM    4  C3  UNL     1     -15.134  -3.824   8.004  1.00  0.00     0.012 C 
ENDBRANCH   1   2
BRANCH   1   5
HETATM    5  N1  UNL     1     -13.576  -1.969   5.237  1.00  0.00    -0.365 N 
ATOM      6  H1  UNL     1     -14.253  -1.500   4.636  1.00  0.00     0.161 HD
BRANCH   5   7
HETATM    7  C5  UNL     1     -12.496  -2.308   4.658  1.00  0.00     0.118 A 
HETATM    8  C6  UNL     1     -11.497  -2.923   5.433  1.00  0.00     0.066 A 
HETATM    9  C7  UNL     1     -10.325  -3.295   4.825  1.00  0.00     0.110 A 
HETATM   10  N2  UNL     1     -10.155  -3.065   3.501  1.00  0.00    -0.200 N 
HETATM   11  C8  UNL     1     -11.124  -2.480   2.799  1.00  0.00     0.703 A 
ATOM     12  H2  UNL     1      -9.286  -3.338   3.043  1.00  0.00     0.183 HD
HETATM   13  N3  UNL     1     -10.962  -2.257   1.545  1.00  0.00    -0.092 N 
HETATM   14  N6  UNL     1     -12.319  -2.086   3.353  1.00  0.00    -0.175 N 
ATOM     15  H3  UNL     1     -11.701  -1.808   1.003  1.00  0.00     0.213 HD
ATOM     16  H6  UNL     1     -13.042  -1.640   2.788  1.00  0.00     0.186 HD
BRANCH  13  17
HETATM   17  O1  UNL     1      -9.790  -2.626   0.942  1.00  0.00    -0.214 OA
BRANCH  17  18
HETATM   18  C9  UNL     1      -9.528  -2.098  -0.359  1.00  0.00     0.406 C 
HETATM   19  N4  UNL     1      -8.131  -2.345  -0.654  1.00  0.00    -0.082 NA
HETATM   20  N5  UNL     1      -8.190  -3.735  -0.949  1.00  0.00    -0.084 NA
HETATM   21  C10 UNL     1      -9.333  -3.756  -1.858  1.00  0.00     0.378 C 
HETATM   22  O3  UNL     1     -10.236  -2.874  -1.302  1.00  0.00    -0.298 OA
BRANCH  21  23
HETATM   23  O2  UNL     1      -9.850  -5.039  -2.009  1.00  0.00    -0.357 OA
ATOM     24  H2  UNL     1     -10.211  -5.373  -1.196  1.00  0.00     0.214 HD
ENDBRANCH  21  23
ENDBRANCH  17  18
ENDBRANCH  13  17
ENDBRANCH   5   7
ENDBRANCH   1   5
BRANCH   1  25
HETATM   25  C11 UNL     1     -14.116  -0.810   7.290  1.00  0.00     0.124 C 
HETATM   26  N7  UNL     1     -14.252   0.262   6.618  1.00  0.00    -0.266 N 
ATOM     27  H7  UNL     1     -14.328   1.125   7.157  1.00  0.00     0.194 HD
BRANCH  26  28
HETATM   28  O4  UNL     1     -14.308   0.391   5.266  1.00  0.00    -0.290 OA
ATOM     29  H4  UNL     1     -14.629  -0.244   4.637  1.00  0.00     0.244 HD
ENDBRANCH  26  28
BRANCH  25  30
HETATM   30  C12 UNL     1     -14.090  -0.807   8.735  1.00  0.00     0.288 C 
HETATM   31  O5  UNL     1     -15.104  -0.535   9.405  1.00  0.00    -0.264 OA
HETATM   32  N8  UNL     1     -12.870  -1.124   9.428  1.00  0.00    -0.253 N 
HETATM   33  C13 UNL     1     -11.575  -1.448   8.864  1.00  0.00     0.199 A 
HETATM   34  N9  UNL     1     -12.748  -1.188  10.803  1.00  0.00    -0.307 N 
HETATM   35  C14 UNL     1     -10.675  -1.604  10.043  1.00  0.00     0.139 A 
HETATM   36  C22 UNL     1     -11.594  -1.443  11.237  1.00  0.00     0.122 A 
ATOM     37  H9  UNL     1     -13.541  -1.037  11.426  1.00  0.00     0.186 HD
BRANCH  35  38
HETATM   38  O6  UNL     1     -10.165  -2.899  10.194  1.00  0.00    -0.380 OA
ATOM     39  H6  UNL     1      -9.218  -2.945  10.143  1.00  0.00     0.211 HD
ENDBRANCH  35  38
BRANCH  35  40
HETATM   40  C15 UNL     1      -9.583  -0.568  10.139  1.00  0.00     0.192 C 
BRANCH  40  41
HETATM   41  O7  UNL     1      -8.587  -1.155  10.955  1.00  0.00    -0.387 OA
ATOM     42  H7  UNL     1      -7.894  -0.507  11.006  1.00  0.00     0.210 HD
ENDBRANCH  40  41
BRANCH  40  43
HETATM   43  C16 UNL     1      -8.893  -0.338   8.831  1.00  0.00    -0.026 A 
HETATM   44  C17 UNL     1      -7.735   0.462   8.819  1.00  0.00     0.010 A 
HETATM   45  C18 UNL     1      -7.049   0.713   7.660  1.00  0.00     0.001 A 
HETATM   46  C19 UNL     1      -7.489   0.177   6.473  1.00  0.00     0.000 A 
HETATM   47  C20 UNL     1      -8.610  -0.610   6.420  1.00  0.00     0.001 A 
HETATM   48  C21 UNL     1      -9.287  -0.845   7.628  1.00  0.00     0.010 A 
ENDBRANCH  40  43
ENDBRANCH  35  40
ENDBRANCH  25  30
ENDBRANCH   1  25
TORSDOF 13
ENDMDL
MODEL 2
REMARK VINA RESULT: -9.468250438      2.311      4.326
REMARK  13 active torsions:
REMARK  status: ('A' for Active; 'I' for Inactive)
REMARK    1  A    between atoms: C2_2  and  C4_4 
REMARK    2  A    between atoms: C4_4  and  N1_5 
REMARK    3  A    between atoms: C4_4  and  C11_25 
REMARK    4  A    between atoms: N1_5  and  C5_7 
REMARK    5  A    between atoms: N3_13  and  O1_15 
REMARK    6  A    between atoms: O1_15  and  C9_16 
REMARK    7  A    between atoms: C10_19  and  O2_20 
REMARK    8  A    between atoms: C11_25  and  C12_30 
REMARK    9  A    between atoms: N7_26  and  O4_28 
REMARK       I    between atoms: C12_30  and  N8_32 
REMARK   10  A    between atoms: C14_34  and  O6_35 
REMARK   11  A    between atoms: C14_34  and  C15_37 
REMARK   12  A    between atoms: C15_37  and  O7_38 
REMARK   13  A    between atoms: C15_37  and  C16_40 
ROOT
HETATM    1  C4  UNL     1     -12.319  -3.201   4.920  1.00  0.00     0.144 C 
ENDROOT
BRANCH   1   2
HETATM    2  C2  UNL     1     -13.508  -3.294   5.850  1.00  0.00     0.006 C 
HETATM    3  C1  UNL     1     -14.348  -2.023   5.762  1.00  0.00     0.012 C 
HETATM    4  C3  UNL     1     -14.419  -4.425   5.427  1.00  0.00     0.012 C 
ENDBRANCH   1   2
BRANCH   1   5
HETATM    5  N1  UNL     1     -12.164  -1.947   4.276  1.00  0.00    -0.365 N 
ATOM      6  H1  UNL     1     -12.307  -1.137   4.880  1.00  0.00     0.161 HD
BRANCH   5   7
HETATM    7  C5  UNL     1     -11.877  -1.666   3.070  1.00  0.00     0.118 A 
HETATM    8  C6  UNL     1     -12.825  -0.952   2.315  1.00  0.00     0.066 A 
HETATM    9  C7  UNL     1     -12.532  -0.640   1.012  1.00  0.00     0.110 A 
HETATM   10  N2  UNL     1     -11.346  -1.023   0.482  1.00  0.00    -0.200 N 
HETATM   11  C8  UNL     1     -10.473  -1.698   1.227  1.00  0.00     0.703 A 
ATOM     12  H2  UNL     1     -11.123  -0.795  -0.487  1.00  0.00     0.183 HD
HETATM   13  N3  UNL     1      -9.350  -2.066   0.725  1.00  0.00    -0.092 N 
HETATM   14  N6  UNL     1     -10.710  -2.039   2.538  1.00  0.00    -0.175 N 
ATOM     15  H3  UNL     1      -8.679  -2.585   1.291  1.00  0.00     0.213 HD
ATOM     16  H6  UNL     1     -10.020  -2.557   3.083  1.00  0.00     0.186 HD
BRANCH  13  17
HETATM   17  O1  UNL     1      -9.063  -1.756  -0.577  1.00  0.00    -0.214 OA
BRANCH  17  18
HETATM   18  C9  UNL     1      -8.045  -2.522  -1.224  1.00  0.00     0.406 C 
HETATM   19  N4  UNL     1      -8.182  -3.892  -0.775  1.00  0.00    -0.082 NA
HETATM   20  N5  UNL     1      -9.318  -4.282  -1.536  1.00  0.00    -0.084 NA
HETATM   21  C10 UNL     1      -8.928  -3.787  -2.854  1.00  0.00     0.378 C 
HETATM   22  O3  UNL     1      -8.337  -2.567  -2.605  1.00  0.00    -0.298 OA
BRANCH  21  23
HETATM   23  O2  UNL     1     -10.016  -3.699  -3.717  1.00  0.00    -0.357 OA
ATOM     24  H2  UNL     1      -9.812  -4.040  -4.579  1.00  0.00     0.214 HD
ENDBRANCH  21  23
ENDBRANCH  17  18
ENDBRANCH  13  17
ENDBRANCH   5   7
ENDBRANCH   1   5
BRANCH   1  25
HETATM   25  C11 UNL     1     -11.046  -3.627   5.609  1.00  0.00     0.124 C 
HETATM   26  N7  UNL     1     -10.767  -4.863   5.730  1.00  0.00    -0.266 N 
ATOM     27  H7  UNL     1      -9.893  -5.084   6.206  1.00  0.00     0.194 HD
BRANCH  26  28
HETATM   28  O4  UNL     1     -11.501  -5.923   5.298  1.00  0.00    -0.290 OA
ATOM     29  H4  UNL     1     -12.388  -6.153   5.547  1.00  0.00     0.244 HD
ENDBRANCH  26  28
BRANCH  25  30
HETATM   30  C12 UNL     1     -10.163  -2.595   6.102  1.00  0.00     0.288 C 
HETATM   31  O5  UNL     1      -9.224  -2.154   5.411  1.00  0.00    -0.264 OA
HETATM   32  N8  UNL     1     -10.360  -2.054   7.420  1.00  0.00    -0.253 N 
HETATM   33  C13 UNL     1     -11.362  -2.423   8.401  1.00  0.00     0.199 A 
HETATM   34  N9  UNL     1      -9.599  -1.040   7.970  1.00  0.00    -0.307 N 
HETATM   35  C14 UNL     1     -11.041  -1.597   9.600  1.00  0.00     0.139 A 
HETATM   36  C22 UNL     1      -9.891  -0.719   9.151  1.00  0.00     0.122 A 
ATOM     37  H9  UNL     1      -8.849  -0.582   7.452  1.00  0.00     0.186 HD
BRANCH  35  38
HETATM   38  O6  UNL     1     -12.044  -0.679   9.935  1.00  0.00    -0.380 OA
ATOM     39  H6  UNL     1     -11.782   0.228   9.829  1.00  0.00     0.211 HD
ENDBRANCH  35  38
BRANCH  35  40
HETATM   40  C15 UNL     1     -10.594  -2.389  10.804  1.00  0.00     0.192 C 
BRANCH  40  41
HETATM   41  O7  UNL     1      -9.890  -1.465  11.613  1.00  0.00    -0.387 OA
ATOM     42  H7  UNL     1      -8.978  -1.561  11.361  1.00  0.00     0.210 HD
ENDBRANCH  40  41
BRANCH  40  43
HETATM   43  C16 UNL     1     -11.740  -2.825  11.662  1.00  0.00    -0.026 A 
HETATM   44  C17 UNL     1     -12.030  -2.076  12.818  1.00  0.00     0.010 A 
HETATM   45  C18 UNL     1     -13.066  -2.414  13.649  1.00  0.00     0.001 A 
HETATM   46  C19 UNL     1     -13.849  -3.506  13.360  1.00  0.00     0.000 A 
HETATM   47  C20 UNL     1     -13.616  -4.274  12.249  1.00  0.00     0.001 A 
HETATM   48  C21 UNL     1     -12.545  -3.898  11.421  1.00  0.00     0.010 A 
ENDBRANCH  40  43
ENDBRANCH  35  40
ENDBRANCH  25  30
ENDBRANCH   1  25
TORSDOF 13
ENDMDL
MODEL 3
REMARK VINA RESULT: -9.400303567      2.243      3.956
REMARK  13 active torsions:
REMARK  status: ('A' for Active; 'I' for Inactive)
REMARK    1  A    between atoms: C2_2  and  C4_4 
REMARK    2  A    between atoms: C4_4  and  N1_5 
REMARK    3  A    between atoms: C4_4  and  C11_25 
REMARK    4  A    between atoms: N1_5  and  C5_7 
REMARK    5  A    between atoms: N3_13  and  O1_15 
REMARK    6  A    between atoms: O1_15  and  C9_16 
REMARK    7  A    between atoms: C10_19  and  O2_20 
REMARK    8  A    between atoms: C11_25  and  C12_30 
REMARK    9  A    between atoms: N7_26  and  O4_28 
REMARK       I    between atoms: C12_30  and  N8_32 
REMARK   10  A    between atoms: C14_34  and  O6_35 
REMARK   11  A    between atoms: C14_34  and  C15_37 
REMARK   12  A    between atoms: C15_37  and  O7_38 
REMARK   13  A    between atoms: C15_37  and  C16_40 
ROOT
HETATM    1  C4  UNL     1     -12.002  -2.389   4.893  1.00  0.00     0.144 C 
ENDROOT
BRANCH   1   2
HETATM    2  C2  UNL     1     -12.581  -3.692   5.398  1.00  0.00     0.006 C 
HETATM    3  C1  UNL     1     -14.104  -3.608   5.453  1.00  0.00     0.012 C 
HETATM    4  C3  UNL     1     -12.261  -4.816   4.438  1.00  0.00     0.012 C 
ENDBRANCH   1   2
BRANCH   1   5
HETATM    5  N1  UNL     1     -12.681  -1.828   3.782  1.00  0.00    -0.365 N 
ATOM      6  H1  UNL     1     -13.671  -1.641   3.936  1.00  0.00     0.161 HD
BRANCH   5   7
HETATM    7  C5  UNL     1     -12.257  -1.520   2.623  1.00  0.00     0.118 A 
HETATM    8  C6  UNL     1     -13.043  -0.655   1.842  1.00  0.00     0.066 A 
HETATM    9  C7  UNL     1     -12.601  -0.311   0.589  1.00  0.00     0.110 A 
HETATM   10  N2  UNL     1     -11.427  -0.808   0.134  1.00  0.00    -0.200 N 
HETATM   11  C8  UNL     1     -10.708  -1.624   0.903  1.00  0.00     0.703 A 
ATOM     12  H2  UNL     1     -11.093  -0.556  -0.796  1.00  0.00     0.183 HD
HETATM   13  N3  UNL     1      -9.597  -2.099   0.471  1.00  0.00    -0.092 N 
HETATM   14  N6  UNL     1     -11.098  -2.004   2.165  1.00  0.00    -0.175 N 
ATOM     15  H3  UNL     1      -9.043  -2.727   1.055  1.00  0.00     0.213 HD
ATOM     16  H6  UNL     1     -10.526  -2.631   2.730  1.00  0.00     0.186 HD
BRANCH  13  17
HETATM   17  O1  UNL     1      -9.160  -1.757  -0.781  1.00  0.00    -0.214 OA
BRANCH  17  18
HETATM   18  C9  UNL     1      -8.107  -2.540  -1.345  1.00  0.00     0.406 C 
HETATM   19  N4  UNL     1      -8.239  -3.885  -0.823  1.00  0.00    -0.082 NA
HETATM   20  N5  UNL     1      -9.340  -4.338  -1.601  1.00  0.00    -0.084 NA
HETATM   21  C10 UNL     1      -8.908  -3.912  -2.930  1.00  0.00     0.378 C 
HETATM   22  O3  UNL     1      -8.346  -2.669  -2.731  1.00  0.00    -0.298 OA
BRANCH  21  23
HETATM   23  O2  UNL     1      -9.964  -3.892  -3.836  1.00  0.00    -0.357 OA
ATOM     24  H2  UNL     1     -10.806  -3.924  -3.397  1.00  0.00     0.214 HD
ENDBRANCH  21  23
ENDBRANCH  17  18
ENDBRANCH  13  17
ENDBRANCH   5   7
ENDBRANCH   1   5
BRANCH   1  25
HETATM   25  C11 UNL     1     -11.851  -1.385   6.010  1.00  0.00     0.124 C 
HETATM   26  N7  UNL     1     -12.783  -0.553   6.251  1.00  0.00    -0.266 N 
ATOM     27  H7  UNL     1     -12.619   0.099   7.018  1.00  0.00     0.194 HD
BRANCH  26  28
HETATM   28  O4  UNL     1     -13.974  -0.431   5.605  1.00  0.00    -0.290 OA
ATOM     29  H4  UNL     1     -14.674   0.182   5.793  1.00  0.00     0.244 HD
ENDBRANCH  26  28
BRANCH  25  30
HETATM   30  C12 UNL     1     -10.636  -1.417   6.791  1.00  0.00     0.288 C 
HETATM   31  O5  UNL     1      -9.516  -1.290   6.261  1.00  0.00    -0.264 OA
HETATM   32  N8  UNL     1     -10.708  -1.597   8.217  1.00  0.00    -0.253 N 
HETATM   33  C13 UNL     1     -11.886  -1.784   9.040  1.00  0.00     0.199 A 
HETATM   34  N9  UNL     1      -9.613  -1.603   9.058  1.00  0.00    -0.307 N 
HETATM   35  C14 UNL     1     -11.358  -1.998  10.417  1.00  0.00     0.139 A 
HETATM   36  C22 UNL     1      -9.861  -1.812  10.275  1.00  0.00     0.122 A 
ATOM     37  H9  UNL     1      -8.664  -1.448   8.716  1.00  0.00     0.186 HD
BRANCH  35  38
HETATM   38  O6  UNL     1     -11.727  -0.997  11.323  1.00  0.00    -0.380 OA
ATOM     39  H6  UNL     1     -12.268  -1.310  12.038  1.00  0.00     0.211 HD
ENDBRANCH  35  38
BRANCH  35  40
HETATM   40  C15 UNL     1     -11.615  -3.374  10.981  1.00  0.00     0.192 C 
BRANCH  40  41
HETATM   41  O7  UNL     1     -12.778  -3.235  11.775  1.00  0.00    -0.387 OA
ATOM     42  H7  UNL     1     -13.505  -3.345  11.172  1.00  0.00     0.210 HD
ENDBRANCH  40  41
BRANCH  40  43
HETATM   43  C16 UNL     1     -12.009  -4.360   9.928  1.00  0.00    -0.026 A 
HETATM   44  C17 UNL     1     -13.380  -4.574   9.692  1.00  0.00     0.010 A 
HETATM   45  C18 UNL     1     -13.815  -5.460   8.742  1.00  0.00     0.001 A 
HETATM   46  C19 UNL     1     -12.902  -6.164   7.992  1.00  0.00     0.000 A 
HETATM   47  C20 UNL     1     -11.554  -6.000   8.175  1.00  0.00     0.001 A 
HETATM   48  C21 UNL     1     -11.146  -5.084   9.159  1.00  0.00     0.010 A 
ENDBRANCH  40  43
ENDBRANCH  35  40
ENDBRANCH  25  30
ENDBRANCH   1  25
TORSDOF 13
ENDMDL
MODEL 4
REMARK VINA RESULT: -9.333279381      2.425      3.999
REMARK  13 active torsions:
REMARK  status: ('A' for Active; 'I' for Inactive)
REMARK    1  A    between atoms: C2_2  and  C4_4 
REMARK    2  A    between atoms: C4_4  and  N1_5 
REMARK    3  A    between atoms: C4_4  and  C11_25 
REMARK    4  A    between atoms: N1_5  and  C5_7 
REMARK    5  A    between atoms: N3_13  and  O1_15 
REMARK    6  A    between atoms: O1_15  and  C9_16 
REMARK    7  A    between atoms: C10_19  and  O2_20 
REMARK    8  A    between atoms: C11_25  and  C12_30 
REMARK    9  A    between atoms: N7_26  and  O4_28 
REMARK       I    between atoms: C12_30  and  N8_32 
REMARK   10  A    between atoms: C14_34  and  O6_35 
REMARK   11  A    between atoms: C14_34  and  C15_37 
REMARK   12  A    between atoms: C15_37  and  O7_38 
REMARK   13  A    between atoms: C15_37  and  C16_40 
ROOT
HETATM    1  C4  UNL     1     -12.071  -2.443   4.875  1.00  0.00     0.144 C 
ENDROOT
BRANCH   1   2
HETATM    2  C2  UNL     1     -12.587  -3.817   5.241  1.00  0.00     0.006 C 
HETATM    3  C1  UNL     1     -14.110  -3.853   5.138  1.00  0.00     0.012 C 
HETATM    4  C3  UNL     1     -12.080  -4.849   4.259  1.00  0.00     0.012 C 
ENDBRANCH   1   2
BRANCH   1   5
HETATM    5  N1  UNL     1     -12.721  -1.839   3.769  1.00  0.00    -0.365 N 
ATOM      6  H1  UNL     1     -13.708  -1.630   3.917  1.00  0.00     0.161 HD
BRANCH   5   7
HETATM    7  C5  UNL     1     -12.275  -1.514   2.624  1.00  0.00     0.118 A 
HETATM    8  C6  UNL     1     -13.032  -0.617   1.851  1.00  0.00     0.066 A 
HETATM    9  C7  UNL     1     -12.567  -0.255   0.612  1.00  0.00     0.110 A 
HETATM   10  N2  UNL     1     -11.396  -0.765   0.162  1.00  0.00    -0.200 N 
HETATM   11  C8  UNL     1     -10.705  -1.612   0.922  1.00  0.00     0.703 A 
ATOM     12  H2  UNL     1     -11.044  -0.501  -0.758  1.00  0.00     0.183 HD
HETATM   13  N3  UNL     1      -9.597  -2.101   0.495  1.00  0.00    -0.092 N 
HETATM   14  N6  UNL     1     -11.120  -2.011   2.171  1.00  0.00    -0.175 N 
ATOM     15  H3  UNL     1      -9.065  -2.752   1.072  1.00  0.00     0.213 HD
ATOM     16  H6  UNL     1     -10.568  -2.663   2.729  1.00  0.00     0.186 HD
BRANCH  13  17
HETATM   17  O1  UNL     1      -9.137  -1.741  -0.743  1.00  0.00    -0.214 OA
BRANCH  17  18
HETATM   18  C9  UNL     1      -8.085  -2.526  -1.306  1.00  0.00     0.406 C 
HETATM   19  N4  UNL     1      -8.227  -3.873  -0.793  1.00  0.00    -0.082 NA
HETATM   20  N5  UNL     1      -9.326  -4.315  -1.580  1.00  0.00    -0.084 NA
HETATM   21  C10 UNL     1      -8.883  -3.884  -2.904  1.00  0.00     0.378 C 
HETATM   22  O3  UNL     1      -8.316  -2.645  -2.694  1.00  0.00    -0.298 OA
BRANCH  21  23
HETATM   23  O2  UNL     1      -9.934  -3.853  -3.816  1.00  0.00    -0.357 OA
ATOM     24  H2  UNL     1     -10.675  -3.358  -3.485  1.00  0.00     0.214 HD
ENDBRANCH  21  23
ENDBRANCH  17  18
ENDBRANCH  13  17
ENDBRANCH   5   7
ENDBRANCH   1   5
BRANCH   1  25
HETATM   25  C11 UNL     1     -12.052  -1.525   6.072  1.00  0.00     0.124 C 
HETATM   26  N7  UNL     1     -11.030  -1.483   6.829  1.00  0.00    -0.266 N 
ATOM     27  H7  UNL     1     -11.081  -0.843   7.621  1.00  0.00     0.194 HD
BRANCH  26  28
HETATM   28  O4  UNL     1      -9.877  -2.194   6.705  1.00  0.00    -0.290 OA
ATOM     29  H4  UNL     1      -9.020  -1.867   6.460  1.00  0.00     0.244 HD
ENDBRANCH  26  28
BRANCH  25  30
HETATM   30  C12 UNL     1     -13.212  -0.697   6.311  1.00  0.00     0.288 C 
HETATM   31  O5  UNL     1     -13.457   0.301   5.607  1.00  0.00    -0.264 OA
HETATM   32  N8  UNL     1     -14.114  -1.022   7.383  1.00  0.00    -0.253 N 
HETATM   33  C13 UNL     1     -14.021  -2.111   8.335  1.00  0.00     0.199 A 
HETATM   34  N9  UNL     1     -15.269  -0.321   7.671  1.00  0.00    -0.307 N 
HETATM   35  C14 UNL     1     -15.176  -1.910   9.257  1.00  0.00     0.139 A 
HETATM   36  C22 UNL     1     -15.918  -0.726   8.671  1.00  0.00     0.122 A 
ATOM     37  H9  UNL     1     -15.576   0.474   7.110  1.00  0.00     0.186 HD
BRANCH  35  38
HETATM   38  O6  UNL     1     -16.119  -2.943   9.211  1.00  0.00    -0.380 OA
ATOM     39  H6  UNL     1     -17.018  -2.642   9.268  1.00  0.00     0.211 HD
ENDBRANCH  35  38
BRANCH  35  40
HETATM   40  C15 UNL     1     -14.793  -1.577  10.678  1.00  0.00     0.192 C 
BRANCH  40  41
HETATM   41  O7  UNL     1     -15.218  -2.687  11.445  1.00  0.00    -0.387 OA
ATOM     42  H7  UNL     1     -14.454  -3.247  11.515  1.00  0.00     0.210 HD
ENDBRANCH  40  41
BRANCH  40  43
HETATM   43  C16 UNL     1     -13.311  -1.541  10.879  1.00  0.00    -0.026 A 
HETATM   44  C17 UNL     1     -12.681  -2.685  11.404  1.00  0.00     0.010 A 
HETATM   45  C18 UNL     1     -11.327  -2.727  11.612  1.00  0.00     0.001 A 
HETATM   46  C19 UNL     1     -10.553  -1.633  11.306  1.00  0.00     0.000 A 
HETATM   47  C20 UNL     1     -11.108  -0.490  10.793  1.00  0.00     0.001 A 
HETATM   48  C21 UNL     1     -12.498  -0.484  10.593  1.00  0.00     0.010 A 
ENDBRANCH  40  43
ENDBRANCH  35  40
ENDBRANCH  25  30
ENDBRANCH   1  25
TORSDOF 13
ENDMDL
MODEL 5
REMARK VINA RESULT: -9.159231452      3.954      5.597
REMARK  13 active torsions:
REMARK  status: ('A' for Active; 'I' for Inactive)
REMARK    1  A    between atoms: C2_2  and  C4_4 
REMARK    2  A    between atoms: C4_4  and  N1_5 
REMARK    3  A    between atoms: C4_4  and  C11_25 
REMARK    4  A    between atoms: N1_5  and  C5_7 
REMARK    5  A    between atoms: N3_13  and  O1_15 
REMARK    6  A    between atoms: O1_15  and  C9_16 
REMARK    7  A    between atoms: C10_19  and  O2_20 
REMARK    8  A    between atoms: C11_25  and  C12_30 
REMARK    9  A    between atoms: N7_26  and  O4_28 
REMARK       I    between atoms: C12_30  and  N8_32 
REMARK   10  A    between atoms: C14_34  and  O6_35 
REMARK   11  A    between atoms: C14_34  and  C15_37 
REMARK   12  A    between atoms: C15_37  and  O7_38 
REMARK   13  A    between atoms: C15_37  and  C16_40 
ROOT
HETATM    1  C4  UNL     1     -13.210  -2.379   5.152  1.00  0.00     0.144 C 
ENDROOT
BRANCH   1   2
HETATM    2  C2  UNL     1     -13.371  -1.756   6.521  1.00  0.00     0.006 C 
HETATM    3  C1  UNL     1     -12.030  -1.722   7.247  1.00  0.00     0.012 C 
HETATM    4  C3  UNL     1     -13.813  -0.315   6.395  1.00  0.00     0.012 C 
ENDBRANCH   1   2
BRANCH   1   5
HETATM    5  N1  UNL     1     -12.004  -2.045   4.486  1.00  0.00    -0.365 N 
ATOM      6  H1  UNL     1     -11.175  -2.044   5.080  1.00  0.00     0.161 HD
BRANCH   5   7
HETATM    7  C5  UNL     1     -11.785  -1.748   3.269  1.00  0.00     0.118 A 
HETATM    8  C6  UNL     1     -12.750  -0.979   2.595  1.00  0.00     0.066 A 
HETATM    9  C7  UNL     1     -12.531  -0.648   1.281  1.00  0.00     0.110 A 
HETATM   10  N2  UNL     1     -11.400  -1.066   0.666  1.00  0.00    -0.200 N 
HETATM   11  C8  UNL     1     -10.508  -1.793   1.337  1.00  0.00     0.703 A 
ATOM     12  H2  UNL     1     -11.231  -0.824  -0.311  1.00  0.00     0.183 HD
HETATM   13  N3  UNL     1      -9.437  -2.194   0.753  1.00  0.00    -0.092 N 
HETATM   14  N6  UNL     1     -10.672  -2.155   2.653  1.00  0.00    -0.175 N 
ATOM     15  H3  UNL     1      -8.752  -2.752   1.262  1.00  0.00     0.213 HD
ATOM     16  H6  UNL     1      -9.971  -2.713   3.140  1.00  0.00     0.186 HD
BRANCH  13  17
HETATM   17  O1  UNL     1      -9.223  -1.865  -0.559  1.00  0.00    -0.214 OA
BRANCH  17  18
HETATM   18  C9  UNL     1      -8.148  -2.521  -1.232  1.00  0.00     0.406 C 
HETATM   19  N4  UNL     1      -8.160  -3.910  -0.821  1.00  0.00    -0.082 NA
HETATM   20  N5  UNL     1      -9.264  -4.377  -1.587  1.00  0.00    -0.084 NA
HETATM   21  C10 UNL     1      -8.928  -3.813  -2.892  1.00  0.00     0.378 C 
HETATM   22  O3  UNL     1      -8.444  -2.553  -2.612  1.00  0.00    -0.298 OA
BRANCH  21  23
HETATM   23  O2  UNL     1     -10.026  -3.797  -3.747  1.00  0.00    -0.357 OA
ATOM     24  H2  UNL     1     -10.377  -2.921  -3.854  1.00  0.00     0.214 HD
ENDBRANCH  21  23
ENDBRANCH  17  18
ENDBRANCH  13  17
ENDBRANCH   5   7
ENDBRANCH   1   5
BRANCH   1  25
HETATM   25  C11 UNL     1     -13.419  -3.873   5.198  1.00  0.00     0.124 C 
HETATM   26  N7  UNL     1     -14.554  -4.349   5.523  1.00  0.00    -0.266 N 
ATOM     27  H7  UNL     1     -14.630  -5.365   5.535  1.00  0.00     0.194 HD
BRANCH  26  28
HETATM   28  O4  UNL     1     -15.678  -3.659   5.855  1.00  0.00    -0.290 OA
ATOM     29  H4  UNL     1     -16.580  -3.919   5.710  1.00  0.00     0.244 HD
ENDBRANCH  26  28
BRANCH  25  30
HETATM   30  C12 UNL     1     -12.306  -4.725   4.849  1.00  0.00     0.288 C 
HETATM   31  O5  UNL     1     -11.931  -4.857   3.668  1.00  0.00    -0.264 OA
HETATM   32  N8  UNL     1     -11.606  -5.444   5.879  1.00  0.00    -0.253 N 
HETATM   33  C13 UNL     1     -11.875  -5.462   7.303  1.00  0.00     0.199 A 
HETATM   34  N9  UNL     1     -10.508  -6.253   5.658  1.00  0.00    -0.307 N 
HETATM   35  C14 UNL     1     -10.892  -6.433   7.864  1.00  0.00     0.139 A 
HETATM   36  C22 UNL     1     -10.045  -6.835   6.673  1.00  0.00     0.122 A 
ATOM     37  H9  UNL     1     -10.098  -6.370   4.731  1.00  0.00     0.186 HD
BRANCH  35  38
HETATM   38  O6  UNL     1      -9.969  -5.855   8.743  1.00  0.00    -0.380 OA
ATOM     39  H6  UNL     1      -9.071  -6.119   8.582  1.00  0.00     0.211 HD
ENDBRANCH  35  38
BRANCH  35  40
HETATM   40  C15 UNL     1     -11.508  -7.679   8.452  1.00  0.00     0.192 C 
BRANCH  40  41
HETATM   41  O7  UNL     1     -11.682  -8.557   7.356  1.00  0.00    -0.387 OA
ATOM     42  H7  UNL     1     -11.954  -9.383   7.741  1.00  0.00     0.210 HD
ENDBRANCH  40  41
BRANCH  40  43
HETATM   43  C16 UNL     1     -10.570  -8.409   9.359  1.00  0.00    -0.026 A 
HETATM   44  C17 UNL     1      -9.651  -9.308   8.786  1.00  0.00     0.010 A 
HETATM   45  C18 UNL     1      -8.759 -10.009   9.555  1.00  0.00     0.001 A 
HETATM   46  C19 UNL     1      -8.750  -9.841  10.919  1.00  0.00     0.000 A 
HETATM   47  C20 UNL     1      -9.621  -8.981  11.536  1.00  0.00     0.001 A 
HETATM   48  C21 UNL     1     -10.520  -8.280  10.716  1.00  0.00     0.010 A 
ENDBRANCH  40  43
ENDBRANCH  35  40
ENDBRANCH  25  30
ENDBRANCH   1  25
TORSDOF 13
ENDMDL
