MODEL 1
REMARK VINA RESULT: -5.575432121      0.000      0.000
REMARK  17 active torsions:
REMARK  status: ('A' for Active; 'I' for Inactive)
REMARK    1  A    between atoms: C2_2  and  C3_3 
REMARK    2  A    between atoms: C3_3  and  C4_4 
REMARK    3  A    between atoms: C5_5  and  O1_6 
REMARK    4  A    between atoms: C7_8  and  N1_9 
REMARK    5  A    between atoms: C10_16  and  C11_17 
REMARK    6  A    between atoms: C10_16  and  O4_20 
REMARK    7  A    between atoms: C11_17  and  O3_18 
REMARK    8  A    between atoms: O4_20  and  C12_21 
REMARK    9  A    between atoms: C13_22  and  N2_23 
REMARK   10  A    between atoms: C15_28  and  N3_29 
REMARK   11  A    between atoms: C16_33  and  O5_34 
REMARK   12  A    between atoms: O5_34  and  C17_35 
REMARK   13  A    between atoms: C18_36  and  N4_37 
REMARK   14  A    between atoms: C20_42  and  N5_43 
REMARK   15  A    between atoms: C22_48  and  N6_49 
REMARK   16  A    between atoms: C23_53  and  O6_54 
REMARK   17  A    between atoms: C24_56  and  O7_57 
ROOT
HETATM    1  C12 UNL     1     -10.948  -2.000   9.082  1.00  0.00     0.187 C 
HETATM    2  C13 UNL     1     -10.753  -0.897  10.026  1.00  0.00     0.217 C 
HETATM    3  C14 UNL     1     -11.924  -0.735  10.952  1.00  0.00     0.071 C 
HETATM    4  C15 UNL     1     -12.072  -1.892  11.913  1.00  0.00     0.217 C 
HETATM    5  C16 UNL     1     -11.611  -3.192  11.255  1.00  0.00     0.183 C 
HETATM    6  C24 UNL     1     -11.690  -3.093   9.750  1.00  0.00     0.180 C 
ENDROOT
BRANCH   5   7
HETATM    7  O5  UNL     1     -12.422  -4.185  11.703  1.00  0.00    -0.371 OA
BRANCH   7   8
HETATM    8  C17 UNL     1     -12.386  -5.447  11.240  1.00  0.00     0.183 C 
HETATM    9  C18 UNL     1     -13.742  -6.125  11.170  1.00  0.00     0.216 C 
HETATM   10  C19 UNL     1     -13.664  -7.570  10.745  1.00  0.00     0.068 C 
HETATM   11  C20 UNL     1     -12.722  -7.748   9.593  1.00  0.00     0.187 C 
HETATM   12  C21 UNL     1     -11.308  -7.965  10.062  1.00  0.00     0.068 C 
HETATM   13  C22 UNL     1     -11.077  -7.623  11.480  1.00  0.00     0.216 C 
HETATM   14  C23 UNL     1     -11.360  -6.254  11.942  1.00  0.00     0.179 C 
BRANCH   9  15
HETATM   15  N4  UNL     1     -14.544  -5.479  10.113  1.00  0.00    -0.072 N 
ATOM     16  H43 UNL     1     -15.218  -4.812  10.489  1.00  0.00     0.274 HD
ATOM     17  H42 UNL     1     -13.996  -4.827   9.552  1.00  0.00     0.274 HD
ATOM     18  H41 UNL     1     -14.987  -6.202   9.547  1.00  0.00     0.274 HD
ENDBRANCH   9  15
BRANCH  11  19
HETATM   19  N5  UNL     1     -13.194  -8.893   8.816  1.00  0.00    -0.075 N 
ATOM     20  H53 UNL     1     -13.358  -9.723   9.387  1.00  0.00     0.274 HD
ATOM     21  H52 UNL     1     -14.148  -8.777   8.475  1.00  0.00     0.274 HD
ATOM     22  H51 UNL     1     -12.520  -9.052   8.067  1.00  0.00     0.274 HD
ENDBRANCH  11  19
BRANCH  13  23
HETATM   23  N6  UNL     1      -9.665  -7.979  11.763  1.00  0.00    -0.072 N 
ATOM     24  H63 UNL     1      -9.038  -7.809  10.977  1.00  0.00     0.274 HD
ATOM     25  H62 UNL     1      -9.211  -7.348  12.423  1.00  0.00     0.274 HD
ATOM     26  H61 UNL     1      -9.676  -8.951  12.071  1.00  0.00     0.274 HD
ENDBRANCH  13  23
BRANCH  14  27
HETATM   27  O6  UNL     1     -11.578  -6.299  13.340  1.00  0.00    -0.391 OA
ATOM     28  H6  UNL     1     -11.233  -7.093  13.732  1.00  0.00     0.210 HD
ENDBRANCH  14  27
ENDBRANCH   7   8
ENDBRANCH   5   7
BRANCH   4  29
HETATM   29  N3  UNL     1     -11.421  -1.627  13.178  1.00  0.00    -0.072 N 
ATOM     30  H33 UNL     1     -11.614  -0.680  13.504  1.00  0.00     0.274 HD
ATOM     31  H32 UNL     1     -11.858  -2.150  13.937  1.00  0.00     0.274 HD
ATOM     32  H31 UNL     1     -10.418  -1.807  13.133  1.00  0.00     0.274 HD
ENDBRANCH   4  29
BRANCH   6  33
HETATM   33  O7  UNL     1     -13.070  -2.842   9.499  1.00  0.00    -0.390 OA
ATOM     34  H7  UNL     1     -13.181  -1.902   9.566  1.00  0.00     0.210 HD
ENDBRANCH   6  33
BRANCH   1  35
HETATM   35  O4  UNL     1     -11.316  -1.707   7.811  1.00  0.00    -0.343 OA
BRANCH  35  36
HETATM   36  C10 UNL     1     -10.704  -2.330   6.749  1.00  0.00     0.192 C 
HETATM   37  C4  UNL     1     -11.524  -1.970   5.520  1.00  0.00     0.085 C 
HETATM   38  C5  UNL     1     -11.268  -2.848   4.363  1.00  0.00     0.163 C 
HETATM   39  C7  UNL     1     -11.298  -4.322   4.675  1.00  0.00     0.241 C 
HETATM   40  C8  UNL     1     -10.914  -4.612   6.094  1.00  0.00     0.154 C 
HETATM   41  C9  UNL     1     -12.026  -5.504   6.681  1.00  0.00     0.042 C 
HETATM   42  O2  UNL     1     -10.709  -3.629   6.940  1.00  0.00    -0.345 OA
BRANCH  37  43
HETATM   43  C3  UNL     1     -12.976  -1.834   5.805  1.00  0.00     0.039 C 
BRANCH  43  44
HETATM   44  C2  UNL     1     -13.581  -0.525   5.597  1.00  0.00    -0.036 C 
HETATM   45  C1  UNL     1     -14.189  -0.217   4.460  1.00  0.00     0.007 C 
ENDBRANCH  43  44
ENDBRANCH  37  43
BRANCH  38  46
HETATM   46  O1  UNL     1     -12.113  -2.589   3.312  1.00  0.00    -0.388 OA
HETATM   47  C6  UNL     1     -11.579  -1.795   2.321  1.00  0.00     0.202 C 
ENDBRANCH  38  46
BRANCH  39  48
HETATM   48  N1  UNL     1     -12.556  -4.928   4.293  1.00  0.00    -0.070 N 
ATOM     49  H13 UNL     1     -13.028  -5.342   5.097  1.00  0.00     0.274 HD
ATOM     50  H12 UNL     1     -13.248  -4.221   4.047  1.00  0.00     0.274 HD
ATOM     51  H11 UNL     1     -12.437  -5.609   3.542  1.00  0.00     0.274 HD
ENDBRANCH  39  48
BRANCH  36  52
HETATM   52  C11 UNL     1      -9.353  -1.686   6.472  1.00  0.00     0.233 C 
BRANCH  52  53
HETATM   53  O3  UNL     1      -9.566  -0.326   6.229  1.00  0.00    -0.395 OA
ATOM     54  H3  UNL     1      -9.481  -0.179   5.294  1.00  0.00     0.209 HD
ENDBRANCH  52  53
ENDBRANCH  36  52
ENDBRANCH  35  36
ENDBRANCH   1  35
BRANCH   2  55
HETATM   55  N2  UNL     1      -9.574  -0.972  10.852  1.00  0.00    -0.072 N 
ATOM     56  H23 UNL     1      -9.040  -1.809  10.617  1.00  0.00     0.274 HD
ATOM     57  H22 UNL     1      -8.912  -0.248  10.577  1.00  0.00     0.274 HD
ATOM     58  H21 UNL     1      -9.731  -0.934  11.859  1.00  0.00     0.274 HD
ENDBRANCH   2  55
TORSDOF 17
ENDMDL
MODEL 2
REMARK VINA RESULT: -5.334210015      3.224      6.382
REMARK  17 active torsions:
REMARK  status: ('A' for Active; 'I' for Inactive)
REMARK    1  A    between atoms: C2_2  and  C3_3 
REMARK    2  A    between atoms: C3_3  and  C4_4 
REMARK    3  A    between atoms: C5_5  and  O1_6 
REMARK    4  A    between atoms: C7_8  and  N1_9 
REMARK    5  A    between atoms: C10_16  and  C11_17 
REMARK    6  A    between atoms: C10_16  and  O4_20 
REMARK    7  A    between atoms: C11_17  and  O3_18 
REMARK    8  A    between atoms: O4_20  and  C12_21 
REMARK    9  A    between atoms: C13_22  and  N2_23 
REMARK   10  A    between atoms: C15_28  and  N3_29 
REMARK   11  A    between atoms: C16_33  and  O5_34 
REMARK   12  A    between atoms: O5_34  and  C17_35 
REMARK   13  A    between atoms: C18_36  and  N4_37 
REMARK   14  A    between atoms: C20_42  and  N5_43 
REMARK   15  A    between atoms: C22_48  and  N6_49 
REMARK   16  A    between atoms: C23_53  and  O6_54 
REMARK   17  A    between atoms: C24_56  and  O7_57 
ROOT
HETATM    1  C12 UNL     1     -12.123  -4.412   7.288  1.00  0.00     0.187 C 
HETATM    2  C13 UNL     1     -13.084  -5.185   6.497  1.00  0.00     0.217 C 
HETATM    3  C14 UNL     1     -12.499  -5.646   5.193  1.00  0.00     0.071 C 
HETATM    4  C15 UNL     1     -11.407  -6.675   5.376  1.00  0.00     0.217 C 
HETATM    5  C16 UNL     1     -10.639  -6.412   6.670  1.00  0.00     0.183 C 
HETATM    6  C24 UNL     1     -10.764  -4.966   7.088  1.00  0.00     0.180 C 
ENDROOT
BRANCH   5   7
HETATM    7  O5  UNL     1      -9.337  -6.722   6.442  1.00  0.00    -0.371 OA
BRANCH   7   8
HETATM    8  C17 UNL     1      -8.757  -7.866   6.847  1.00  0.00     0.183 C 
HETATM    9  C18 UNL     1      -7.728  -7.687   7.949  1.00  0.00     0.216 C 
HETATM   10  C19 UNL     1      -7.021  -8.968   8.316  1.00  0.00     0.068 C 
HETATM   11  C20 UNL     1      -7.984 -10.110   8.424  1.00  0.00     0.187 C 
HETATM   12  C21 UNL     1      -8.196 -10.784   7.095  1.00  0.00     0.068 C 
HETATM   13  C22 UNL     1      -7.715 -10.007   5.934  1.00  0.00     0.216 C 
HETATM   14  C23 UNL     1      -8.258  -8.659   5.699  1.00  0.00     0.179 C 
BRANCH   9  15
HETATM   15  N4  UNL     1      -8.422  -7.288   9.189  1.00  0.00    -0.072 N 
ATOM     16  H43 UNL     1      -7.772  -7.032   9.933  1.00  0.00     0.274 HD
ATOM     17  H42 UNL     1      -8.896  -6.390   9.098  1.00  0.00     0.274 HD
ATOM     18  H41 UNL     1      -9.056  -8.037   9.468  1.00  0.00     0.274 HD
ENDBRANCH   9  15
BRANCH  11  19
HETATM   19  N5  UNL     1      -7.439 -11.050   9.403  1.00  0.00    -0.075 N 
ATOM     20  H53 UNL     1      -7.890 -11.965   9.371  1.00  0.00     0.274 HD
ATOM     21  H52 UNL     1      -6.495 -11.360   9.174  1.00  0.00     0.274 HD
ATOM     22  H51 UNL     1      -7.503 -10.607  10.319  1.00  0.00     0.274 HD
ENDBRANCH  11  19
BRANCH  13  23
HETATM   23  N6  UNL     1      -7.938 -10.865   4.745  1.00  0.00    -0.072 N 
ATOM     24  H63 UNL     1      -8.853 -11.317   4.736  1.00  0.00     0.274 HD
ATOM     25  H62 UNL     1      -8.051 -10.338   3.879  1.00  0.00     0.274 HD
ATOM     26  H61 UNL     1      -7.160 -11.524   4.723  1.00  0.00     0.274 HD
ENDBRANCH  13  23
BRANCH  14  27
HETATM   27  O6  UNL     1      -7.323  -7.940   4.917  1.00  0.00    -0.391 OA
ATOM     28  H6  UNL     1      -6.427  -8.097   5.192  1.00  0.00     0.210 HD
ENDBRANCH  14  27
ENDBRANCH   7   8
ENDBRANCH   5   7
BRANCH   4  29
HETATM   29  N3  UNL     1     -11.919  -8.025   5.277  1.00  0.00    -0.072 N 
ATOM     30  H33 UNL     1     -12.900  -8.072   5.554  1.00  0.00     0.274 HD
ATOM     31  H32 UNL     1     -12.014  -8.315   4.303  1.00  0.00     0.274 HD
ATOM     32  H31 UNL     1     -11.351  -8.685   5.807  1.00  0.00     0.274 HD
ENDBRANCH   4  29
BRANCH   6  33
HETATM   33  O7  UNL     1     -10.204  -4.247   5.993  1.00  0.00    -0.390 OA
ATOM     34  H7  UNL     1      -9.382  -4.677   5.791  1.00  0.00     0.210 HD
ENDBRANCH   6  33
BRANCH   1  35
HETATM   35  O4  UNL     1     -12.230  -3.061   7.297  1.00  0.00    -0.343 OA
BRANCH  35  36
HETATM   36  C10 UNL     1     -13.274  -2.452   7.953  1.00  0.00     0.192 C 
HETATM   37  C4  UNL     1     -12.643  -1.514   8.970  1.00  0.00     0.085 C 
HETATM   38  C5  UNL     1     -13.576  -1.075  10.025  1.00  0.00     0.163 C 
HETATM   39  C7  UNL     1     -14.367  -2.187  10.665  1.00  0.00     0.241 C 
HETATM   40  C8  UNL     1     -14.580  -3.343   9.736  1.00  0.00     0.154 C 
HETATM   41  C9  UNL     1     -14.128  -4.608  10.491  1.00  0.00     0.042 C 
HETATM   42  O2  UNL     1     -14.004  -3.362   8.556  1.00  0.00    -0.345 OA
BRANCH  37  43
HETATM   43  C3  UNL     1     -11.371  -2.035   9.534  1.00  0.00     0.039 C 
BRANCH  43  44
HETATM   44  C2  UNL     1     -10.157  -1.277   9.262  1.00  0.00    -0.036 C 
HETATM   45  C1  UNL     1      -9.304  -0.967  10.229  1.00  0.00     0.007 C 
ENDBRANCH  43  44
ENDBRANCH  37  43
BRANCH  38  46
HETATM   46  O1  UNL     1     -12.952  -0.341  11.003  1.00  0.00    -0.388 OA
HETATM   47  C6  UNL     1     -13.638   0.782  11.411  1.00  0.00     0.202 C 
ENDBRANCH  38  46
BRANCH  39  48
HETATM   48  N1  UNL     1     -13.809  -2.580  11.941  1.00  0.00    -0.070 N 
ATOM     49  H13 UNL     1     -13.652  -3.587  11.983  1.00  0.00     0.274 HD
ATOM     50  H12 UNL     1     -12.844  -2.264  12.037  1.00  0.00     0.274 HD
ATOM     51  H11 UNL     1     -14.384  -2.262  12.721  1.00  0.00     0.274 HD
ENDBRANCH  39  48
BRANCH  36  52
HETATM   52  C11 UNL     1     -14.004  -1.507   7.009  1.00  0.00     0.233 C 
BRANCH  52  53
HETATM   53  O3  UNL     1     -13.058  -0.643   6.447  1.00  0.00    -0.395 OA
ATOM     54  H3  UNL     1     -13.032   0.146   6.976  1.00  0.00     0.209 HD
ENDBRANCH  52  53
ENDBRANCH  36  52
ENDBRANCH  35  36
ENDBRANCH   1  35
BRANCH   2  55
HETATM   55  N2  UNL     1     -13.641  -6.349   7.140  1.00  0.00    -0.072 N 
ATOM     56  H23 UNL     1     -12.920  -7.062   7.249  1.00  0.00     0.274 HD
ATOM     57  H22 UNL     1     -13.843  -6.141   8.118  1.00  0.00     0.274 HD
ATOM     58  H21 UNL     1     -14.464  -6.755   6.695  1.00  0.00     0.274 HD
ENDBRANCH   2  55
TORSDOF 17
ENDMDL
MODEL 3
REMARK VINA RESULT: -5.311241556      3.211      7.377
REMARK  17 active torsions:
REMARK  status: ('A' for Active; 'I' for Inactive)
REMARK    1  A    between atoms: C2_2  and  C3_3 
REMARK    2  A    between atoms: C3_3  and  C4_4 
REMARK    3  A    between atoms: C5_5  and  O1_6 
REMARK    4  A    between atoms: C7_8  and  N1_9 
REMARK    5  A    between atoms: C10_16  and  C11_17 
REMARK    6  A    between atoms: C10_16  and  O4_20 
REMARK    7  A    between atoms: C11_17  and  O3_18 
REMARK    8  A    between atoms: O4_20  and  C12_21 
REMARK    9  A    between atoms: C13_22  and  N2_23 
REMARK   10  A    between atoms: C15_28  and  N3_29 
REMARK   11  A    between atoms: C16_33  and  O5_34 
REMARK   12  A    between atoms: O5_34  and  C17_35 
REMARK   13  A    between atoms: C18_36  and  N4_37 
REMARK   14  A    between atoms: C20_42  and  N5_43 
REMARK   15  A    between atoms: C22_48  and  N6_49 
REMARK   16  A    between atoms: C23_53  and  O6_54 
REMARK   17  A    between atoms: C24_56  and  O7_57 
ROOT
HETATM    1  C12 UNL     1     -12.633  -5.817   8.460  1.00  0.00     0.187 C 
HETATM    2  C13 UNL     1     -13.079  -4.906   7.403  1.00  0.00     0.217 C 
HETATM    3  C14 UNL     1     -11.963  -4.034   6.903  1.00  0.00     0.071 C 
HETATM    4  C15 UNL     1     -10.902  -4.814   6.160  1.00  0.00     0.217 C 
HETATM    5  C16 UNL     1     -10.761  -6.215   6.752  1.00  0.00     0.183 C 
HETATM    6  C24 UNL     1     -11.244  -6.250   8.182  1.00  0.00     0.180 C 
ENDROOT
BRANCH   5   7
HETATM    7  O5  UNL     1      -9.446  -6.551   6.694  1.00  0.00    -0.371 OA
BRANCH   7   8
HETATM    8  C17 UNL     1      -8.963  -7.754   7.051  1.00  0.00     0.183 C 
HETATM    9  C18 UNL     1      -7.687  -7.697   7.871  1.00  0.00     0.216 C 
HETATM   10  C19 UNL     1      -7.112  -9.059   8.173  1.00  0.00     0.068 C 
HETATM   11  C20 UNL     1      -8.182 -10.020   8.592  1.00  0.00     0.187 C 
HETATM   12  C21 UNL     1      -8.803 -10.710   7.408  1.00  0.00     0.068 C 
HETATM   13  C22 UNL     1      -8.501 -10.078   6.107  1.00  0.00     0.216 C 
HETATM   14  C23 UNL     1      -8.877  -8.671   5.890  1.00  0.00     0.179 C 
BRANCH   9  15
HETATM   15  N4  UNL     1      -7.998  -7.133   9.199  1.00  0.00    -0.072 N 
ATOM     16  H43 UNL     1      -8.506  -7.789   9.791  1.00  0.00     0.274 HD
ATOM     17  H42 UNL     1      -7.167  -7.029   9.782  1.00  0.00     0.274 HD
ATOM     18  H41 UNL     1      -8.498  -6.253   9.075  1.00  0.00     0.274 HD
ENDBRANCH   9  15
BRANCH  11  19
HETATM   19  N5  UNL     1      -7.566 -10.991   9.496  1.00  0.00    -0.075 N 
ATOM     20  H53 UNL     1      -6.549 -11.018   9.419  1.00  0.00     0.274 HD
ATOM     21  H52 UNL     1      -7.617 -10.711  10.476  1.00  0.00     0.274 HD
ATOM     22  H51 UNL     1      -8.003 -11.895   9.317  1.00  0.00     0.274 HD
ENDBRANCH  11  19
BRANCH  13  23
HETATM   23  N6  UNL     1      -9.127 -10.941   5.077  1.00  0.00    -0.072 N 
ATOM     24  H63 UNL     1      -9.094 -11.935   5.304  1.00  0.00     0.274 HD
ATOM     25  H62 UNL     1     -10.143 -10.857   5.038  1.00  0.00     0.274 HD
ATOM     26  H61 UNL     1      -8.665 -10.711   4.197  1.00  0.00     0.274 HD
ENDBRANCH  13  23
BRANCH  14  27
HETATM   27  O6  UNL     1      -8.058  -8.153   4.858  1.00  0.00    -0.391 OA
ATOM     28  H6  UNL     1      -7.839  -8.810   4.208  1.00  0.00     0.210 HD
ENDBRANCH  14  27
ENDBRANCH   7   8
ENDBRANCH   5   7
BRANCH   4  29
HETATM   29  N3  UNL     1     -11.137  -4.815   4.732  1.00  0.00    -0.072 N 
ATOM     30  H33 UNL     1     -11.618  -5.663   4.435  1.00  0.00     0.274 HD
ATOM     31  H32 UNL     1     -11.846  -4.129   4.472  1.00  0.00     0.274 HD
ATOM     32  H31 UNL     1     -10.274  -4.674   4.207  1.00  0.00     0.274 HD
ENDBRANCH   4  29
BRANCH   6  33
HETATM   33  O7  UNL     1     -10.401  -5.314   8.848  1.00  0.00    -0.390 OA
ATOM     34  H7  UNL     1     -10.091  -5.753   9.632  1.00  0.00     0.210 HD
ENDBRANCH   6  33
BRANCH   1  35
HETATM   35  O4  UNL     1     -12.924  -5.506   9.747  1.00  0.00    -0.343 OA
BRANCH  35  36
HETATM   36  C10 UNL     1     -13.531  -6.431  10.564  1.00  0.00     0.192 C 
HETATM   37  C4  UNL     1     -13.465  -5.857  11.971  1.00  0.00     0.085 C 
HETATM   38  C5  UNL     1     -13.701  -6.859  13.028  1.00  0.00     0.163 C 
HETATM   39  C7  UNL     1     -12.905  -8.129  12.876  1.00  0.00     0.241 C 
HETATM   40  C8  UNL     1     -12.577  -8.429  11.445  1.00  0.00     0.154 C 
HETATM   41  C9  UNL     1     -11.057  -8.675  11.381  1.00  0.00     0.042 C 
HETATM   42  O2  UNL     1     -12.877  -7.568  10.501  1.00  0.00    -0.345 OA
BRANCH  37  43
HETATM   43  C3  UNL     1     -12.234  -5.063  12.221  1.00  0.00     0.039 C 
BRANCH  43  44
HETATM   44  C2  UNL     1     -12.392  -3.631  12.436  1.00  0.00    -0.036 C 
HETATM   45  C1  UNL     1     -11.771  -2.744  11.670  1.00  0.00     0.007 C 
ENDBRANCH  43  44
ENDBRANCH  37  43
BRANCH  38  46
HETATM   46  O1  UNL     1     -13.504  -6.347  14.286  1.00  0.00    -0.388 OA
HETATM   47  C6  UNL     1     -14.650  -6.199  15.037  1.00  0.00     0.202 C 
ENDBRANCH  38  46
BRANCH  39  48
HETATM   48  N1  UNL     1     -11.743  -8.144  13.739  1.00  0.00    -0.070 N 
ATOM     49  H13 UNL     1     -11.193  -7.292  13.634  1.00  0.00     0.274 HD
ATOM     50  H12 UNL     1     -12.008  -8.044  14.719  1.00  0.00     0.274 HD
ATOM     51  H11 UNL     1     -11.171  -8.976  13.592  1.00  0.00     0.274 HD
ENDBRANCH  39  48
BRANCH  36  52
HETATM   52  C11 UNL     1     -15.025  -6.484  10.275  1.00  0.00     0.233 C 
BRANCH  52  53
HETATM   53  O3  UNL     1     -15.540  -5.194  10.432  1.00  0.00    -0.395 OA
ATOM     54  H3  UNL     1     -16.322  -5.124   9.897  1.00  0.00     0.209 HD
ENDBRANCH  52  53
ENDBRANCH  36  52
ENDBRANCH  35  36
ENDBRANCH   1  35
BRANCH   2  55
HETATM   55  N2  UNL     1     -13.677  -5.525   6.245  1.00  0.00    -0.072 N 
ATOM     56  H23 UNL     1     -14.110  -6.409   6.511  1.00  0.00     0.274 HD
ATOM     57  H22 UNL     1     -14.500  -4.996   5.957  1.00  0.00     0.274 HD
ATOM     58  H21 UNL     1     -13.060  -5.668   5.446  1.00  0.00     0.274 HD
ENDBRANCH   2  55
TORSDOF 17
ENDMDL
MODEL 4
REMARK VINA RESULT: -5.266293786      2.329      7.478
REMARK  17 active torsions:
REMARK  status: ('A' for Active; 'I' for Inactive)
REMARK    1  A    between atoms: C2_2  and  C3_3 
REMARK    2  A    between atoms: C3_3  and  C4_4 
REMARK    3  A    between atoms: C5_5  and  O1_6 
REMARK    4  A    between atoms: C7_8  and  N1_9 
REMARK    5  A    between atoms: C10_16  and  C11_17 
REMARK    6  A    between atoms: C10_16  and  O4_20 
REMARK    7  A    between atoms: C11_17  and  O3_18 
REMARK    8  A    between atoms: O4_20  and  C12_21 
REMARK    9  A    between atoms: C13_22  and  N2_23 
REMARK   10  A    between atoms: C15_28  and  N3_29 
REMARK   11  A    between atoms: C16_33  and  O5_34 
REMARK   12  A    between atoms: O5_34  and  C17_35 
REMARK   13  A    between atoms: C18_36  and  N4_37 
REMARK   14  A    between atoms: C20_42  and  N5_43 
REMARK   15  A    between atoms: C22_48  and  N6_49 
REMARK   16  A    between atoms: C23_53  and  O6_54 
REMARK   17  A    between atoms: C24_56  and  O7_57 
ROOT
HETATM    1  C12 UNL     1     -11.316  -6.320   9.335  1.00  0.00     0.187 C 
HETATM    2  C13 UNL     1     -10.372  -7.420   9.118  1.00  0.00     0.217 C 
HETATM    3  C14 UNL     1     -10.580  -8.085   7.788  1.00  0.00     0.071 C 
HETATM    4  C15 UNL     1     -10.224  -7.187   6.625  1.00  0.00     0.217 C 
HETATM    5  C16 UNL     1     -10.529  -5.729   6.966  1.00  0.00     0.183 C 
HETATM    6  C24 UNL     1     -11.578  -5.636   8.048  1.00  0.00     0.180 C 
ENDROOT
BRANCH   5   7
HETATM    7  O5  UNL     1     -10.974  -5.130   5.831  1.00  0.00    -0.371 OA
BRANCH   7   8
HETATM    8  C17 UNL     1     -11.429  -3.866   5.780  1.00  0.00     0.183 C 
HETATM    9  C18 UNL     1     -12.529  -3.639   4.759  1.00  0.00     0.216 C 
HETATM   10  C19 UNL     1     -12.952  -2.195   4.651  1.00  0.00     0.068 C 
HETATM   11  C20 UNL     1     -13.099  -1.568   6.004  1.00  0.00     0.187 C 
HETATM   12  C21 UNL     1     -11.797  -0.994   6.494  1.00  0.00     0.068 C 
HETATM   13  C22 UNL     1     -10.609  -1.451   5.743  1.00  0.00     0.216 C 
HETATM   14  C23 UNL     1     -10.317  -2.892   5.673  1.00  0.00     0.179 C 
BRANCH   9  15
HETATM   15  N4  UNL     1     -13.748  -4.340   5.208  1.00  0.00    -0.072 N 
ATOM     16  H43 UNL     1     -13.662  -4.699   6.159  1.00  0.00     0.274 HD
ATOM     17  H42 UNL     1     -14.528  -3.702   5.366  1.00  0.00     0.274 HD
ATOM     18  H41 UNL     1     -13.974  -5.072   4.534  1.00  0.00     0.274 HD
ENDBRANCH   9  15
BRANCH  11  19
HETATM   19  N5  UNL     1     -14.119  -0.525   5.893  1.00  0.00    -0.075 N 
ATOM     20  H53 UNL     1     -13.746   0.413   6.039  1.00  0.00     0.274 HD
ATOM     21  H52 UNL     1     -14.447  -0.390   4.937  1.00  0.00     0.274 HD
ATOM     22  H51 UNL     1     -14.868  -0.762   6.542  1.00  0.00     0.274 HD
ENDBRANCH  11  19
BRANCH  13  23
HETATM   23  N6  UNL     1      -9.454  -0.720   6.320  1.00  0.00    -0.072 N 
ATOM     24  H63 UNL     1      -9.027  -0.059   5.672  1.00  0.00     0.274 HD
ATOM     25  H62 UNL     1      -9.719  -0.042   7.034  1.00  0.00     0.274 HD
ATOM     26  H61 UNL     1      -8.808  -1.434   6.656  1.00  0.00     0.274 HD
ENDBRANCH  13  23
BRANCH  14  27
HETATM   27  O6  UNL     1      -9.512  -3.121   4.531  1.00  0.00    -0.391 OA
ATOM     28  H6  UNL     1      -9.069  -2.333   4.239  1.00  0.00     0.210 HD
ENDBRANCH  14  27
ENDBRANCH   7   8
ENDBRANCH   5   7
BRANCH   4  29
HETATM   29  N3  UNL     1      -8.864  -7.399   6.179  1.00  0.00    -0.072 N 
ATOM     30  H33 UNL     1      -8.336  -6.526   6.167  1.00  0.00     0.274 HD
ATOM     31  H32 UNL     1      -8.319  -7.906   6.877  1.00  0.00     0.274 HD
ATOM     32  H31 UNL     1      -8.831  -7.866   5.273  1.00  0.00     0.274 HD
ENDBRANCH   4  29
BRANCH   6  33
HETATM   33  O7  UNL     1     -12.711  -6.288   7.481  1.00  0.00    -0.390 OA
ATOM     34  H7  UNL     1     -13.085  -5.671   6.863  1.00  0.00     0.210 HD
ENDBRANCH   6  33
BRANCH   1  35
HETATM   35  O4  UNL     1     -12.388  -6.537  10.135  1.00  0.00    -0.343 OA
BRANCH  35  36
HETATM   36  C10 UNL     1     -12.491  -5.896  11.348  1.00  0.00     0.192 C 
HETATM   37  C4  UNL     1     -13.956  -5.521  11.503  1.00  0.00     0.085 C 
HETATM   38  C5  UNL     1     -14.195  -4.494  12.535  1.00  0.00     0.163 C 
HETATM   39  C7  UNL     1     -13.289  -3.293  12.445  1.00  0.00     0.241 C 
HETATM   40  C8  UNL     1     -11.962  -3.623  11.832  1.00  0.00     0.154 C 
HETATM   41  C9  UNL     1     -11.733  -2.606  10.698  1.00  0.00     0.042 C 
HETATM   42  O2  UNL     1     -11.738  -4.820  11.340  1.00  0.00    -0.345 OA
BRANCH  37  43
HETATM   43  C3  UNL     1     -14.611  -5.178  10.215  1.00  0.00     0.039 C 
BRANCH  43  44
HETATM   44  C2  UNL     1     -15.699  -6.038   9.766  1.00  0.00    -0.036 C 
HETATM   45  C1  UNL     1     -16.074  -7.100  10.466  1.00  0.00     0.007 C 
ENDBRANCH  43  44
ENDBRANCH  37  43
BRANCH  38  46
HETATM   46  O1  UNL     1     -15.502  -4.075  12.564  1.00  0.00    -0.388 OA
HETATM   47  C6  UNL     1     -16.282  -4.680  13.526  1.00  0.00     0.202 C 
ENDBRANCH  38  46
BRANCH  39  48
HETATM   48  N1  UNL     1     -13.944  -2.170  11.809  1.00  0.00    -0.070 N 
ATOM     49  H13 UNL     1     -13.522  -1.958  10.905  1.00  0.00     0.274 HD
ATOM     50  H12 UNL     1     -14.882  -2.418  11.494  1.00  0.00     0.274 HD
ATOM     51  H11 UNL     1     -13.960  -1.348  12.412  1.00  0.00     0.274 HD
ENDBRANCH  39  48
BRANCH  36  52
HETATM   52  C11 UNL     1     -12.257  -6.884  12.483  1.00  0.00     0.233 C 
BRANCH  52  53
HETATM   53  O3  UNL     1     -10.999  -6.619  13.031  1.00  0.00    -0.395 OA
ATOM     54  H3  UNL     1     -10.384  -7.249  12.672  1.00  0.00     0.209 HD
ENDBRANCH  52  53
ENDBRANCH  36  52
ENDBRANCH  35  36
ENDBRANCH   1  35
BRANCH   2  55
HETATM   55  N2  UNL     1      -8.974  -7.079   9.201  1.00  0.00    -0.072 N 
ATOM     56  H23 UNL     1      -8.871  -6.111   9.507  1.00  0.00     0.274 HD
ATOM     57  H22 UNL     1      -8.545  -7.567   9.986  1.00  0.00     0.274 HD
ATOM     58  H21 UNL     1      -8.425  -7.234   8.355  1.00  0.00     0.274 HD
ENDBRANCH   2  55
TORSDOF 17
ENDMDL
MODEL 5
REMARK VINA RESULT: -5.263786285      3.298      5.157
REMARK  17 active torsions:
REMARK  status: ('A' for Active; 'I' for Inactive)
REMARK    1  A    between atoms: C2_2  and  C3_3 
REMARK    2  A    between atoms: C3_3  and  C4_4 
REMARK    3  A    between atoms: C5_5  and  O1_6 
REMARK    4  A    between atoms: C7_8  and  N1_9 
REMARK    5  A    between atoms: C10_16  and  C11_17 
REMARK    6  A    between atoms: C10_16  and  O4_20 
REMARK    7  A    between atoms: C11_17  and  O3_18 
REMARK    8  A    between atoms: O4_20  and  C12_21 
REMARK    9  A    between atoms: C13_22  and  N2_23 
REMARK   10  A    between atoms: C15_28  and  N3_29 
REMARK   11  A    between atoms: C16_33  and  O5_34 
REMARK   12  A    between atoms: O5_34  and  C17_35 
REMARK   13  A    between atoms: C18_36  and  N4_37 
REMARK   14  A    between atoms: C20_42  and  N5_43 
REMARK   15  A    between atoms: C22_48  and  N6_49 
REMARK   16  A    between atoms: C23_53  and  O6_54 
REMARK   17  A    between atoms: C24_56  and  O7_57 
ROOT
HETATM    1  C12 UNL     1     -12.067  -3.380   8.604  1.00  0.00     0.187 C 
HETATM    2  C13 UNL     1     -11.403  -3.851   9.823  1.00  0.00     0.217 C 
HETATM    3  C14 UNL     1     -11.282  -2.766  10.854  1.00  0.00     0.071 C 
HETATM    4  C15 UNL     1     -12.620  -2.347  11.418  1.00  0.00     0.217 C 
HETATM    5  C16 UNL     1     -13.708  -2.465  10.352  1.00  0.00     0.183 C 
HETATM    6  C24 UNL     1     -13.115  -2.397   8.965  1.00  0.00     0.180 C 
ENDROOT
BRANCH   5   7
HETATM    7  O5  UNL     1     -14.577  -1.438  10.540  1.00  0.00    -0.371 OA
BRANCH   7   8
HETATM    8  C17 UNL     1     -15.814  -1.398  10.015  1.00  0.00     0.183 C 
HETATM    9  C18 UNL     1     -16.226  -0.034   9.493  1.00  0.00     0.216 C 
HETATM   10  C19 UNL     1     -17.652   0.009   9.002  1.00  0.00     0.068 C 
HETATM   11  C20 UNL     1     -17.979  -1.195   8.174  1.00  0.00     0.187 C 
HETATM   12  C21 UNL     1     -18.465  -2.338   9.025  1.00  0.00     0.068 C 
HETATM   13  C22 UNL     1     -18.199  -2.177  10.469  1.00  0.00     0.216 C 
HETATM   14  C23 UNL     1     -16.811  -2.005  10.928  1.00  0.00     0.179 C 
BRANCH   9  15
HETATM   15  N4  UNL     1     -15.422   0.282   8.297  1.00  0.00    -0.072 N 
ATOM     16  H43 UNL     1     -15.375  -0.499   7.642  1.00  0.00     0.274 HD
ATOM     17  H42 UNL     1     -15.883   0.954   7.684  1.00  0.00     0.274 HD
ATOM     18  H41 UNL     1     -14.498   0.597   8.594  1.00  0.00     0.274 HD
ENDBRANCH   9  15
BRANCH  11  19
HETATM   19  N5  UNL     1     -19.001  -0.796   7.207  1.00  0.00    -0.075 N 
ATOM     20  H53 UNL     1     -19.201   0.204   7.228  1.00  0.00     0.274 HD
ATOM     21  H52 UNL     1     -18.676  -0.846   6.241  1.00  0.00     0.274 HD
ATOM     22  H51 UNL     1     -19.826  -1.370   7.380  1.00  0.00     0.274 HD
ENDBRANCH  11  19
BRANCH  13  23
HETATM   23  N6  UNL     1     -18.818  -3.351  11.132  1.00  0.00    -0.072 N 
ATOM     24  H63 UNL     1     -19.334  -3.115  11.979  1.00  0.00     0.274 HD
ATOM     25  H62 UNL     1     -19.603  -3.744  10.614  1.00  0.00     0.274 HD
ATOM     26  H61 UNL     1     -18.061  -4.017  11.291  1.00  0.00     0.274 HD
ENDBRANCH  13  23
BRANCH  14  27
HETATM   27  O6  UNL     1     -16.843  -1.364  12.190  1.00  0.00    -0.391 OA
ATOM     28  H6  UNL     1     -15.973  -1.213  12.539  1.00  0.00     0.210 HD
ENDBRANCH  14  27
ENDBRANCH   7   8
ENDBRANCH   5   7
BRANCH   4  29
HETATM   29  N3  UNL     1     -12.934  -3.056  12.640  1.00  0.00    -0.072 N 
ATOM     30  H33 UNL     1     -12.452  -3.954  12.683  1.00  0.00     0.274 HD
ATOM     31  H32 UNL     1     -12.507  -2.606  13.450  1.00  0.00     0.274 HD
ATOM     32  H31 UNL     1     -13.940  -3.168  12.765  1.00  0.00     0.274 HD
ENDBRANCH   4  29
BRANCH   6  33
HETATM   33  O7  UNL     1     -12.484  -1.120   8.928  1.00  0.00    -0.390 OA
ATOM     34  H7  UNL     1     -12.949  -0.618   8.269  1.00  0.00     0.210 HD
ENDBRANCH   6  33
BRANCH   1  35
HETATM   35  O4  UNL     1     -11.304  -3.083   7.525  1.00  0.00    -0.343 OA
BRANCH  35  36
HETATM   36  C10 UNL     1     -11.664  -3.529   6.275  1.00  0.00     0.192 C 
HETATM   37  C4  UNL     1     -10.763  -2.799   5.292  1.00  0.00     0.085 C 
HETATM   38  C5  UNL     1     -11.253  -2.840   3.901  1.00  0.00     0.163 C 
HETATM   39  C7  UNL     1     -12.708  -2.482   3.739  1.00  0.00     0.241 C 
HETATM   40  C8  UNL     1     -13.514  -2.805   4.960  1.00  0.00     0.154 C 
HETATM   41  C9  UNL     1     -14.294  -1.528   5.326  1.00  0.00     0.042 C 
HETATM   42  O2  UNL     1     -12.924  -3.234   6.051  1.00  0.00    -0.345 OA
BRANCH  37  43
HETATM   43  C3  UNL     1     -10.425  -1.417   5.723  1.00  0.00     0.039 C 
BRANCH  43  44
HETATM   44  C2  UNL     1      -9.031  -1.135   6.039  1.00  0.00    -0.036 C 
HETATM   45  C1  UNL     1      -8.698  -0.357   7.059  1.00  0.00     0.007 C 
ENDBRANCH  43  44
ENDBRANCH  37  43
BRANCH  38  46
HETATM   46  O1  UNL     1     -10.498  -2.064   3.057  1.00  0.00    -0.388 OA
HETATM   47  C6  UNL     1     -10.209  -2.643   1.841  1.00  0.00     0.202 C 
ENDBRANCH  38  46
BRANCH  39  48
HETATM   48  N1  UNL     1     -12.880  -1.117   3.290  1.00  0.00    -0.070 N 
ATOM     49  H13 UNL     1     -12.018  -0.582   3.388  1.00  0.00     0.274 HD
ATOM     50  H12 UNL     1     -12.984  -1.070   2.277  1.00  0.00     0.274 HD
ATOM     51  H11 UNL     1     -13.658  -0.657   3.764  1.00  0.00     0.274 HD
ENDBRANCH  39  48
BRANCH  36  52
HETATM   52  C11 UNL     1     -11.263  -4.988   6.105  1.00  0.00     0.233 C 
BRANCH  52  53
HETATM   53  O3  UNL     1      -9.911  -5.105   6.441  1.00  0.00    -0.395 OA
ATOM     54  H3  UNL     1      -9.549  -4.229   6.505  1.00  0.00     0.209 HD
ENDBRANCH  52  53
ENDBRANCH  36  52
ENDBRANCH  35  36
ENDBRANCH   1  35
BRANCH   2  55
HETATM   55  N2  UNL     1     -12.011  -4.983  10.477  1.00  0.00    -0.072 N 
ATOM     56  H23 UNL     1     -12.463  -5.581   9.785  1.00  0.00     0.274 HD
ATOM     57  H22 UNL     1     -11.287  -5.615  10.820  1.00  0.00     0.274 HD
ATOM     58  H21 UNL     1     -12.666  -4.767  11.228  1.00  0.00     0.274 HD
ENDBRANCH   2  55
TORSDOF 17
ENDMDL
