MODEL 1
REMARK VINA RESULT: -5.599362570      0.000      0.000
REMARK  14 active torsions:
REMARK  status: ('A' for Active; 'I' for Inactive)
REMARK    1  A    between atoms: O1_2  and  C2_3 
REMARK    2  A    between atoms: C2_3  and  C3_4 
REMARK    3  A    between atoms: C3_4  and  O2_5 
REMARK    4  A    between atoms: C3_4  and  C4_7 
REMARK    5  A    between atoms: C4_7  and  O3_8 
REMARK    6  A    between atoms: C8_17  and  O4_18 
REMARK    7  A    between atoms: C9_20  and  O5_21 
REMARK    8  A    between atoms: C10_23  and  C11_24 
REMARK    9  A    between atoms: C11_24  and  C12_25 
REMARK   10  A    between atoms: C12_25  and  C13_26 
REMARK   11  A    between atoms: C17_30  and  N3_31 
REMARK   12  A    between atoms: C17_30  and  C18_35 
REMARK   13  A    between atoms: C20_39  and  O8_40 
REMARK   14  A    between atoms: C20_39  and  C21_42 
ROOT
HETATM    1  C2  UNL     1     -12.225  -6.485   8.859  1.00  0.00     0.160 C 
HETATM    2  C5  UNL     1     -13.185  -5.310   8.918  1.00  0.00     0.078 C 
HETATM    3  C6  UNL     1     -13.270  -4.503   7.924  1.00  0.00     0.039 C 
HETATM    4  S1  UNL     1     -14.510  -3.270   8.437  1.00  0.00    -0.002 SA
HETATM    5  N1  UNL     1     -14.306  -3.667  10.178  1.00  0.00    -0.061 NA
HETATM    6  N2  UNL     1     -14.051  -5.031   9.991  1.00  0.00    -0.293 N 
ATOM      7  H2  UNL     1     -14.457  -5.758  10.580  1.00  0.00     0.183 HD
HETATM    8  C7  UNL     1     -12.570  -4.455   6.640  1.00  0.00     0.073 C 
HETATM    9  C8  UNL     1     -11.709  -5.648   6.527  1.00  0.00     0.168 C 
HETATM   10  C9  UNL     1     -11.219  -6.277   7.768  1.00  0.00     0.191 C 
HETATM   11  C10 UNL     1     -12.010  -3.085   6.400  1.00  0.00     0.053 C 
HETATM   12  C17 UNL     1     -12.615  -2.427   5.229  1.00  0.00     0.218 C 
HETATM   13  C19 UNL     1     -13.935  -3.185   5.096  1.00  0.00     0.101 C 
HETATM   14  C20 UNL     1     -13.586  -4.564   5.500  1.00  0.00     0.163 C 
ENDROOT
BRANCH   9  15
HETATM   15  O4  UNL     1     -10.650  -5.593   5.639  1.00  0.00    -0.392 OA
ATOM     16  H4  UNL     1      -9.993  -6.276   5.694  1.00  0.00     0.210 HD
ENDBRANCH   9  15
BRANCH  11  17
HETATM   17  C11 UNL     1     -10.597  -2.840   6.725  1.00  0.00     0.013 C 
BRANCH  17  18
HETATM   18  C12 UNL     1     -10.441  -2.110   8.069  1.00  0.00     0.028 C 
BRANCH  18  19
HETATM   19  C13 UNL     1      -9.370  -1.072   7.814  1.00  0.00    -0.025 C 
HETATM   20  C14 UNL     1      -8.706  -0.495   8.808  1.00  0.00    -0.091 C 
HETATM   21  C15 UNL     1      -7.652   0.527   8.572  1.00  0.00     0.042 C 
HETATM   22  C16 UNL     1      -9.061  -0.914  10.203  1.00  0.00     0.042 C 
ENDBRANCH  18  19
ENDBRANCH  17  18
ENDBRANCH  11  17
BRANCH  14  23
HETATM   23  O8  UNL     1     -12.866  -5.183   4.401  1.00  0.00    -0.377 OA
ATOM     24  H8  UNL     1     -13.010  -4.615   3.654  1.00  0.00     0.211 HD
ENDBRANCH  14  23
BRANCH  14  25
HETATM   25  C21 UNL     1     -14.737  -5.390   5.694  1.00  0.00     0.210 C 
HETATM   26  O9  UNL     1     -15.902  -4.865   5.787  1.00  0.00    -0.646 OA
HETATM   27  O10 UNL     1     -14.722  -6.752   5.798  1.00  0.00    -0.646 OA
ENDBRANCH  14  25
BRANCH  10  28
HETATM   28  O5  UNL     1     -10.061  -5.605   8.282  1.00  0.00    -0.389 OA
ATOM     29  H5  UNL     1      -9.381  -6.234   8.491  1.00  0.00     0.210 HD
ENDBRANCH  10  28
BRANCH  12  30
HETATM   30  N3  UNL     1     -13.089  -1.044   5.576  1.00  0.00    -0.060 N 
ATOM     31  H33 UNL     1     -14.027  -0.866   5.215  1.00  0.00     0.275 HD
ATOM     32  H32 UNL     1     -13.287  -0.952   6.572  1.00  0.00     0.275 HD
ATOM     33  H31 UNL     1     -12.423  -0.340   5.258  1.00  0.00     0.275 HD
ENDBRANCH  12  30
BRANCH  12  34
HETATM   34  C18 UNL     1     -11.946  -2.353   3.962  1.00  0.00     0.211 C 
HETATM   35  O6  UNL     1     -12.080  -1.532   3.035  1.00  0.00    -0.646 OA
HETATM   36  O7  UNL     1     -10.964  -3.332   3.647  1.00  0.00    -0.646 OA
ENDBRANCH  12  34
BRANCH   1  37
HETATM   37  O1  UNL     1     -11.464  -6.627   9.978  1.00  0.00    -0.373 OA
HETATM   38  C1  UNL     1     -11.741  -6.114  11.164  1.00  0.00     0.203 C 
ENDBRANCH   1  37
BRANCH   1  39
HETATM   39  C3  UNL     1     -13.097  -7.672   8.557  1.00  0.00     0.185 C 
BRANCH  39  40
HETATM   40  O2  UNL     1     -14.086  -7.828   9.553  1.00  0.00    -0.390 OA
ATOM     41  H2  UNL     1     -14.648  -8.567   9.353  1.00  0.00     0.210 HD
ENDBRANCH  39  40
BRANCH  39  42
HETATM   42  C4  UNL     1     -12.314  -8.960   8.421  1.00  0.00     0.199 C 
BRANCH  42  43
HETATM   43  O3  UNL     1     -11.915  -9.413   9.698  1.00  0.00    -0.398 OA
ATOM     44  H3  UNL     1     -11.843 -10.360   9.695  1.00  0.00     0.209 HD
ENDBRANCH  42  43
ENDBRANCH  39  42
ENDBRANCH   1  39
TORSDOF 14
ENDMDL
MODEL 2
REMARK VINA RESULT: -5.540223302      1.352      1.697
REMARK  14 active torsions:
REMARK  status: ('A' for Active; 'I' for Inactive)
REMARK    1  A    between atoms: O1_2  and  C2_3 
REMARK    2  A    between atoms: C2_3  and  C3_4 
REMARK    3  A    between atoms: C3_4  and  O2_5 
REMARK    4  A    between atoms: C3_4  and  C4_7 
REMARK    5  A    between atoms: C4_7  and  O3_8 
REMARK    6  A    between atoms: C8_17  and  O4_18 
REMARK    7  A    between atoms: C9_20  and  O5_21 
REMARK    8  A    between atoms: C10_23  and  C11_24 
REMARK    9  A    between atoms: C11_24  and  C12_25 
REMARK   10  A    between atoms: C12_25  and  C13_26 
REMARK   11  A    between atoms: C17_30  and  N3_31 
REMARK   12  A    between atoms: C17_30  and  C18_35 
REMARK   13  A    between atoms: C20_39  and  O8_40 
REMARK   14  A    between atoms: C20_39  and  C21_42 
ROOT
HETATM    1  C2  UNL     1     -11.201  -6.749   7.923  1.00  0.00     0.160 C 
HETATM    2  C5  UNL     1     -11.871  -5.635   8.706  1.00  0.00     0.078 C 
HETATM    3  C6  UNL     1     -12.397  -4.643   8.084  1.00  0.00     0.039 C 
HETATM    4  S1  UNL     1     -13.057  -3.571   9.402  1.00  0.00    -0.002 SA
HETATM    5  N1  UNL     1     -11.998  -4.314  10.650  1.00  0.00    -0.061 NA
HETATM    6  N2  UNL     1     -12.006  -5.603  10.105  1.00  0.00    -0.293 N 
ATOM      7  H2  UNL     1     -12.103  -6.445  10.673  1.00  0.00     0.183 HD
HETATM    8  C7  UNL     1     -12.483  -4.315   6.661  1.00  0.00     0.073 C 
HETATM    9  C8  UNL     1     -11.926  -5.439   5.883  1.00  0.00     0.168 C 
HETATM   10  C9  UNL     1     -10.912  -6.298   6.523  1.00  0.00     0.191 C 
HETATM   11  C10 UNL     1     -12.014  -2.912   6.417  1.00  0.00     0.053 C 
HETATM   12  C17 UNL     1     -13.084  -2.042   5.902  1.00  0.00     0.218 C 
HETATM   13  C19 UNL     1     -14.337  -2.787   6.361  1.00  0.00     0.101 C 
HETATM   14  C20 UNL     1     -13.954  -4.211   6.249  1.00  0.00     0.163 C 
ENDROOT
BRANCH   9  15
HETATM   15  O4  UNL     1     -11.500  -5.177   4.593  1.00  0.00    -0.392 OA
ATOM     16  H4  UNL     1     -10.837  -5.748   4.224  1.00  0.00     0.210 HD
ENDBRANCH   9  15
BRANCH  11  17
HETATM   17  C11 UNL     1     -10.628  -2.706   5.970  1.00  0.00     0.013 C 
BRANCH  17  18
HETATM   18  C12 UNL     1     -10.008  -1.448   6.601  1.00  0.00     0.028 C 
BRANCH  18  19
HETATM   19  C13 UNL     1     -10.047  -1.713   8.090  1.00  0.00    -0.025 C 
HETATM   20  C14 UNL     1      -9.249  -1.072   8.934  1.00  0.00    -0.091 C 
HETATM   21  C15 UNL     1      -9.275  -1.322  10.400  1.00  0.00     0.042 C 
HETATM   22  C16 UNL     1      -8.299  -0.069   8.352  1.00  0.00     0.042 C 
ENDBRANCH  18  19
ENDBRANCH  17  18
ENDBRANCH  11  17
BRANCH  14  23
HETATM   23  O8  UNL     1     -13.987  -4.573   4.842  1.00  0.00    -0.377 OA
ATOM     24  H8  UNL     1     -14.807  -5.035   4.721  1.00  0.00     0.211 HD
ENDBRANCH  14  23
BRANCH  14  25
HETATM   25  C21 UNL     1     -14.897  -5.087   6.874  1.00  0.00     0.210 C 
HETATM   26  O9  UNL     1     -15.791  -4.618   7.663  1.00  0.00    -0.646 OA
HETATM   27  O10 UNL     1     -14.943  -6.442   6.710  1.00  0.00    -0.646 OA
ENDBRANCH  14  25
BRANCH  10  28
HETATM   28  O5  UNL     1      -9.603  -5.719   6.448  1.00  0.00    -0.389 OA
ATOM     29  H5  UNL     1      -9.316  -5.668   5.544  1.00  0.00     0.210 HD
ENDBRANCH  10  28
BRANCH  12  30
HETATM   30  N3  UNL     1     -13.174  -0.771   6.699  1.00  0.00    -0.060 N 
ATOM     31  H33 UNL     1     -13.454  -0.951   7.663  1.00  0.00     0.275 HD
ATOM     32  H32 UNL     1     -12.252  -0.373   6.876  1.00  0.00     0.275 HD
ATOM     33  H31 UNL     1     -13.794  -0.100   6.246  1.00  0.00     0.275 HD
ENDBRANCH  12  30
BRANCH  12  34
HETATM   34  C18 UNL     1     -13.186  -1.693   4.514  1.00  0.00     0.211 C 
HETATM   35  O6  UNL     1     -12.537  -2.110   3.536  1.00  0.00    -0.646 OA
HETATM   36  O7  UNL     1     -14.156  -0.731   4.117  1.00  0.00    -0.646 OA
ENDBRANCH  12  34
BRANCH   1  37
HETATM   37  O1  UNL     1      -9.978  -7.101   8.407  1.00  0.00    -0.373 OA
HETATM   38  C1  UNL     1      -9.648  -7.155   9.685  1.00  0.00     0.203 C 
ENDBRANCH   1  37
BRANCH   1  39
HETATM   39  C3  UNL     1     -12.204  -7.869   7.922  1.00  0.00     0.185 C 
BRANCH  39  40
HETATM   40  O2  UNL     1     -12.533  -8.242   9.244  1.00  0.00    -0.390 OA
ATOM     41  H2  UNL     1     -13.456  -8.458   9.310  1.00  0.00     0.210 HD
ENDBRANCH  39  40
BRANCH  39  42
HETATM   42  C4  UNL     1     -11.729  -9.087   7.161  1.00  0.00     0.199 C 
BRANCH  42  43
HETATM   43  O3  UNL     1     -10.903  -9.877   7.992  1.00  0.00    -0.398 OA
ATOM     44  H3  UNL     1     -10.776  -9.442   8.826  1.00  0.00     0.209 HD
ENDBRANCH  42  43
ENDBRANCH  39  42
ENDBRANCH   1  39
TORSDOF 14
ENDMDL
MODEL 3
REMARK VINA RESULT: -5.530188504      2.613      5.285
REMARK  14 active torsions:
REMARK  status: ('A' for Active; 'I' for Inactive)
REMARK    1  A    between atoms: O1_2  and  C2_3 
REMARK    2  A    between atoms: C2_3  and  C3_4 
REMARK    3  A    between atoms: C3_4  and  O2_5 
REMARK    4  A    between atoms: C3_4  and  C4_7 
REMARK    5  A    between atoms: C4_7  and  O3_8 
REMARK    6  A    between atoms: C8_17  and  O4_18 
REMARK    7  A    between atoms: C9_20  and  O5_21 
REMARK    8  A    between atoms: C10_23  and  C11_24 
REMARK    9  A    between atoms: C11_24  and  C12_25 
REMARK   10  A    between atoms: C12_25  and  C13_26 
REMARK   11  A    between atoms: C17_30  and  N3_31 
REMARK   12  A    between atoms: C17_30  and  C18_35 
REMARK   13  A    between atoms: C20_39  and  O8_40 
REMARK   14  A    between atoms: C20_39  and  C21_42 
ROOT
HETATM    1  C2  UNL     1     -11.990  -2.601   5.513  1.00  0.00     0.160 C 
HETATM    2  C5  UNL     1     -11.981  -3.407   6.799  1.00  0.00     0.078 C 
HETATM    3  C6  UNL     1     -13.089  -3.712   7.371  1.00  0.00     0.039 C 
HETATM    4  S1  UNL     1     -12.597  -4.650   8.854  1.00  0.00    -0.002 SA
HETATM    5  N1  UNL     1     -10.928  -3.985   8.824  1.00  0.00    -0.061 NA
HETATM    6  N2  UNL     1     -10.826  -3.902   7.430  1.00  0.00    -0.293 N 
ATOM      7  H2  UNL     1      -9.988  -4.177   6.918  1.00  0.00     0.183 HD
HETATM    8  C7  UNL     1     -14.480  -3.411   7.033  1.00  0.00     0.073 C 
HETATM    9  C8  UNL     1     -14.509  -2.715   5.731  1.00  0.00     0.168 C 
HETATM   10  C9  UNL     1     -13.322  -1.939   5.327  1.00  0.00     0.191 C 
HETATM   11  C10 UNL     1     -15.195  -2.838   8.220  1.00  0.00     0.053 C 
HETATM   12  C17 UNL     1     -16.294  -3.702   8.685  1.00  0.00     0.218 C 
HETATM   13  C19 UNL     1     -15.882  -5.059   8.117  1.00  0.00     0.101 C 
HETATM   14  C20 UNL     1     -15.250  -4.718   6.825  1.00  0.00     0.163 C 
ENDROOT
BRANCH   9  15
HETATM   15  O4  UNL     1     -15.627  -1.957   5.435  1.00  0.00    -0.392 OA
ATOM     16  H4  UNL     1     -16.043  -2.098   4.593  1.00  0.00     0.210 HD
ENDBRANCH   9  15
BRANCH  11  17
HETATM   17  C11 UNL     1     -15.323  -1.377   8.321  1.00  0.00     0.013 C 
BRANCH  17  18
HETATM   18  C12 UNL     1     -14.770  -0.849   9.655  1.00  0.00     0.028 C 
BRANCH  18  19
HETATM   19  C13 UNL     1     -13.269  -0.830   9.462  1.00  0.00    -0.025 C 
HETATM   20  C14 UNL     1     -12.435  -0.747  10.491  1.00  0.00    -0.091 C 
HETATM   21  C15 UNL     1     -10.958  -0.727  10.317  1.00  0.00     0.042 C 
HETATM   22  C16 UNL     1     -13.039  -0.671  11.860  1.00  0.00     0.042 C 
ENDBRANCH  18  19
ENDBRANCH  17  18
ENDBRANCH  11  17
BRANCH  14  23
HETATM   23  O8  UNL     1     -16.306  -4.397   5.881  1.00  0.00    -0.377 OA
ATOM     24  H8  UNL     1     -16.924  -5.115   5.941  1.00  0.00     0.211 HD
ENDBRANCH  14  23
BRANCH  14  25
HETATM   25  C21 UNL     1     -14.560  -5.826   6.239  1.00  0.00     0.210 C 
HETATM   26  O9  UNL     1     -14.296  -6.867   6.937  1.00  0.00    -0.646 OA
HETATM   27  O10 UNL     1     -14.128  -5.890   4.944  1.00  0.00    -0.646 OA
ENDBRANCH  14  25
BRANCH  10  28
HETATM   28  O5  UNL     1     -13.315  -0.633   5.919  1.00  0.00    -0.389 OA
ATOM     29  H5  UNL     1     -13.934  -0.067   5.473  1.00  0.00     0.210 HD
ENDBRANCH  10  28
BRANCH  12  30
HETATM   30  N3  UNL     1     -16.196  -3.946  10.164  1.00  0.00    -0.060 N 
ATOM     31  H33 UNL     1     -16.805  -3.318  10.690  1.00  0.00     0.275 HD
ATOM     32  H32 UNL     1     -16.624  -4.834  10.428  1.00  0.00     0.275 HD
ATOM     33  H31 UNL     1     -15.228  -3.886  10.481  1.00  0.00     0.275 HD
ENDBRANCH  12  30
BRANCH  12  34
HETATM   34  C18 UNL     1     -17.668  -3.423   8.380  1.00  0.00     0.211 C 
HETATM   35  O6  UNL     1     -18.303  -2.355   8.462  1.00  0.00    -0.646 OA
HETATM   36  O7  UNL     1     -18.493  -4.480   7.904  1.00  0.00    -0.646 OA
ENDBRANCH  12  34
BRANCH   1  37
HETATM   37  O1  UNL     1     -11.110  -1.562   5.510  1.00  0.00    -0.373 OA
HETATM   38  C1  UNL     1     -10.013  -1.487   6.242  1.00  0.00     0.203 C 
ENDBRANCH   1  37
BRANCH   1  39
HETATM   39  C3  UNL     1     -11.745  -3.613   4.429  1.00  0.00     0.185 C 
BRANCH  39  40
HETATM   40  O2  UNL     1     -10.733  -4.519   4.815  1.00  0.00    -0.390 OA
ATOM     41  H2  UNL     1      -9.941  -4.371   4.311  1.00  0.00     0.210 HD
ENDBRANCH  39  40
BRANCH  39  42
HETATM   42  C4  UNL     1     -11.375  -2.982   3.104  1.00  0.00     0.199 C 
BRANCH  42  43
HETATM   43  O3  UNL     1      -9.969  -2.905   2.988  1.00  0.00    -0.398 OA
ATOM     44  H3  UNL     1      -9.737  -2.468   2.178  1.00  0.00     0.209 HD
ENDBRANCH  42  43
ENDBRANCH  39  42
ENDBRANCH   1  39
TORSDOF 14
ENDMDL
MODEL 4
REMARK VINA RESULT: -5.496957919      0.878      1.054
REMARK  14 active torsions:
REMARK  status: ('A' for Active; 'I' for Inactive)
REMARK    1  A    between atoms: O1_2  and  C2_3 
REMARK    2  A    between atoms: C2_3  and  C3_4 
REMARK    3  A    between atoms: C3_4  and  O2_5 
REMARK    4  A    between atoms: C3_4  and  C4_7 
REMARK    5  A    between atoms: C4_7  and  O3_8 
REMARK    6  A    between atoms: C8_17  and  O4_18 
REMARK    7  A    between atoms: C9_20  and  O5_21 
REMARK    8  A    between atoms: C10_23  and  C11_24 
REMARK    9  A    between atoms: C11_24  and  C12_25 
REMARK   10  A    between atoms: C12_25  and  C13_26 
REMARK   11  A    between atoms: C17_30  and  N3_31 
REMARK   12  A    between atoms: C17_30  and  C18_35 
REMARK   13  A    between atoms: C20_39  and  O8_40 
REMARK   14  A    between atoms: C20_39  and  C21_42 
ROOT
HETATM    1  C2  UNL     1     -11.668  -7.111   8.399  1.00  0.00     0.160 C 
HETATM    2  C5  UNL     1     -12.710  -6.110   8.867  1.00  0.00     0.078 C 
HETATM    3  C6  UNL     1     -13.069  -5.151   8.092  1.00  0.00     0.039 C 
HETATM    4  S1  UNL     1     -14.301  -4.217   9.058  1.00  0.00    -0.002 SA
HETATM    5  N1  UNL     1     -13.720  -4.900  10.616  1.00  0.00    -0.061 NA
HETATM    6  N2  UNL     1     -13.372  -6.157  10.107  1.00  0.00    -0.293 N 
ATOM      7  H2  UNL     1     -13.580  -7.030  10.592  1.00  0.00     0.183 HD
HETATM    8  C7  UNL     1     -12.643  -4.770   6.746  1.00  0.00     0.073 C 
HETATM    9  C8  UNL     1     -11.706  -5.792   6.240  1.00  0.00     0.168 C 
HETATM   10  C9  UNL     1     -10.922  -6.567   7.219  1.00  0.00     0.191 C 
HETATM   11  C10 UNL     1     -12.281  -3.315   6.704  1.00  0.00     0.053 C 
HETATM   12  C17 UNL     1     -13.167  -2.540   5.819  1.00  0.00     0.218 C 
HETATM   13  C19 UNL     1     -14.405  -3.433   5.760  1.00  0.00     0.101 C 
HETATM   14  C20 UNL     1     -13.847  -4.802   5.801  1.00  0.00     0.163 C 
ENDROOT
BRANCH   9  15
HETATM   15  O4  UNL     1     -10.853  -5.427   5.214  1.00  0.00    -0.392 OA
ATOM     16  H4  UNL     1      -9.950  -5.236   5.439  1.00  0.00     0.210 HD
ENDBRANCH   9  15
BRANCH  11  17
HETATM   17  C11 UNL     1     -10.863  -2.944   6.824  1.00  0.00     0.013 C 
BRANCH  17  18
HETATM   18  C12 UNL     1     -10.556  -2.305   8.189  1.00  0.00     0.028 C 
BRANCH  18  19
HETATM   19  C13 UNL     1      -9.574  -1.197   7.875  1.00  0.00    -0.025 C 
HETATM   20  C14 UNL     1      -8.814  -0.652   8.817  1.00  0.00    -0.091 C 
HETATM   21  C15 UNL     1      -7.845   0.437   8.524  1.00  0.00     0.042 C 
HETATM   22  C16 UNL     1      -8.968  -1.178  10.212  1.00  0.00     0.042 C 
ENDBRANCH  18  19
ENDBRANCH  17  18
ENDBRANCH  11  17
BRANCH  14  23
HETATM   23  O8  UNL     1     -13.299  -5.101   4.489  1.00  0.00    -0.377 OA
ATOM     24  H8  UNL     1     -13.979  -5.585   4.037  1.00  0.00     0.211 HD
ENDBRANCH  14  23
BRANCH  14  25
HETATM   25  C21 UNL     1     -14.850  -5.801   6.014  1.00  0.00     0.210 C 
HETATM   26  O9  UNL     1     -16.033  -5.463   6.369  1.00  0.00    -0.646 OA
HETATM   27  O10 UNL     1     -14.665  -7.147   5.873  1.00  0.00    -0.646 OA
ENDBRANCH  14  25
BRANCH  10  28
HETATM   28  O5  UNL     1      -9.759  -5.850   7.654  1.00  0.00    -0.389 OA
ATOM     29  H5  UNL     1      -9.215  -5.622   6.909  1.00  0.00     0.210 HD
ENDBRANCH  10  28
BRANCH  12  30
HETATM   30  N3  UNL     1     -13.699  -1.324   6.522  1.00  0.00    -0.060 N 
ATOM     31  H33 UNL     1     -14.223  -1.574   7.361  1.00  0.00     0.275 HD
ATOM     32  H32 UNL     1     -12.952  -0.786   6.961  1.00  0.00     0.275 HD
ATOM     33  H31 UNL     1     -14.254  -0.750   5.888  1.00  0.00     0.275 HD
ENDBRANCH  12  30
BRANCH  12  34
HETATM   34  C18 UNL     1     -12.770  -2.141   4.499  1.00  0.00     0.211 C 
HETATM   35  O6  UNL     1     -11.951  -2.662   3.719  1.00  0.00    -0.646 OA
HETATM   36  O7  UNL     1     -13.362  -0.981   3.926  1.00  0.00    -0.646 OA
ENDBRANCH  12  34
BRANCH   1  37
HETATM   37  O1  UNL     1     -10.691  -7.353   9.316  1.00  0.00    -0.373 OA
HETATM   38  C1  UNL     1     -10.803  -7.175  10.620  1.00  0.00     0.203 C 
ENDBRANCH   1  37
BRANCH   1  39
HETATM   39  C3  UNL     1     -12.459  -8.328   8.012  1.00  0.00     0.185 C 
BRANCH  39  40
HETATM   40  O2  UNL     1     -13.237  -8.783   9.099  1.00  0.00    -0.390 OA
ATOM     41  H2  UNL     1     -12.684  -8.991   9.843  1.00  0.00     0.210 HD
ENDBRANCH  39  40
BRANCH  39  42
HETATM   42  C4  UNL     1     -11.591  -9.461   7.508  1.00  0.00     0.199 C 
BRANCH  42  43
HETATM   43  O3  UNL     1     -11.049 -10.170   8.603  1.00  0.00    -0.398 OA
ATOM     44  H3  UNL     1     -10.216  -9.788   8.853  1.00  0.00     0.209 HD
ENDBRANCH  42  43
ENDBRANCH  39  42
ENDBRANCH   1  39
TORSDOF 14
ENDMDL
MODEL 5
REMARK VINA RESULT: -5.418718591      2.105      2.684
REMARK  14 active torsions:
REMARK  status: ('A' for Active; 'I' for Inactive)
REMARK    1  A    between atoms: O1_2  and  C2_3 
REMARK    2  A    between atoms: C2_3  and  C3_4 
REMARK    3  A    between atoms: C3_4  and  O2_5 
REMARK    4  A    between atoms: C3_4  and  C4_7 
REMARK    5  A    between atoms: C4_7  and  O3_8 
REMARK    6  A    between atoms: C8_17  and  O4_18 
REMARK    7  A    between atoms: C9_20  and  O5_21 
REMARK    8  A    between atoms: C10_23  and  C11_24 
REMARK    9  A    between atoms: C11_24  and  C12_25 
REMARK   10  A    between atoms: C12_25  and  C13_26 
REMARK   11  A    between atoms: C17_30  and  N3_31 
REMARK   12  A    between atoms: C17_30  and  C18_35 
REMARK   13  A    between atoms: C20_39  and  O8_40 
REMARK   14  A    between atoms: C20_39  and  C21_42 
ROOT
HETATM    1  C2  UNL     1     -12.315  -3.422  10.328  1.00  0.00     0.160 C 
HETATM    2  C5  UNL     1     -13.213  -2.490   9.535  1.00  0.00     0.078 C 
HETATM    3  C6  UNL     1     -13.253  -2.577   8.255  1.00  0.00     0.039 C 
HETATM    4  S1  UNL     1     -14.430  -1.283   7.743  1.00  0.00    -0.002 SA
HETATM    5  N1  UNL     1     -14.254  -0.392   9.294  1.00  0.00    -0.061 NA
HETATM    6  N2  UNL     1     -14.068  -1.525  10.096  1.00  0.00    -0.293 N 
ATOM      7  H2  UNL     1     -14.513  -1.640  11.007  1.00  0.00     0.183 HD
HETATM    8  C7  UNL     1     -12.547  -3.442   7.310  1.00  0.00     0.073 C 
HETATM    9  C8  UNL     1     -11.747  -4.420   8.073  1.00  0.00     0.168 C 
HETATM   10  C9  UNL     1     -11.295  -4.049   9.427  1.00  0.00     0.191 C 
HETATM   11  C10 UNL     1     -11.916  -2.624   6.222  1.00  0.00     0.053 C 
HETATM   12  C17 UNL     1     -12.482  -2.922   4.895  1.00  0.00     0.218 C 
HETATM   13  C19 UNL     1     -13.838  -3.520   5.264  1.00  0.00     0.101 C 
HETATM   14  C20 UNL     1     -13.562  -4.264   6.512  1.00  0.00     0.163 C 
ENDROOT
BRANCH   9  15
HETATM   15  O4  UNL     1     -10.683  -5.022   7.426  1.00  0.00    -0.392 OA
ATOM     16  H4  UNL     1     -10.123  -4.470   6.893  1.00  0.00     0.210 HD
ENDBRANCH   9  15
BRANCH  11  17
HETATM   17  C11 UNL     1     -10.494  -2.273   6.346  1.00  0.00     0.013 C 
BRANCH  17  18
HETATM   18  C12 UNL     1     -10.305  -0.813   6.791  1.00  0.00     0.028 C 
BRANCH  18  19
HETATM   19  C13 UNL     1      -8.968  -0.410   6.209  1.00  0.00    -0.025 C 
HETATM   20  C14 UNL     1      -7.975   0.021   6.976  1.00  0.00    -0.091 C 
HETATM   21  C15 UNL     1      -6.655   0.421   6.418  1.00  0.00     0.042 C 
HETATM   22  C16 UNL     1      -8.229   0.094   8.451  1.00  0.00     0.042 C 
ENDBRANCH  18  19
ENDBRANCH  17  18
ENDBRANCH  11  17
BRANCH  14  23
HETATM   23  O8  UNL     1     -12.870  -5.491   6.157  1.00  0.00    -0.377 OA
ATOM     24  H8  UNL     1     -13.238  -6.159   6.722  1.00  0.00     0.211 HD
ENDBRANCH  14  23
BRANCH  14  25
HETATM   25  C21 UNL     1     -14.755  -4.695   7.174  1.00  0.00     0.210 C 
HETATM   26  O9  UNL     1     -15.891  -4.201   6.846  1.00  0.00    -0.646 OA
HETATM   27  O10 UNL     1     -14.811  -5.626   8.172  1.00  0.00    -0.646 OA
ENDBRANCH  14  25
BRANCH  10  28
HETATM   28  O5  UNL     1     -10.106  -3.249   9.388  1.00  0.00    -0.389 OA
ATOM     29  H5  UNL     1      -9.812  -3.053  10.270  1.00  0.00     0.210 HD
ENDBRANCH  10  28
BRANCH  12  30
HETATM   30  N3  UNL     1     -12.886  -1.659   4.188  1.00  0.00    -0.060 N 
ATOM     31  H33 UNL     1     -12.880  -0.857   4.818  1.00  0.00     0.275 HD
ATOM     32  H32 UNL     1     -12.167  -1.348   3.534  1.00  0.00     0.275 HD
ATOM     33  H31 UNL     1     -13.790  -1.771   3.729  1.00  0.00     0.275 HD
ENDBRANCH  12  30
BRANCH  12  34
HETATM   34  C18 UNL     1     -11.805  -3.755   3.944  1.00  0.00     0.211 C 
HETATM   35  O6  UNL     1     -11.990  -4.953   3.658  1.00  0.00    -0.646 OA
HETATM   36  O7  UNL     1     -10.751  -3.196   3.169  1.00  0.00    -0.646 OA
ENDBRANCH  12  34
BRANCH   1  37
HETATM   37  O1  UNL     1     -11.566  -2.789  11.272  1.00  0.00    -0.373 OA
HETATM   38  C1  UNL     1     -11.612  -1.498  11.547  1.00  0.00     0.203 C 
ENDBRANCH   1  37
BRANCH   1  39
HETATM   39  C3  UNL     1     -13.245  -4.465  10.883  1.00  0.00     0.185 C 
BRANCH  39  40
HETATM   40  O2  UNL     1     -14.136  -3.890  11.816  1.00  0.00    -0.390 OA
ATOM     41  H2  UNL     1     -14.035  -2.945  11.836  1.00  0.00     0.210 HD
ENDBRANCH  39  40
BRANCH  39  42
HETATM   42  C4  UNL     1     -12.516  -5.621  11.532  1.00  0.00     0.199 C 
BRANCH  42  43
HETATM   43  O3  UNL     1     -11.996  -5.217  12.782  1.00  0.00    -0.398 OA
ATOM     44  H3  UNL     1     -11.652  -4.334  12.717  1.00  0.00     0.209 HD
ENDBRANCH  42  43
ENDBRANCH  39  42
ENDBRANCH   1  39
TORSDOF 14
ENDMDL
