MODEL 1
REMARK VINA RESULT: -6.185237564      0.000      0.000
REMARK  6 active torsions:
REMARK  status: ('A' for Active; 'I' for Inactive)
REMARK    1  A    between atoms: C2_2  and  C3_3 
REMARK    2  A    between atoms: C3_3  and  C4_4 
REMARK    3  A    between atoms: C4_4  and  N1_5 
REMARK    4  A    between atoms: N1_5  and  C5_7 
REMARK    5  A    between atoms: C6_10  and  N3_11 
REMARK    6  A    between atoms: C10_17  and  N5_18 
ROOT
HETATM    1  C5  UNL     1       6.222  20.328  72.778  1.00  0.00     0.707 A 
HETATM    2  N2  UNL     1       6.503  19.988  74.049  1.00  0.00    -0.021 N 
ATOM      3  H2  UNL     1       6.960  19.095  74.234  1.00  0.00     0.203 HD
HETATM    4  C6  UNL     1       6.195  20.801  75.090  1.00  0.00     0.709 A 
HETATM    5  N4  UNL     1       5.594  21.966  74.785  1.00  0.00    -0.022 N 
ATOM      6  H4  UNL     1       5.351  22.596  75.549  1.00  0.00     0.203 HD
HETATM    7  C10 UNL     1       5.295  22.345  73.530  1.00  0.00     0.705 A 
HETATM    8  N6  UNL     1       5.616  21.513  72.531  1.00  0.00    -0.022 N 
ATOM      9  H6  UNL     1       5.400  21.776  71.570  1.00  0.00     0.203 HD
ENDROOT
BRANCH   1  10
HETATM   10  N1  UNL     1       6.494  19.592  71.763  1.00  0.00    -0.225 N 
ATOM     11  H1  UNL     1       6.387  18.580  71.841  1.00  0.00     0.177 HD
BRANCH  10  12
HETATM   12  C4  UNL     1       6.949  20.158  70.515  1.00  0.00     0.138 C 
BRANCH  12  13
HETATM   13  C3  UNL     1       8.409  19.905  70.261  1.00  0.00     0.020 C 
BRANCH  13  14
HETATM   14  C2  UNL     1       9.164  20.465  71.472  1.00  0.00    -0.003 C 
HETATM   15  C1  UNL     1      10.439  19.690  71.720  1.00  0.00     0.005 C 
ENDBRANCH  13  14
ENDBRANCH  12  13
ENDBRANCH  10  12
ENDBRANCH   1  10
BRANCH   4  16
HETATM   16  N3  UNL     1       6.500  20.426  76.427  1.00  0.00    -0.217 N 
HETATM   17  C7  UNL     1       6.936  21.084  77.633  1.00  0.00     0.143 C 
HETATM   18  C8  UNL     1       6.477  19.902  78.459  1.00  0.00     0.041 C 
HETATM   19  C9  UNL     1       6.492  19.175  77.152  1.00  0.00     0.143 C 
ENDBRANCH   4  16
BRANCH   7  20
HETATM   20  N5  UNL     1       4.716  23.471  73.265  1.00  0.00    -0.234 N 
ATOM     21  H52 UNL     1       5.192  24.347  73.481  1.00  0.00     0.174 HD
ATOM     22  H51 UNL     1       3.790  23.524  72.842  1.00  0.00     0.174 HD
ENDBRANCH   7  20
TORSDOF 6
ENDMDL
MODEL 2
REMARK VINA RESULT: -5.788853001      1.135      5.034
REMARK  6 active torsions:
REMARK  status: ('A' for Active; 'I' for Inactive)
REMARK    1  A    between atoms: C2_2  and  C3_3 
REMARK    2  A    between atoms: C3_3  and  C4_4 
REMARK    3  A    between atoms: C4_4  and  N1_5 
REMARK    4  A    between atoms: N1_5  and  C5_7 
REMARK    5  A    between atoms: C6_10  and  N3_11 
REMARK    6  A    between atoms: C10_17  and  N5_18 
ROOT
HETATM    1  C5  UNL     1       5.663  22.005  74.961  1.00  0.00     0.707 A 
HETATM    2  N2  UNL     1       6.459  21.273  74.161  1.00  0.00    -0.021 N 
ATOM      3  H2  UNL     1       7.042  20.544  74.573  1.00  0.00     0.203 HD
HETATM    4  C6  UNL     1       6.508  21.480  72.822  1.00  0.00     0.709 A 
HETATM    5  N4  UNL     1       5.719  22.454  72.334  1.00  0.00    -0.022 N 
ATOM      6  H4  UNL     1       5.737  22.631  71.330  1.00  0.00     0.203 HD
HETATM    7  C10 UNL     1       4.908  23.208  73.097  1.00  0.00     0.705 A 
HETATM    8  N6  UNL     1       4.889  22.972  74.415  1.00  0.00    -0.022 N 
ATOM      9  H6  UNL     1       4.283  23.530  75.017  1.00  0.00     0.203 HD
ENDROOT
BRANCH   1  10
HETATM   10  N1  UNL     1       5.583  21.845  76.231  1.00  0.00    -0.225 N 
ATOM     11  H1  UNL     1       4.693  22.016  76.699  1.00  0.00     0.177 HD
BRANCH  10  12
HETATM   12  C4  UNL     1       6.722  21.429  77.017  1.00  0.00     0.138 C 
BRANCH  12  13
HETATM   13  C3  UNL     1       6.414  20.264  77.914  1.00  0.00     0.020 C 
BRANCH  13  14
HETATM   14  C2  UNL     1       7.150  19.054  77.325  1.00  0.00    -0.003 C 
HETATM   15  C1  UNL     1       6.508  18.609  76.031  1.00  0.00     0.005 C 
ENDBRANCH  13  14
ENDBRANCH  12  13
ENDBRANCH  10  12
ENDBRANCH   1  10
BRANCH   4  16
HETATM   16  N3  UNL     1       7.357  20.698  71.991  1.00  0.00    -0.217 N 
HETATM   17  C7  UNL     1       7.283  20.088  70.686  1.00  0.00     0.143 C 
HETATM   18  C8  UNL     1       8.792  19.967  70.645  1.00  0.00     0.041 C 
HETATM   19  C9  UNL     1       8.698  20.175  72.123  1.00  0.00     0.143 C 
ENDBRANCH   4  16
BRANCH   7  20
HETATM   20  N5  UNL     1       4.158  24.139  72.603  1.00  0.00    -0.234 N 
ATOM     21  H52 UNL     1       4.515  24.729  71.851  1.00  0.00     0.174 HD
ATOM     22  H51 UNL     1       3.210  24.313  72.936  1.00  0.00     0.174 HD
ENDBRANCH   7  20
TORSDOF 6
ENDMDL
MODEL 3
REMARK VINA RESULT: -5.653253005      0.866      5.198
REMARK  6 active torsions:
REMARK  status: ('A' for Active; 'I' for Inactive)
REMARK    1  A    between atoms: C2_2  and  C3_3 
REMARK    2  A    between atoms: C3_3  and  C4_4 
REMARK    3  A    between atoms: C4_4  and  N1_5 
REMARK    4  A    between atoms: N1_5  and  C5_7 
REMARK    5  A    between atoms: C6_10  and  N3_11 
REMARK    6  A    between atoms: C10_17  and  N5_18 
ROOT
HETATM    1  C5  UNL     1       5.777  21.293  74.881  1.00  0.00     0.707 A 
HETATM    2  N2  UNL     1       6.580  20.683  73.991  1.00  0.00    -0.021 N 
ATOM      3  H2  UNL     1       7.140  19.885  74.293  1.00  0.00     0.203 HD
HETATM    4  C6  UNL     1       6.666  21.101  72.704  1.00  0.00     0.709 A 
HETATM    5  N4  UNL     1       5.905  22.157  72.363  1.00  0.00    -0.022 N 
ATOM      6  H4  UNL     1       5.951  22.492  71.401  1.00  0.00     0.203 HD
HETATM    7  C10 UNL     1       5.088  22.795  73.219  1.00  0.00     0.705 A 
HETATM    8  N6  UNL     1       5.033  22.351  74.482  1.00  0.00    -0.022 N 
ATOM      9  H6  UNL     1       4.422  22.817  75.152  1.00  0.00     0.203 HD
ENDROOT
BRANCH   1  10
HETATM   10  N1  UNL     1       5.663  20.932  76.107  1.00  0.00    -0.225 N 
ATOM     11  H1  UNL     1       5.241  21.575  76.777  1.00  0.00     0.177 HD
BRANCH  10  12
HETATM   12  C4  UNL     1       6.118  19.639  76.564  1.00  0.00     0.138 C 
BRANCH  12  13
HETATM   13  C3  UNL     1       7.107  19.737  77.691  1.00  0.00     0.020 C 
BRANCH  13  14
HETATM   14  C2  UNL     1       6.818  21.063  78.408  1.00  0.00    -0.003 C 
HETATM   15  C1  UNL     1       7.925  22.063  78.159  1.00  0.00     0.005 C 
ENDBRANCH  13  14
ENDBRANCH  12  13
ENDBRANCH  10  12
ENDBRANCH   1  10
BRANCH   4  16
HETATM   16  N3  UNL     1       7.521  20.445  71.777  1.00  0.00    -0.217 N 
HETATM   17  C7  UNL     1       7.372  19.680  70.563  1.00  0.00     0.143 C 
HETATM   18  C8  UNL     1       8.828  19.913  70.223  1.00  0.00     0.041 C 
HETATM   19  C9  UNL     1       8.953  20.272  71.669  1.00  0.00     0.143 C 
ENDBRANCH   4  16
BRANCH   7  20
HETATM   20  N5  UNL     1       4.367  23.809  72.865  1.00  0.00    -0.234 N 
ATOM     21  H52 UNL     1       3.560  24.076  73.429  1.00  0.00     0.174 HD
ATOM     22  H51 UNL     1       4.573  24.364  72.035  1.00  0.00     0.174 HD
ENDBRANCH   7  20
TORSDOF 6
ENDMDL
MODEL 4
REMARK VINA RESULT: -5.591392161      1.262      2.482
REMARK  6 active torsions:
REMARK  status: ('A' for Active; 'I' for Inactive)
REMARK    1  A    between atoms: C2_2  and  C3_3 
REMARK    2  A    between atoms: C3_3  and  C4_4 
REMARK    3  A    between atoms: C4_4  and  N1_5 
REMARK    4  A    between atoms: N1_5  and  C5_7 
REMARK    5  A    between atoms: C6_10  and  N3_11 
REMARK    6  A    between atoms: C10_17  and  N5_18 
ROOT
HETATM    1  C5  UNL     1       6.077  20.401  72.820  1.00  0.00     0.707 A 
HETATM    2  N2  UNL     1       6.260  20.893  74.058  1.00  0.00    -0.021 N 
ATOM      3  H2  UNL     1       6.296  21.904  74.191  1.00  0.00     0.203 HD
HETATM    4  C6  UNL     1       6.399  20.080  75.135  1.00  0.00     0.709 A 
HETATM    5  N4  UNL     1       6.344  18.757  74.901  1.00  0.00    -0.022 N 
ATOM      6  H4  UNL     1       6.446  18.123  75.693  1.00  0.00     0.203 HD
HETATM    7  C10 UNL     1       6.162  18.222  73.680  1.00  0.00     0.705 A 
HETATM    8  N6  UNL     1       6.029  19.060  72.644  1.00  0.00    -0.022 N 
ATOM      9  H6  UNL     1       5.890  18.681  71.707  1.00  0.00     0.203 HD
ENDROOT
BRANCH   1  10
HETATM   10  N1  UNL     1       5.940  21.130  71.774  1.00  0.00    -0.225 N 
ATOM     11  H1  UNL     1       5.446  22.020  71.849  1.00  0.00     0.177 HD
BRANCH  10  12
HETATM   12  C4  UNL     1       6.467  20.725  70.491  1.00  0.00     0.138 C 
BRANCH  12  13
HETATM   13  C3  UNL     1       7.541  19.680  70.609  1.00  0.00     0.020 C 
BRANCH  13  14
HETATM   14  C2  UNL     1       8.880  20.428  70.577  1.00  0.00    -0.003 C 
HETATM   15  C1  UNL     1       9.708  20.106  71.800  1.00  0.00     0.005 C 
ENDBRANCH  13  14
ENDBRANCH  12  13
ENDBRANCH  10  12
ENDBRANCH   1  10
BRANCH   4  16
HETATM   16  N3  UNL     1       6.593  20.618  76.437  1.00  0.00    -0.217 N 
HETATM   17  C7  UNL     1       6.650  20.114  77.788  1.00  0.00     0.143 C 
HETATM   18  C8  UNL     1       7.341  21.381  78.244  1.00  0.00     0.041 C 
HETATM   19  C9  UNL     1       6.824  21.946  76.959  1.00  0.00     0.143 C 
ENDBRANCH   4  16
BRANCH   7  20
HETATM   20  N5  UNL     1       6.112  16.945  73.482  1.00  0.00    -0.234 N 
ATOM     21  H52 UNL     1       6.543  16.313  74.157  1.00  0.00     0.174 HD
ATOM     22  H51 UNL     1       5.654  16.534  72.669  1.00  0.00     0.174 HD
ENDBRANCH   7  20
TORSDOF 6
ENDMDL
MODEL 5
REMARK VINA RESULT: -5.490549923      1.500      2.233
REMARK  6 active torsions:
REMARK  status: ('A' for Active; 'I' for Inactive)
REMARK    1  A    between atoms: C2_2  and  C3_3 
REMARK    2  A    between atoms: C3_3  and  C4_4 
REMARK    3  A    between atoms: C4_4  and  N1_5 
REMARK    4  A    between atoms: N1_5  and  C5_7 
REMARK    5  A    between atoms: C6_10  and  N3_11 
REMARK    6  A    between atoms: C10_17  and  N5_18 
ROOT
HETATM    1  C5  UNL     1       6.598  21.134  72.558  1.00  0.00     0.707 A 
HETATM    2  N2  UNL     1       6.795  20.875  73.863  1.00  0.00    -0.021 N 
ATOM      3  H2  UNL     1       7.421  20.115  74.130  1.00  0.00     0.203 HD
HETATM    4  C6  UNL     1       6.183  21.598  74.833  1.00  0.00     0.709 A 
HETATM    5  N4  UNL     1       5.369  22.587  74.423  1.00  0.00    -0.022 N 
ATOM      6  H4  UNL     1       4.895  23.146  75.132  1.00  0.00     0.203 HD
HETATM    7  C10 UNL     1       5.144  22.880  73.130  1.00  0.00     0.705 A 
HETATM    8  N6  UNL     1       5.768  22.142  72.203  1.00  0.00    -0.022 N 
ATOM      9  H6  UNL     1       5.615  22.343  71.214  1.00  0.00     0.203 HD
ENDROOT
BRANCH   1  10
HETATM   10  N1  UNL     1       7.156  20.477  71.606  1.00  0.00    -0.225 N 
ATOM     11  H1  UNL     1       7.805  20.960  70.984  1.00  0.00     0.177 HD
BRANCH  10  12
HETATM   12  C4  UNL     1       6.888  19.074  71.394  1.00  0.00     0.138 C 
BRANCH  12  13
HETATM   13  C3  UNL     1       5.660  18.601  72.118  1.00  0.00     0.020 C 
BRANCH  13  14
HETATM   14  C2  UNL     1       6.076  17.358  72.915  1.00  0.00    -0.003 C 
HETATM   15  C1  UNL     1       6.525  17.736  74.309  1.00  0.00     0.005 C 
ENDBRANCH  13  14
ENDBRANCH  12  13
ENDBRANCH  10  12
ENDBRANCH   1  10
BRANCH   4  16
HETATM   16  N3  UNL     1       6.402  21.310  76.208  1.00  0.00    -0.217 N 
HETATM   17  C7  UNL     1       6.126  20.222  77.115  1.00  0.00     0.143 C 
HETATM   18  C8  UNL     1       7.157  20.756  78.087  1.00  0.00     0.041 C 
HETATM   19  C9  UNL     1       7.018  22.023  77.305  1.00  0.00     0.143 C 
ENDBRANCH   4  16
BRANCH   7  20
HETATM   20  N5  UNL     1       4.356  23.837  72.762  1.00  0.00    -0.234 N 
ATOM     21  H52 UNL     1       3.346  23.724  72.855  1.00  0.00     0.174 HD
ATOM     22  H51 UNL     1       4.703  24.716  72.377  1.00  0.00     0.174 HD
ENDBRANCH   7  20
TORSDOF 6
ENDMDL
