MODEL 1
REMARK VINA RESULT: -7.519027228      0.000      0.000
REMARK  6 active torsions:
REMARK  status: ('A' for Active; 'I' for Inactive)
REMARK    1  A    between atoms: C3_3  and  C4_4 
REMARK    2  A    between atoms: C4_4  and  C5_5 
REMARK    3  A    between atoms: C5_5  and  N1_6 
REMARK    4  A    between atoms: N1_6  and  C6_8 
REMARK    5  A    between atoms: C7_11  and  N3_12 
REMARK    6  A    between atoms: C11_17  and  N5_18 
ROOT
HETATM    1  C1  UNL     1      10.022  20.040  71.752  1.00  0.00     0.012 C 
HETATM    2  C2  UNL     1       9.005  20.031  71.088  1.00  0.00    -0.117 C 
HETATM    3  C3  UNL     1       7.790  20.024  70.273  1.00  0.00     0.094 C 
ENDROOT
BRANCH   3   4
HETATM    4  C4  UNL     1       6.604  20.083  71.242  1.00  0.00     0.032 C 
BRANCH   4   5
HETATM    5  C5  UNL     1       6.530  18.691  71.880  1.00  0.00     0.139 C 
BRANCH   5   6
HETATM    6  N1  UNL     1       5.592  18.744  72.982  1.00  0.00    -0.226 N 
ATOM      7  H1  UNL     1       4.930  17.979  73.115  1.00  0.00     0.177 HD
BRANCH   6   8
HETATM    8  C6  UNL     1       5.582  19.759  73.811  1.00  0.00     0.681 A 
HETATM    9  N2  UNL     1       6.100  19.651  75.045  1.00  0.00    -0.176 N 
HETATM   10  C7  UNL     1       6.113  20.656  75.929  1.00  0.00     0.135 A 
ATOM     11  H2  UNL     1       6.503  18.756  75.323  1.00  0.00     0.186 HD
HETATM   12  C10 UNL     1       5.572  21.870  75.568  1.00  0.00     0.098 A 
HETATM   13  C11 UNL     1       5.041  22.000  74.317  1.00  0.00     0.118 A 
HETATM   14  N6  UNL     1       5.054  20.941  73.455  1.00  0.00    -0.177 N 
ATOM     15  H6  UNL     1       4.655  21.050  72.522  1.00  0.00     0.185 HD
BRANCH  10  16
HETATM   16  N3  UNL     1       6.678  20.482  77.231  1.00  0.00    -0.274 N 
HETATM   17  C8  UNL     1       6.671  19.169  77.844  1.00  0.00     0.170 C 
HETATM   18  C9  UNL     1       7.224  21.589  77.881  1.00  0.00     0.185 C 
HETATM   19  N4  UNL     1       7.691  22.505  78.434  1.00  0.00    -0.172 NA
ENDBRANCH  10  16
BRANCH  13  20
HETATM   20  N5  UNL     1       4.530  23.124  73.956  1.00  0.00    -0.385 N 
ATOM     21  H52 UNL     1       5.054  23.990  74.077  1.00  0.00     0.157 HD
ATOM     22  H51 UNL     1       3.596  23.145  73.547  1.00  0.00     0.157 HD
ENDBRANCH  13  20
ENDBRANCH   6   8
ENDBRANCH   5   6
ENDBRANCH   4   5
ENDBRANCH   3   4
TORSDOF 6
ENDMDL
MODEL 2
REMARK VINA RESULT: -7.046102853      0.626      1.312
REMARK  6 active torsions:
REMARK  status: ('A' for Active; 'I' for Inactive)
REMARK    1  A    between atoms: C3_3  and  C4_4 
REMARK    2  A    between atoms: C4_4  and  C5_5 
REMARK    3  A    between atoms: C5_5  and  N1_6 
REMARK    4  A    between atoms: N1_6  and  C6_8 
REMARK    5  A    between atoms: C7_11  and  N3_12 
REMARK    6  A    between atoms: C11_17  and  N5_18 
ROOT
HETATM    1  C1  UNL     1       9.858  20.278  71.733  1.00  0.00     0.012 C 
HETATM    2  C2  UNL     1       8.870  19.973  71.096  1.00  0.00    -0.117 C 
HETATM    3  C3  UNL     1       7.689  19.605  70.315  1.00  0.00     0.094 C 
ENDROOT
BRANCH   3   4
HETATM    4  C4  UNL     1       6.474  19.788  71.232  1.00  0.00     0.032 C 
BRANCH   4   5
HETATM    5  C5  UNL     1       6.455  18.550  72.135  1.00  0.00     0.139 C 
BRANCH   5   6
HETATM    6  N1  UNL     1       5.508  18.782  73.205  1.00  0.00    -0.226 N 
ATOM      7  H1  UNL     1       4.795  18.080  73.405  1.00  0.00     0.177 HD
BRANCH   6   8
HETATM    8  C6  UNL     1       5.554  19.879  73.921  1.00  0.00     0.681 A 
HETATM    9  N2  UNL     1       6.112  19.886  75.142  1.00  0.00    -0.176 N 
HETATM   10  C7  UNL     1       6.184  20.978  75.913  1.00  0.00     0.135 A 
ATOM     11  H2  UNL     1       6.502  19.014  75.501  1.00  0.00     0.186 HD
HETATM   12  C10 UNL     1       5.661  22.163  75.443  1.00  0.00     0.098 A 
HETATM   13  C11 UNL     1       5.090  22.176  74.203  1.00  0.00     0.118 A 
HETATM   14  N6  UNL     1       5.044  21.032  73.458  1.00  0.00    -0.177 N 
ATOM     15  H6  UNL     1       4.615  21.053  72.534  1.00  0.00     0.185 HD
BRANCH  10  16
HETATM   16  N3  UNL     1       6.790  20.927  77.206  1.00  0.00    -0.274 N 
HETATM   17  C8  UNL     1       7.427  22.112  77.746  1.00  0.00     0.170 C 
HETATM   18  C9  UNL     1       6.753  19.729  77.921  1.00  0.00     0.185 C 
HETATM   19  N4  UNL     1       6.724  18.736  78.533  1.00  0.00    -0.172 NA
ENDBRANCH  10  16
BRANCH  13  20
HETATM   20  N5  UNL     1       4.595  23.269  73.742  1.00  0.00    -0.385 N 
ATOM     21  H52 UNL     1       3.771  23.685  74.176  1.00  0.00     0.157 HD
ATOM     22  H51 UNL     1       5.032  23.721  72.938  1.00  0.00     0.157 HD
ENDBRANCH  13  20
ENDBRANCH   6   8
ENDBRANCH   5   6
ENDBRANCH   4   5
ENDBRANCH   3   4
TORSDOF 6
ENDMDL
MODEL 3
REMARK VINA RESULT: -6.741976528      1.853      4.705
REMARK  6 active torsions:
REMARK  status: ('A' for Active; 'I' for Inactive)
REMARK    1  A    between atoms: C3_3  and  C4_4 
REMARK    2  A    between atoms: C4_4  and  C5_5 
REMARK    3  A    between atoms: C5_5  and  N1_6 
REMARK    4  A    between atoms: N1_6  and  C6_8 
REMARK    5  A    between atoms: C7_11  and  N3_12 
REMARK    6  A    between atoms: C11_17  and  N5_18 
ROOT
HETATM    1  C1  UNL     1       7.530  21.893  78.031  1.00  0.00     0.012 C 
HETATM    2  C2  UNL     1       7.196  20.751  77.787  1.00  0.00    -0.117 C 
HETATM    3  C3  UNL     1       6.801  19.371  77.506  1.00  0.00     0.094 C 
ENDROOT
BRANCH   3   4
HETATM    4  C4  UNL     1       6.251  19.347  76.075  1.00  0.00     0.032 C 
BRANCH   4   5
HETATM    5  C5  UNL     1       6.896  18.125  75.412  1.00  0.00     0.139 C 
BRANCH   5   6
HETATM    6  N1  UNL     1       6.439  18.057  74.040  1.00  0.00    -0.226 N 
ATOM      7  H1  UNL     1       6.155  17.158  73.649  1.00  0.00     0.177 HD
BRANCH   6   8
HETATM    8  C6  UNL     1       6.385  19.133  73.293  1.00  0.00     0.681 A 
HETATM    9  N2  UNL     1       5.809  20.259  73.743  1.00  0.00    -0.176 N 
HETATM   10  C7  UNL     1       5.726  21.384  73.021  1.00  0.00     0.135 A 
ATOM     11  H2  UNL     1       5.415  20.258  74.684  1.00  0.00     0.186 HD
HETATM   12  C10 UNL     1       6.254  21.401  71.749  1.00  0.00     0.098 A 
HETATM   13  C11 UNL     1       6.844  20.264  71.273  1.00  0.00     0.118 A 
HETATM   14  N6  UNL     1       6.901  19.145  72.054  1.00  0.00    -0.177 N 
ATOM     15  H6  UNL     1       7.344  18.302  71.688  1.00  0.00     0.185 HD
BRANCH  10  16
HETATM   16  N3  UNL     1       5.102  22.554  73.552  1.00  0.00    -0.274 N 
HETATM   17  C8  UNL     1       4.821  23.675  72.677  1.00  0.00     0.170 C 
HETATM   18  C9  UNL     1       4.776  22.588  74.908  1.00  0.00     0.185 C 
HETATM   19  N4  UNL     1       4.491  22.627  76.039  1.00  0.00    -0.172 NA
ENDBRANCH  10  16
BRANCH  13  20
HETATM   20  N5  UNL     1       7.344  20.255  70.089  1.00  0.00    -0.385 N 
ATOM     21  H52 UNL     1       6.763  20.012  69.287  1.00  0.00     0.157 HD
ATOM     22  H51 UNL     1       8.327  20.493  69.954  1.00  0.00     0.157 HD
ENDBRANCH  13  20
ENDBRANCH   6   8
ENDBRANCH   5   6
ENDBRANCH   4   5
ENDBRANCH   3   4
TORSDOF 6
ENDMDL
MODEL 4
REMARK VINA RESULT: -6.646013925      1.437      3.307
REMARK  6 active torsions:
REMARK  status: ('A' for Active; 'I' for Inactive)
REMARK    1  A    between atoms: C3_3  and  C4_4 
REMARK    2  A    between atoms: C4_4  and  C5_5 
REMARK    3  A    between atoms: C5_5  and  N1_6 
REMARK    4  A    between atoms: N1_6  and  C6_8 
REMARK    5  A    between atoms: C7_11  and  N3_12 
REMARK    6  A    between atoms: C11_17  and  N5_18 
ROOT
HETATM    1  C1  UNL     1       9.474  20.376  71.707  1.00  0.00     0.012 C 
HETATM    2  C2  UNL     1       8.331  20.059  71.446  1.00  0.00    -0.117 C 
HETATM    3  C3  UNL     1       6.950  19.693  71.132  1.00  0.00     0.094 C 
ENDROOT
BRANCH   3   4
HETATM    4  C4  UNL     1       6.850  18.169  71.269  1.00  0.00     0.032 C 
BRANCH   4   5
HETATM    5  C5  UNL     1       5.769  17.925  72.328  1.00  0.00     0.139 C 
BRANCH   5   6
HETATM    6  N1  UNL     1       6.414  17.794  73.616  1.00  0.00    -0.226 N 
ATOM      7  H1  UNL     1       6.970  16.962  73.817  1.00  0.00     0.177 HD
BRANCH   6   8
HETATM    8  C6  UNL     1       6.296  18.728  74.529  1.00  0.00     0.681 A 
HETATM    9  N2  UNL     1       5.876  19.962  74.205  1.00  0.00    -0.176 N 
HETATM   10  C7  UNL     1       5.739  20.951  75.097  1.00  0.00     0.135 A 
ATOM     11  H2  UNL     1       5.649  20.155  73.230  1.00  0.00     0.186 HD
HETATM   12  C10 UNL     1       6.042  20.705  76.418  1.00  0.00     0.098 A 
HETATM   13  C11 UNL     1       6.471  19.456  76.767  1.00  0.00     0.118 A 
HETATM   14  N6  UNL     1       6.592  18.484  75.815  1.00  0.00    -0.177 N 
ATOM     15  H6  UNL     1       6.913  17.555  76.087  1.00  0.00     0.185 HD
BRANCH  10  16
HETATM   16  N3  UNL     1       5.287  22.246  74.696  1.00  0.00    -0.274 N 
HETATM   17  C8  UNL     1       4.794  23.173  75.695  1.00  0.00     0.170 C 
HETATM   18  C9  UNL     1       5.332  22.586  73.344  1.00  0.00     0.185 C 
HETATM   19  N4  UNL     1       5.371  22.887  72.217  1.00  0.00    -0.172 NA
ENDBRANCH  10  16
BRANCH  13  20
HETATM   20  N5  UNL     1       6.760  19.202  77.994  1.00  0.00    -0.385 N 
ATOM     21  H52 UNL     1       6.174  18.570  78.540  1.00  0.00     0.157 HD
ATOM     22  H51 UNL     1       7.580  19.634  78.419  1.00  0.00     0.157 HD
ENDBRANCH  13  20
ENDBRANCH   6   8
ENDBRANCH   5   6
ENDBRANCH   4   5
ENDBRANCH   3   4
TORSDOF 6
ENDMDL
MODEL 5
REMARK VINA RESULT: -6.392185337      1.107      2.334
REMARK  6 active torsions:
REMARK  status: ('A' for Active; 'I' for Inactive)
REMARK    1  A    between atoms: C3_3  and  C4_4 
REMARK    2  A    between atoms: C4_4  and  C5_5 
REMARK    3  A    between atoms: C5_5  and  N1_6 
REMARK    4  A    between atoms: N1_6  and  C6_8 
REMARK    5  A    between atoms: C7_11  and  N3_12 
REMARK    6  A    between atoms: C11_17  and  N5_18 
ROOT
HETATM    1  C1  UNL     1       9.774  20.065  71.773  1.00  0.00     0.012 C 
HETATM    2  C2  UNL     1       8.765  20.229  71.117  1.00  0.00    -0.117 C 
HETATM    3  C3  UNL     1       7.559  20.433  70.314  1.00  0.00     0.094 C 
ENDROOT
BRANCH   3   4
HETATM    4  C4  UNL     1       6.361  20.190  71.240  1.00  0.00     0.032 C 
BRANCH   4   5
HETATM    5  C5  UNL     1       6.006  21.566  71.815  1.00  0.00     0.139 C 
BRANCH   5   6
HETATM    6  N1  UNL     1       5.338  21.370  73.084  1.00  0.00    -0.226 N 
ATOM      7  H1  UNL     1       4.535  21.952  73.324  1.00  0.00     0.177 HD
BRANCH   6   8
HETATM    8  C6  UNL     1       5.749  20.457  73.930  1.00  0.00     0.681 A 
HETATM    9  N2  UNL     1       6.010  20.766  75.210  1.00  0.00    -0.176 N 
HETATM   10  C7  UNL     1       6.432  19.872  76.113  1.00  0.00     0.135 A 
ATOM     11  H2  UNL     1       5.879  21.732  75.510  1.00  0.00     0.186 HD
HETATM   12  C10 UNL     1       6.613  18.564  75.722  1.00  0.00     0.098 A 
HETATM   13  C11 UNL     1       6.353  18.229  74.424  1.00  0.00     0.118 A 
HETATM   14  N6  UNL     1       5.924  19.182  73.545  1.00  0.00    -0.177 N 
ATOM     15  H6  UNL     1       5.732  18.921  72.578  1.00  0.00     0.185 HD
BRANCH  10  16
HETATM   16  N3  UNL     1       6.695  20.258  77.463  1.00  0.00    -0.274 N 
HETATM   17  C8  UNL     1       6.545  19.286  78.528  1.00  0.00     0.170 C 
HETATM   18  C9  UNL     1       7.091  21.570  77.724  1.00  0.00     0.185 C 
HETATM   19  N4  UNL     1       7.430  22.663  77.956  1.00  0.00    -0.172 NA
ENDBRANCH  10  16
BRANCH  13  20
HETATM   20  N5  UNL     1       6.515  17.014  74.035  1.00  0.00    -0.385 N 
ATOM     21  H52 UNL     1       6.293  16.240  74.660  1.00  0.00     0.157 HD
ATOM     22  H51 UNL     1       6.866  16.828  73.096  1.00  0.00     0.157 HD
ENDBRANCH  13  20
ENDBRANCH   6   8
ENDBRANCH   5   6
ENDBRANCH   4   5
ENDBRANCH   3   4
TORSDOF 6
ENDMDL
