MODEL 1
REMARK VINA RESULT: -7.033657097      0.000      0.000
REMARK  5 active torsions:
REMARK  status: ('A' for Active; 'I' for Inactive)
REMARK    1  A    between atoms: C2_2  and  C3_3 
REMARK    2  A    between atoms: C3_3  and  C4_4 
REMARK    3  A    between atoms: C4_4  and  N1_5 
REMARK    4  A    between atoms: N2_8  and  C7_9 
REMARK    5  A    between atoms: C8_12  and  N4_13 
ROOT
HETATM    1  C7  UNL     1       6.329  20.522  75.912  1.00  0.00     0.710 A 
HETATM    2  N3  UNL     1       6.141  19.537  76.798  1.00  0.00    -0.020 N 
ATOM      3  H3  UNL     1       5.776  18.612  76.572  1.00  0.00     0.203 HD
HETATM    4  C8  UNL     1       6.499  19.936  78.018  1.00  0.00     0.705 A 
HETATM    5  N5  UNL     1       6.928  21.226  77.894  1.00  0.00    -0.118 N 
ATOM      6  H5  UNL     1       7.270  21.819  78.649  1.00  0.00     0.206 HD
HETATM    7  N6  UNL     1       6.823  21.567  76.630  1.00  0.00    -0.117 N 
ATOM      8  H6  UNL     1       7.074  22.478  76.244  1.00  0.00     0.206 HD
ENDROOT
BRANCH   1   9
HETATM    9  N2  UNL     1       6.098  20.533  74.527  1.00  0.00    -0.213 N 
HETATM   10  C6  UNL     1       5.471  19.437  73.803  1.00  0.00     0.171 C 
HETATM   11  C5  UNL     1       6.209  19.407  72.457  1.00  0.00     0.292 C 
HETATM   12  N1  UNL     1       5.736  20.544  71.694  1.00  0.00     0.091 N 
HETATM   13  C10 UNL     1       5.751  21.783  72.452  1.00  0.00     0.292 C 
HETATM   14  C9  UNL     1       6.505  21.693  73.756  1.00  0.00     0.171 C 
BRANCH  12  15
HETATM   15  C4  UNL     1       6.609  20.633  70.530  1.00  0.00     0.272 C 
BRANCH  15  16
HETATM   16  C3  UNL     1       7.750  19.671  70.540  1.00  0.00     0.030 C 
BRANCH  16  17
HETATM   17  C2  UNL     1       9.087  20.352  70.634  1.00  0.00    -0.003 C 
HETATM   18  C1  UNL     1       9.890  20.014  71.842  1.00  0.00     0.005 C 
ENDBRANCH  16  17
ENDBRANCH  15  16
ENDBRANCH  12  15
ENDBRANCH   1   9
BRANCH   4  19
HETATM   19  N4  UNL     1       6.488  19.308  79.155  1.00  0.00    -0.233 N 
ATOM     20  H42 UNL     1       6.699  18.314  79.236  1.00  0.00     0.174 HD
ATOM     21  H41 UNL     1       6.285  19.639  80.098  1.00  0.00     0.174 HD
ENDBRANCH   4  19
TORSDOF 5
ENDMDL
MODEL 2
REMARK VINA RESULT: -6.830280226      0.624      1.087
REMARK  5 active torsions:
REMARK  status: ('A' for Active; 'I' for Inactive)
REMARK    1  A    between atoms: C2_2  and  C3_3 
REMARK    2  A    between atoms: C3_3  and  C4_4 
REMARK    3  A    between atoms: C4_4  and  N1_5 
REMARK    4  A    between atoms: N2_8  and  C7_9 
REMARK    5  A    between atoms: C8_12  and  N4_13 
ROOT
HETATM    1  C7  UNL     1       6.273  19.891  75.857  1.00  0.00     0.710 A 
HETATM    2  N3  UNL     1       6.338  20.770  76.863  1.00  0.00    -0.020 N 
ATOM      3  H3  UNL     1       6.256  21.781  76.759  1.00  0.00     0.203 HD
HETATM    4  C8  UNL     1       6.523  20.136  78.021  1.00  0.00     0.705 A 
HETATM    5  N5  UNL     1       6.579  18.804  77.729  1.00  0.00    -0.118 N 
ATOM      6  H5  UNL     1       6.715  18.049  78.400  1.00  0.00     0.206 HD
HETATM    7  N6  UNL     1       6.428  18.667  76.431  1.00  0.00    -0.117 N 
ATOM      8  H6  UNL     1       6.426  17.778  75.931  1.00  0.00     0.206 HD
ENDROOT
BRANCH   1   9
HETATM    9  N2  UNL     1       6.076  20.118  74.484  1.00  0.00    -0.213 N 
HETATM   10  C6  UNL     1       5.419  19.174  73.593  1.00  0.00     0.171 C 
HETATM   11  C5  UNL     1       6.189  19.307  72.272  1.00  0.00     0.292 C 
HETATM   12  N1  UNL     1       5.787  20.568  71.678  1.00  0.00     0.091 N 
HETATM   13  C10 UNL     1       5.839  21.678  72.614  1.00  0.00     0.292 C 
HETATM   14  C9  UNL     1       6.556  21.359  73.903  1.00  0.00     0.171 C 
BRANCH  12  15
HETATM   15  C4  UNL     1       6.692  20.785  70.557  1.00  0.00     0.272 C 
BRANCH  15  16
HETATM   16  C3  UNL     1       7.803  19.794  70.459  1.00  0.00     0.030 C 
BRANCH  16  17
HETATM   17  C2  UNL     1       9.159  20.417  70.638  1.00  0.00    -0.003 C 
HETATM   18  C1  UNL     1       9.908  19.976  71.847  1.00  0.00     0.005 C 
ENDBRANCH  16  17
ENDBRANCH  15  16
ENDBRANCH  12  15
ENDBRANCH   1   9
BRANCH   4  19
HETATM   19  N4  UNL     1       6.636  20.594  79.231  1.00  0.00    -0.233 N 
ATOM     20  H42 UNL     1       7.536  20.691  79.701  1.00  0.00     0.174 HD
ATOM     21  H41 UNL     1       5.928  20.913  79.892  1.00  0.00     0.174 HD
ENDBRANCH   4  19
TORSDOF 5
ENDMDL
MODEL 3
REMARK VINA RESULT: -5.488926777      1.031      1.072
REMARK  5 active torsions:
REMARK  status: ('A' for Active; 'I' for Inactive)
REMARK    1  A    between atoms: C2_2  and  C3_3 
REMARK    2  A    between atoms: C3_3  and  C4_4 
REMARK    3  A    between atoms: C4_4  and  N1_5 
REMARK    4  A    between atoms: N2_8  and  C7_9 
REMARK    5  A    between atoms: C8_12  and  N4_13 
ROOT
HETATM    1  C7  UNL     1       6.368  20.109  76.621  1.00  0.00     0.710 A 
HETATM    2  N3  UNL     1       6.051  19.377  77.696  1.00  0.00    -0.020 N 
ATOM      3  H3  UNL     1       5.560  18.483  77.667  1.00  0.00     0.203 HD
HETATM    4  C8  UNL     1       6.467  19.982  78.808  1.00  0.00     0.705 A 
HETATM    5  N5  UNL     1       7.069  21.142  78.416  1.00  0.00    -0.118 N 
ATOM      6  H5  UNL     1       7.494  21.835  79.032  1.00  0.00     0.206 HD
HETATM    7  N6  UNL     1       7.005  21.209  77.106  1.00  0.00    -0.117 N 
ATOM      8  H6  UNL     1       7.378  21.970  76.537  1.00  0.00     0.206 HD
ENDROOT
BRANCH   1   9
HETATM    9  N2  UNL     1       6.132  19.846  75.261  1.00  0.00    -0.213 N 
HETATM   10  C6  UNL     1       6.342  18.548  74.640  1.00  0.00     0.171 C 
HETATM   11  C5  UNL     1       6.871  18.884  73.239  1.00  0.00     0.292 C 
HETATM   12  N1  UNL     1       5.742  19.374  72.472  1.00  0.00     0.091 N 
HETATM   13  C10 UNL     1       4.977  20.390  73.174  1.00  0.00     0.292 C 
HETATM   14  C9  UNL     1       5.658  20.923  74.412  1.00  0.00     0.171 C 
BRANCH  12  15
HETATM   15  C4  UNL     1       6.303  19.904  71.235  1.00  0.00     0.272 C 
BRANCH  15  16
HETATM   16  C3  UNL     1       7.536  20.724  71.417  1.00  0.00     0.030 C 
BRANCH  16  17
HETATM   17  C2  UNL     1       8.747  20.109  70.773  1.00  0.00    -0.003 C 
HETATM   18  C1  UNL     1       9.958  20.032  71.636  1.00  0.00     0.005 C 
ENDBRANCH  16  17
ENDBRANCH  15  16
ENDBRANCH  12  15
ENDBRANCH   1   9
BRANCH   4  19
HETATM   19  N4  UNL     1       6.375  19.626  80.053  1.00  0.00    -0.233 N 
ATOM     20  H42 UNL     1       7.173  19.282  80.587  1.00  0.00     0.174 HD
ATOM     21  H41 UNL     1       5.576  19.614  80.686  1.00  0.00     0.174 HD
ENDBRANCH   4  19
TORSDOF 5
ENDMDL
MODEL 4
REMARK VINA RESULT: -5.380973582      1.332      1.831
REMARK  5 active torsions:
REMARK  status: ('A' for Active; 'I' for Inactive)
REMARK    1  A    between atoms: C2_2  and  C3_3 
REMARK    2  A    between atoms: C3_3  and  C4_4 
REMARK    3  A    between atoms: C4_4  and  N1_5 
REMARK    4  A    between atoms: N2_8  and  C7_9 
REMARK    5  A    between atoms: C8_12  and  N4_13 
ROOT
HETATM    1  C7  UNL     1       6.729  20.706  76.568  1.00  0.00     0.710 A 
HETATM    2  N3  UNL     1       7.295  21.894  76.808  1.00  0.00    -0.020 N 
ATOM      3  H3  UNL     1       7.544  22.576  76.091  1.00  0.00     0.203 HD
HETATM    4  C8  UNL     1       7.488  22.060  78.116  1.00  0.00     0.705 A 
HETATM    5  N5  UNL     1       7.026  20.928  78.723  1.00  0.00    -0.118 N 
ATOM      6  H5  UNL     1       7.031  20.741  79.725  1.00  0.00     0.206 HD
HETATM    7  N6  UNL     1       6.573  20.124  77.788  1.00  0.00    -0.117 N 
ATOM      8  H6  UNL     1       6.166  19.203  77.952  1.00  0.00     0.206 HD
ENDROOT
BRANCH   1   9
HETATM    9  N2  UNL     1       6.344  20.131  75.345  1.00  0.00    -0.213 N 
HETATM   10  C6  UNL     1       6.247  18.696  75.120  1.00  0.00     0.171 C 
HETATM   11  C5  UNL     1       6.724  18.512  73.673  1.00  0.00     0.292 C 
HETATM   12  N1  UNL     1       5.659  18.995  72.816  1.00  0.00     0.091 N 
HETATM   13  C10 UNL     1       5.163  20.303  73.209  1.00  0.00     0.292 C 
HETATM   14  C9  UNL     1       6.027  21.003  74.230  1.00  0.00     0.171 C 
BRANCH  12  15
HETATM   15  C4  UNL     1       6.217  19.030  71.470  1.00  0.00     0.272 C 
BRANCH  15  16
HETATM   16  C3  UNL     1       6.955  20.284  71.140  1.00  0.00     0.030 C 
BRANCH  16  17
HETATM   17  C2  UNL     1       8.346  20.027  70.632  1.00  0.00    -0.003 C 
HETATM   18  C1  UNL     1       9.432  20.186  71.638  1.00  0.00     0.005 C 
ENDBRANCH  16  17
ENDBRANCH  15  16
ENDBRANCH  12  15
ENDBRANCH   1   9
BRANCH   4  19
HETATM   19  N4  UNL     1       7.996  23.053  78.780  1.00  0.00    -0.233 N 
ATOM     20  H42 UNL     1       8.981  23.311  78.717  1.00  0.00     0.174 HD
ATOM     21  H41 UNL     1       7.567  23.708  79.434  1.00  0.00     0.174 HD
ENDBRANCH   4  19
TORSDOF 5
ENDMDL
MODEL 5
REMARK VINA RESULT: -4.234643910      1.497      2.009
REMARK  5 active torsions:
REMARK  status: ('A' for Active; 'I' for Inactive)
REMARK    1  A    between atoms: C2_2  and  C3_3 
REMARK    2  A    between atoms: C3_3  and  C4_4 
REMARK    3  A    between atoms: C4_4  and  N1_5 
REMARK    4  A    between atoms: N2_8  and  C7_9 
REMARK    5  A    between atoms: C8_12  and  N4_13 
ROOT
HETATM    1  C7  UNL     1       6.520  21.097  76.552  1.00  0.00     0.710 A 
HETATM    2  N3  UNL     1       6.131  20.115  77.374  1.00  0.00    -0.020 N 
ATOM      3  H3  UNL     1       5.593  19.296  77.089  1.00  0.00     0.203 HD
HETATM    4  C8  UNL     1       6.546  20.359  78.616  1.00  0.00     0.705 A 
HETATM    5  N5  UNL     1       7.223  21.543  78.573  1.00  0.00    -0.118 N 
ATOM      6  H5  UNL     1       7.666  22.010  79.364  1.00  0.00     0.206 HD
HETATM    7  N6  UNL     1       7.202  21.977  77.333  1.00  0.00    -0.117 N 
ATOM      8  H6  UNL     1       7.633  22.842  77.006  1.00  0.00     0.206 HD
ENDROOT
BRANCH   1   9
HETATM    9  N2  UNL     1       6.311  21.239  75.169  1.00  0.00    -0.213 N 
HETATM   10  C6  UNL     1       5.100  21.797  74.587  1.00  0.00     0.171 C 
HETATM   11  C5  UNL     1       4.885  20.973  73.310  1.00  0.00     0.292 C 
HETATM   12  N1  UNL     1       5.878  21.417  72.352  1.00  0.00     0.091 N 
HETATM   13  C10 UNL     1       7.218  21.474  72.909  1.00  0.00     0.292 C 
HETATM   14  C9  UNL     1       7.351  20.804  74.255  1.00  0.00     0.171 C 
BRANCH  12  15
HETATM   15  C4  UNL     1       5.811  20.472  71.244  1.00  0.00     0.272 C 
BRANCH  15  16
HETATM   16  C3  UNL     1       6.582  19.213  71.459  1.00  0.00     0.030 C 
BRANCH  16  17
HETATM   17  C2  UNL     1       5.766  18.134  72.115  1.00  0.00    -0.003 C 
HETATM   18  C1  UNL     1       6.223  17.725  73.471  1.00  0.00     0.005 C 
ENDBRANCH  16  17
ENDBRANCH  15  16
ENDBRANCH  12  15
ENDBRANCH   1   9
BRANCH   4  19
HETATM   19  N4  UNL     1       6.398  19.677  79.711  1.00  0.00    -0.233 N 
ATOM     20  H42 UNL     1       7.184  19.268  80.215  1.00  0.00     0.174 HD
ATOM     21  H41 UNL     1       5.558  19.430  80.234  1.00  0.00     0.174 HD
ENDBRANCH   4  19
TORSDOF 5
ENDMDL
