MODEL 1
REMARK VINA RESULT: -5.824962934      0.000      0.000
REMARK  8 active torsions:
REMARK  status: ('A' for Active; 'I' for Inactive)
REMARK    1  A    between atoms: N1_1  and  C1_5 
REMARK    2  A    between atoms: C1_5  and  C2_6 
REMARK    3  A    between atoms: C2_6  and  C3_7 
REMARK    4  A    between atoms: C3_7  and  C4_8 
REMARK    5  A    between atoms: C4_8  and  N2_9 
REMARK    6  A    between atoms: N5_19  and  C10_21 
REMARK    7  A    between atoms: C10_21  and  C11_22 
REMARK    8  A    between atoms: C11_22  and  N6_23 
ROOT
HETATM    1  N2  UNL     1      11.321   6.496  11.020  1.00  0.00    -0.338 N 
HETATM    2  C5  UNL     1      11.734   7.676  10.462  1.00  0.00     0.184 A 
HETATM    3  N3  UNL     1      11.978   7.514   9.160  1.00  0.00    -0.350 N 
ATOM      4  H3  UNL     1      12.297   8.231   8.509  1.00  0.00     0.166 HD
HETATM    5  C6  UNL     1      11.724   6.228   8.869  1.00  0.00     0.065 A 
HETATM    6  C7  UNL     1      11.804   5.511   7.685  1.00  0.00     0.049 A 
HETATM    7  C8  UNL     1      11.468   4.183   7.719  1.00  0.00     0.092 A 
HETATM    8  N4  UNL     1      11.070   3.578   8.854  1.00  0.00    -0.351 N 
ATOM      9  H4  UNL     1      10.831   2.587   8.829  1.00  0.00     0.166 HD
HETATM   10  C9  UNL     1      10.980   4.238  10.017  1.00  0.00     0.130 A 
HETATM   11  N5  UNL     1      10.602   3.633  11.057  1.00  0.00    -0.373 N 
ATOM     12  H5  UNL     1      10.561   4.205  11.901  1.00  0.00     0.161 HD
HETATM   13  C12 UNL     1      11.310   5.584  10.037  1.00  0.00     0.106 A 
ENDROOT
BRANCH   1  14
HETATM   14  C4  UNL     1      10.973   6.317  12.423  1.00  0.00     0.130 C 
BRANCH  14  15
HETATM   15  C3  UNL     1      11.203   7.637  13.125  1.00  0.00     0.022 C 
BRANCH  15  16
HETATM   16  C2  UNL     1       9.891   8.299  13.499  1.00  0.00     0.029 C 
BRANCH  16  17
HETATM   17  C1  UNL     1       8.805   7.254  13.304  1.00  0.00     0.229 C 
BRANCH  17  18
HETATM   18  N1  UNL     1       7.732   7.531  14.210  1.00  0.00    -0.079 N 
ATOM     19  H13 UNL     1       8.036   7.542  15.183  1.00  0.00     0.274 HD
ATOM     20  H12 UNL     1       7.412   8.499  14.151  1.00  0.00     0.274 HD
ATOM     21  H11 UNL     1       6.981   6.861  14.043  1.00  0.00     0.274 HD
ENDBRANCH  17  18
ENDBRANCH  16  17
ENDBRANCH  15  16
ENDBRANCH  14  15
ENDBRANCH   1  14
BRANCH  11  22
HETATM   22  C10 UNL     1      10.227   2.277  11.227  1.00  0.00     0.148 C 
BRANCH  22  23
HETATM   23  C11 UNL     1       8.909   2.103  11.960  1.00  0.00     0.249 C 
BRANCH  23  24
HETATM   24  N6  UNL     1       7.964   1.378  11.145  1.00  0.00    -0.078 N 
ATOM     25  H63 UNL     1       7.972   1.702  10.178  1.00  0.00     0.274 HD
ATOM     26  H62 UNL     1       8.261   0.415  10.986  1.00  0.00     0.274 HD
ATOM     27  H61 UNL     1       7.030   1.424  11.551  1.00  0.00     0.274 HD
ENDBRANCH  23  24
ENDBRANCH  22  23
ENDBRANCH  11  22
TORSDOF 8
ENDMDL
MODEL 2
REMARK VINA RESULT: -5.684847885      1.805      3.807
REMARK  8 active torsions:
REMARK  status: ('A' for Active; 'I' for Inactive)
REMARK    1  A    between atoms: N1_1  and  C1_5 
REMARK    2  A    between atoms: C1_5  and  C2_6 
REMARK    3  A    between atoms: C2_6  and  C3_7 
REMARK    4  A    between atoms: C3_7  and  C4_8 
REMARK    5  A    between atoms: C4_8  and  N2_9 
REMARK    6  A    between atoms: N5_19  and  C10_21 
REMARK    7  A    between atoms: C10_21  and  C11_22 
REMARK    8  A    between atoms: C11_22  and  N6_23 
ROOT
HETATM    1  N2  UNL     1      11.176   6.303  12.055  1.00  0.00    -0.338 N 
HETATM    2  C5  UNL     1      10.868   5.594  13.184  1.00  0.00     0.184 A 
HETATM    3  N3  UNL     1      10.600   4.323  12.876  1.00  0.00    -0.350 N 
ATOM      4  H3  UNL     1      10.343   3.583  13.528  1.00  0.00     0.166 HD
HETATM    5  C6  UNL     1      10.733   4.204  11.546  1.00  0.00     0.065 A 
HETATM    6  C7  UNL     1      10.577   3.125  10.690  1.00  0.00     0.049 A 
HETATM    7  C8  UNL     1      10.791   3.334   9.353  1.00  0.00     0.092 A 
HETATM    8  N4  UNL     1      11.140   4.541   8.867  1.00  0.00    -0.351 N 
ATOM      9  H4  UNL     1      11.288   4.646   7.864  1.00  0.00     0.166 HD
HETATM   10  C9  UNL     1      11.300   5.607   9.663  1.00  0.00     0.130 A 
HETATM   11  N5  UNL     1      11.629   6.718   9.168  1.00  0.00    -0.373 N 
ATOM     12  H5  UNL     1      11.729   7.480   9.838  1.00  0.00     0.161 HD
HETATM   13  C12 UNL     1      11.096   5.449  11.025  1.00  0.00     0.106 A 
ENDROOT
BRANCH   1  14
HETATM   14  C4  UNL     1      11.518   7.719  12.029  1.00  0.00     0.130 C 
BRANCH  14  15
HETATM   15  C3  UNL     1      11.329   8.262  13.429  1.00  0.00     0.022 C 
BRANCH  15  16
HETATM   16  C2  UNL     1      10.195   9.269  13.482  1.00  0.00     0.029 C 
BRANCH  16  17
HETATM   17  C1  UNL     1       9.322   8.881  14.664  1.00  0.00     0.229 C 
BRANCH  17  18
HETATM   18  N1  UNL     1       8.874  10.073  15.315  1.00  0.00    -0.079 N 
ATOM     19  H13 UNL     1       7.928   9.982  15.688  1.00  0.00     0.274 HD
ATOM     20  H12 UNL     1       9.358  10.242  16.198  1.00  0.00     0.274 HD
ATOM     21  H11 UNL     1       8.963  10.855  14.665  1.00  0.00     0.274 HD
ENDBRANCH  17  18
ENDBRANCH  16  17
ENDBRANCH  15  16
ENDBRANCH  14  15
ENDBRANCH   1  14
BRANCH  11  22
HETATM   22  C10 UNL     1      11.880   7.067   7.816  1.00  0.00     0.148 C 
BRANCH  22  23
HETATM   23  C11 UNL     1      12.703   6.033   7.070  1.00  0.00     0.249 C 
BRANCH  23  24
HETATM   24  N6  UNL     1      12.016   5.600   5.877  1.00  0.00    -0.078 N 
ATOM     25  H63 UNL     1      11.166   6.139   5.712  1.00  0.00     0.274 HD
ATOM     26  H62 UNL     1      12.526   5.856   5.032  1.00  0.00     0.274 HD
ATOM     27  H61 UNL     1      11.826   4.598   5.915  1.00  0.00     0.274 HD
ENDBRANCH  23  24
ENDBRANCH  22  23
ENDBRANCH  11  22
TORSDOF 8
ENDMDL
MODEL 3
REMARK VINA RESULT: -5.552127476      0.998      1.084
REMARK  8 active torsions:
REMARK  status: ('A' for Active; 'I' for Inactive)
REMARK    1  A    between atoms: N1_1  and  C1_5 
REMARK    2  A    between atoms: C1_5  and  C2_6 
REMARK    3  A    between atoms: C2_6  and  C3_7 
REMARK    4  A    between atoms: C3_7  and  C4_8 
REMARK    5  A    between atoms: C4_8  and  N2_9 
REMARK    6  A    between atoms: N5_19  and  C10_21 
REMARK    7  A    between atoms: C10_21  and  C11_22 
REMARK    8  A    between atoms: C11_22  and  N6_23 
ROOT
HETATM    1  N2  UNL     1      11.428   6.456  10.103  1.00  0.00    -0.338 N 
HETATM    2  C5  UNL     1      11.808   7.554   9.380  1.00  0.00     0.184 A 
HETATM    3  N3  UNL     1      12.041   7.216   8.110  1.00  0.00    -0.350 N 
ATOM      4  H3  UNL     1      12.337   7.841   7.361  1.00  0.00     0.166 HD
HETATM    5  C6  UNL     1      11.814   5.897   8.005  1.00  0.00     0.065 A 
HETATM    6  C7  UNL     1      11.898   5.023   6.933  1.00  0.00     0.049 A 
HETATM    7  C8  UNL     1      11.592   3.707   7.157  1.00  0.00     0.092 A 
HETATM    8  N4  UNL     1      11.221   3.258   8.371  1.00  0.00    -0.351 N 
ATOM      9  H4  UNL     1      11.003   2.269   8.487  1.00  0.00     0.166 HD
HETATM   10  C9  UNL     1      11.128   4.073   9.431  1.00  0.00     0.130 A 
HETATM   11  N5  UNL     1      10.775   3.612  10.550  1.00  0.00    -0.373 N 
ATOM     12  H5  UNL     1      10.730   4.295  11.306  1.00  0.00     0.161 HD
HETATM   13  C12 UNL     1      11.427   5.415   9.258  1.00  0.00     0.106 A 
ENDROOT
BRANCH   1  14
HETATM   14  C4  UNL     1      11.099   6.467  11.522  1.00  0.00     0.130 C 
BRANCH  14  15
HETATM   15  C3  UNL     1      11.544   7.799  12.085  1.00  0.00     0.022 C 
BRANCH  15  16
HETATM   16  C2  UNL     1      11.162   7.936  13.547  1.00  0.00     0.029 C 
BRANCH  16  17
HETATM   17  C1  UNL     1       9.710   8.384  13.577  1.00  0.00     0.229 C 
BRANCH  17  18
HETATM   18  N1  UNL     1       9.607   9.553  14.395  1.00  0.00    -0.079 N 
ATOM     19  H13 UNL     1       9.712   9.345  15.388  1.00  0.00     0.274 HD
ATOM     20  H12 UNL     1      10.411  10.173  14.294  1.00  0.00     0.274 HD
ATOM     21  H11 UNL     1       8.725  10.022  14.186  1.00  0.00     0.274 HD
ENDBRANCH  17  18
ENDBRANCH  16  17
ENDBRANCH  15  16
ENDBRANCH  14  15
ENDBRANCH   1  14
BRANCH  11  22
HETATM   22  C10 UNL     1      10.433   2.285  10.914  1.00  0.00     0.148 C 
BRANCH  22  23
HETATM   23  C11 UNL     1       9.272   2.207  11.888  1.00  0.00     0.249 C 
BRANCH  23  24
HETATM   24  N6  UNL     1       8.154   1.513  11.295  1.00  0.00    -0.078 N 
ATOM     25  H63 UNL     1       7.262   1.873  11.634  1.00  0.00     0.274 HD
ATOM     26  H62 UNL     1       8.046   1.745  10.307  1.00  0.00     0.274 HD
ATOM     27  H61 UNL     1       8.236   0.507  11.440  1.00  0.00     0.274 HD
ENDBRANCH  23  24
ENDBRANCH  22  23
ENDBRANCH  11  22
TORSDOF 8
ENDMDL
MODEL 4
REMARK VINA RESULT: -5.504504296      1.557      4.993
REMARK  8 active torsions:
REMARK  status: ('A' for Active; 'I' for Inactive)
REMARK    1  A    between atoms: N1_1  and  C1_5 
REMARK    2  A    between atoms: C1_5  and  C2_6 
REMARK    3  A    between atoms: C2_6  and  C3_7 
REMARK    4  A    between atoms: C3_7  and  C4_8 
REMARK    5  A    between atoms: C4_8  and  N2_9 
REMARK    6  A    between atoms: N5_19  and  C10_21 
REMARK    7  A    between atoms: C10_21  and  C11_22 
REMARK    8  A    between atoms: C11_22  and  N6_23 
ROOT
HETATM    1  N2  UNL     1      11.389   5.360   9.101  1.00  0.00    -0.338 N 
HETATM    2  C5  UNL     1      11.740   6.637   8.757  1.00  0.00     0.184 A 
HETATM    3  N3  UNL     1      11.728   7.428   9.831  1.00  0.00    -0.350 N 
ATOM      4  H3  UNL     1      11.950   8.423   9.854  1.00  0.00     0.166 HD
HETATM    5  C6  UNL     1      11.370   6.666  10.877  1.00  0.00     0.065 A 
HETATM    6  C7  UNL     1      11.197   6.957  12.221  1.00  0.00     0.049 A 
HETATM    7  C8  UNL     1      10.819   5.935  13.051  1.00  0.00     0.092 A 
HETATM    8  N4  UNL     1      10.616   4.684  12.596  1.00  0.00    -0.351 N 
ATOM      9  H4  UNL     1      10.335   3.957  13.253  1.00  0.00     0.166 HD
HETATM   10  C9  UNL     1      10.773   4.365  11.304  1.00  0.00     0.130 A 
HETATM   11  N5  UNL     1      10.575   3.181  10.919  1.00  0.00    -0.373 N 
ATOM     12  H5  UNL     1      10.714   3.020   9.921  1.00  0.00     0.161 HD
HETATM   13  C12 UNL     1      11.156   5.363  10.421  1.00  0.00     0.106 A 
ENDROOT
BRANCH   1  14
HETATM   14  C4  UNL     1      11.299   4.242   8.170  1.00  0.00     0.130 C 
BRANCH  14  15
HETATM   15  C3  UNL     1      11.345   4.809   6.768  1.00  0.00     0.022 C 
BRANCH  15  16
HETATM   16  C2  UNL     1      11.642   3.727   5.746  1.00  0.00     0.029 C 
BRANCH  16  17
HETATM   17  C1  UNL     1      12.078   2.499   6.527  1.00  0.00     0.229 C 
BRANCH  17  18
HETATM   18  N1  UNL     1      11.879   1.340   5.711  1.00  0.00    -0.079 N 
ATOM     19  H13 UNL     1      12.725   1.064   5.213  1.00  0.00     0.274 HD
ATOM     20  H12 UNL     1      11.755   0.490   6.262  1.00  0.00     0.274 HD
ATOM     21  H11 UNL     1      11.095   1.514   5.082  1.00  0.00     0.274 HD
ENDBRANCH  17  18
ENDBRANCH  16  17
ENDBRANCH  15  16
ENDBRANCH  14  15
ENDBRANCH   1  14
BRANCH  11  22
HETATM   22  C10 UNL     1      10.187   2.041  11.667  1.00  0.00     0.148 C 
BRANCH  22  23
HETATM   23  C11 UNL     1       8.712   2.027  12.023  1.00  0.00     0.249 C 
BRANCH  23  24
HETATM   24  N6  UNL     1       7.953   1.307  11.028  1.00  0.00    -0.078 N 
ATOM     25  H63 UNL     1       7.698   1.904  10.242  1.00  0.00     0.274 HD
ATOM     26  H62 UNL     1       8.531   0.632  10.527  1.00  0.00     0.274 HD
ATOM     27  H61 UNL     1       7.136   0.866  11.449  1.00  0.00     0.274 HD
ENDBRANCH  23  24
ENDBRANCH  22  23
ENDBRANCH  11  22
TORSDOF 8
ENDMDL
MODEL 5
REMARK VINA RESULT: -5.380756562      4.936      7.135
REMARK  8 active torsions:
REMARK  status: ('A' for Active; 'I' for Inactive)
REMARK    1  A    between atoms: N1_1  and  C1_5 
REMARK    2  A    between atoms: C1_5  and  C2_6 
REMARK    3  A    between atoms: C2_6  and  C3_7 
REMARK    4  A    between atoms: C3_7  and  C4_8 
REMARK    5  A    between atoms: C4_8  and  N2_9 
REMARK    6  A    between atoms: N5_19  and  C10_21 
REMARK    7  A    between atoms: C10_21  and  C11_22 
REMARK    8  A    between atoms: C11_22  and  N6_23 
ROOT
HETATM    1  N2  UNL     1      13.595   1.740   6.766  1.00  0.00    -0.338 N 
HETATM    2  C5  UNL     1      14.593   2.580   6.351  1.00  0.00     0.184 A 
HETATM    3  N3  UNL     1      15.748   1.919   6.259  1.00  0.00    -0.350 N 
ATOM      4  H3  UNL     1      16.647   2.307   5.973  1.00  0.00     0.166 HD
HETATM    5  C6  UNL     1      15.504   0.648   6.613  1.00  0.00     0.065 A 
HETATM    6  C7  UNL     1      16.324  -0.466   6.699  1.00  0.00     0.049 A 
HETATM    7  C8  UNL     1      15.758  -1.647   7.100  1.00  0.00     0.092 A 
HETATM    8  N4  UNL     1      14.450  -1.743   7.404  1.00  0.00    -0.351 N 
ATOM      9  H4  UNL     1      14.075  -2.644   7.698  1.00  0.00     0.166 HD
HETATM   10  C9  UNL     1      13.625  -0.689   7.333  1.00  0.00     0.130 A 
HETATM   11  N5  UNL     1      12.406  -0.822   7.626  1.00  0.00    -0.373 N 
ATOM     12  H5  UNL     1      11.846   0.027   7.547  1.00  0.00     0.161 HD
HETATM   13  C12 UNL     1      14.149   0.531   6.932  1.00  0.00     0.106 A 
ENDROOT
BRANCH   1  14
HETATM   14  C4  UNL     1      12.208   2.135   6.973  1.00  0.00     0.130 C 
BRANCH  14  15
HETATM   15  C3  UNL     1      11.668   2.628   5.649  1.00  0.00     0.022 C 
BRANCH  15  16
HETATM   16  C2  UNL     1      11.361   4.114   5.697  1.00  0.00     0.029 C 
BRANCH  16  17
HETATM   17  C1  UNL     1      11.290   4.495   7.167  1.00  0.00     0.229 C 
BRANCH  17  18
HETATM   18  N1  UNL     1      11.903   5.777   7.339  1.00  0.00    -0.079 N 
ATOM     19  H13 UNL     1      12.770   5.727   7.873  1.00  0.00     0.274 HD
ATOM     20  H12 UNL     1      12.292   6.143   6.469  1.00  0.00     0.274 HD
ATOM     21  H11 UNL     1      11.222   6.411   7.759  1.00  0.00     0.274 HD
ENDBRANCH  17  18
ENDBRANCH  16  17
ENDBRANCH  15  16
ENDBRANCH  14  15
ENDBRANCH   1  14
BRANCH  11  22
HETATM   22  C10 UNL     1      11.699  -1.976   8.048  1.00  0.00     0.148 C 
BRANCH  22  23
HETATM   23  C11 UNL     1      10.950  -2.669   6.926  1.00  0.00     0.249 C 
BRANCH  23  24
HETATM   24  N6  UNL     1       9.526  -2.628   7.161  1.00  0.00    -0.078 N 
ATOM     25  H63 UNL     1       9.186  -1.671   7.255  1.00  0.00     0.274 HD
ATOM     26  H62 UNL     1       8.998  -2.898   6.332  1.00  0.00     0.274 HD
ATOM     27  H61 UNL     1       9.279  -3.198   7.970  1.00  0.00     0.274 HD
ENDBRANCH  23  24
ENDBRANCH  22  23
ENDBRANCH  11  22
TORSDOF 8
ENDMDL
