MODEL 1
REMARK VINA RESULT: -7.231921149      0.000      0.000
REMARK  7 active torsions:
REMARK  status: ('A' for Active; 'I' for Inactive)
REMARK    1  A    between atoms: N1_1  and  C1_4 
REMARK    2  A    between atoms: C3_10  and  C4_11 
REMARK    3  A    between atoms: C4_11  and  C5_12 
REMARK    4  A    between atoms: C5_12  and  C6_13 
REMARK    5  A    between atoms: C6_13  and  C7_14 
REMARK    6  A    between atoms: C7_14  and  C8_15 
REMARK    7  A    between atoms: C8_15  and  N4_16 
ROOT
HETATM    1  C4  UNL     1      10.884   6.848  12.496  1.00  0.00     0.059 C 
ENDROOT
BRANCH   1   2
HETATM    2  C3  UNL     1       9.750   7.408  13.280  1.00  0.00     0.043 A 
HETATM    3  C2  UNL     1       8.519   6.836  13.281  1.00  0.00     0.133 A 
HETATM    4  N3  UNL     1       7.493   7.358  13.991  1.00  0.00    -0.296 N 
HETATM    5  N2  UNL     1       7.712   8.443  14.690  1.00  0.00    -0.133 N 
ATOM      6  H3  UNL     1       6.573   6.917  13.982  1.00  0.00     0.186 HD
HETATM    7  C1  UNL     1       8.897   9.050  14.729  1.00  0.00     0.690 A 
ATOM      8  H2  UNL     1       6.943   8.842  15.228  1.00  0.00     0.205 HD
HETATM    9  N6  UNL     1       9.907   8.536  14.029  1.00  0.00    -0.193 N 
ATOM     10  H6  UNL     1      10.817   8.995  14.054  1.00  0.00     0.184 HD
BRANCH   7  11
HETATM   11  N1  UNL     1       9.088  10.132  15.431  1.00  0.00    -0.233 N 
ATOM     12  H12 UNL     1       9.888  10.189  16.062  1.00  0.00     0.174 HD
ATOM     13  H11 UNL     1       8.456  10.931  15.365  1.00  0.00     0.174 HD
ENDBRANCH   7  11
ENDBRANCH   1   2
BRANCH   1  14
HETATM   14  C5  UNL     1      11.215   5.432  12.908  1.00  0.00     0.006 C 
BRANCH  14  15
HETATM   15  C6  UNL     1      10.762   4.424  11.905  1.00  0.00     0.002 C 
BRANCH  15  16
HETATM   16  C7  UNL     1      11.546   4.497  10.602  1.00  0.00     0.030 C 
BRANCH  16  17
HETATM   17  C8  UNL     1      10.881   3.777   9.468  1.00  0.00     0.272 C 
BRANCH  17  18
HETATM   18  N4  UNL     1      10.754   4.678   8.334  1.00  0.00     0.091 N 
HETATM   19  C9  UNL     1      11.329   4.124   7.151  1.00  0.00     0.300 C 
HETATM   20  C10 UNL     1      12.713   4.585   6.938  1.00  0.00     0.262 C 
HETATM   21  N5  UNL     1      12.649   6.010   6.690  1.00  0.00    -0.072 N 
HETATM   22  C11 UNL     1      12.064   6.739   7.778  1.00  0.00     0.262 C 
ATOM     23  H52 UNL     1      13.569   6.381   6.455  1.00  0.00     0.277 HD
ATOM     24  H51 UNL     1      12.162   6.206   5.815  1.00  0.00     0.277 HD
HETATM   25  C12 UNL     1      11.115   6.018   8.636  1.00  0.00     0.300 C 
ENDBRANCH  17  18
ENDBRANCH  16  17
ENDBRANCH  15  16
ENDBRANCH  14  15
ENDBRANCH   1  14
TORSDOF 7
ENDMDL
MODEL 2
REMARK VINA RESULT: -7.222404285      1.253      2.174
REMARK  7 active torsions:
REMARK  status: ('A' for Active; 'I' for Inactive)
REMARK    1  A    between atoms: N1_1  and  C1_4 
REMARK    2  A    between atoms: C3_10  and  C4_11 
REMARK    3  A    between atoms: C4_11  and  C5_12 
REMARK    4  A    between atoms: C5_12  and  C6_13 
REMARK    5  A    between atoms: C6_13  and  C7_14 
REMARK    6  A    between atoms: C7_14  and  C8_15 
REMARK    7  A    between atoms: C8_15  and  N4_16 
ROOT
HETATM    1  C4  UNL     1       9.978   5.346  12.744  1.00  0.00     0.059 C 
ENDROOT
BRANCH   1   2
HETATM    2  C3  UNL     1      10.263   6.803  12.854  1.00  0.00     0.043 A 
HETATM    3  C2  UNL     1      11.239   7.406  12.128  1.00  0.00     0.133 A 
HETATM    4  N3  UNL     1      11.495   8.729  12.242  1.00  0.00    -0.296 N 
HETATM    5  N2  UNL     1      10.771   9.430  13.079  1.00  0.00    -0.133 N 
ATOM      6  H3  UNL     1      12.232   9.168  11.691  1.00  0.00     0.186 HD
HETATM    7  C1  UNL     1       9.800   8.896  13.817  1.00  0.00     0.690 A 
ATOM      8  H2  UNL     1      10.959  10.429  13.169  1.00  0.00     0.205 HD
HETATM    9  N6  UNL     1       9.550   7.592  13.704  1.00  0.00    -0.193 N 
ATOM     10  H6  UNL     1       8.808   7.177  14.267  1.00  0.00     0.184 HD
BRANCH   7  11
HETATM   11  N1  UNL     1       9.096   9.617  14.645  1.00  0.00    -0.233 N 
ATOM     12  H12 UNL     1       9.531  10.411  15.115  1.00  0.00     0.174 HD
ATOM     13  H11 UNL     1       8.116   9.409  14.835  1.00  0.00     0.174 HD
ENDBRANCH   7  11
ENDBRANCH   1   2
BRANCH   1  14
HETATM   14  C5  UNL     1      11.170   4.571  12.230  1.00  0.00     0.006 C 
BRANCH  14  15
HETATM   15  C6  UNL     1      10.774   3.336  11.491  1.00  0.00     0.002 C 
BRANCH  15  16
HETATM   16  C7  UNL     1      10.757   3.534   9.982  1.00  0.00     0.030 C 
BRANCH  16  17
HETATM   17  C8  UNL     1      11.502   4.755   9.535  1.00  0.00     0.272 C 
BRANCH  17  18
HETATM   18  N4  UNL     1      12.217   4.458   8.304  1.00  0.00     0.091 N 
HETATM   19  C9  UNL     1      12.991   5.573   7.860  1.00  0.00     0.300 C 
HETATM   20  C10 UNL     1      12.274   6.382   6.857  1.00  0.00     0.262 C 
HETATM   21  N5  UNL     1      12.110   5.550   5.684  1.00  0.00    -0.072 N 
HETATM   22  C11 UNL     1      11.368   4.351   5.950  1.00  0.00     0.262 C 
ATOM     23  H52 UNL     1      11.689   6.077   4.919  1.00  0.00     0.277 HD
ATOM     24  H51 UNL     1      13.012   5.335   5.261  1.00  0.00     0.277 HD
HETATM   25  C12 UNL     1      11.410   3.827   7.321  1.00  0.00     0.300 C 
ENDBRANCH  17  18
ENDBRANCH  16  17
ENDBRANCH  15  16
ENDBRANCH  14  15
ENDBRANCH   1  14
TORSDOF 7
ENDMDL
MODEL 3
REMARK VINA RESULT: -7.128018093      1.533      2.490
REMARK  7 active torsions:
REMARK  status: ('A' for Active; 'I' for Inactive)
REMARK    1  A    between atoms: N1_1  and  C1_4 
REMARK    2  A    between atoms: C3_10  and  C4_11 
REMARK    3  A    between atoms: C4_11  and  C5_12 
REMARK    4  A    between atoms: C5_12  and  C6_13 
REMARK    5  A    between atoms: C6_13  and  C7_14 
REMARK    6  A    between atoms: C7_14  and  C8_15 
REMARK    7  A    between atoms: C8_15  and  N4_16 
ROOT
HETATM    1  C4  UNL     1       9.784   5.445  12.758  1.00  0.00     0.059 C 
ENDROOT
BRANCH   1   2
HETATM    2  C3  UNL     1      10.135   6.891  12.780  1.00  0.00     0.043 A 
HETATM    3  C2  UNL     1       9.386   7.808  13.444  1.00  0.00     0.133 A 
HETATM    4  N3  UNL     1       9.709   9.120  13.451  1.00  0.00    -0.296 N 
HETATM    5  N2  UNL     1      10.779   9.498  12.795  1.00  0.00    -0.133 N 
ATOM      6  H3  UNL     1       9.137   9.798  13.954  1.00  0.00     0.186 HD
HETATM    7  C1  UNL     1      11.554   8.647  12.126  1.00  0.00     0.690 A 
ATOM      8  H2  UNL     1      11.029  10.487  12.796  1.00  0.00     0.205 HD
HETATM    9  N6  UNL     1      11.233   7.354  12.119  1.00  0.00    -0.193 N 
ATOM     10  H6  UNL     1      11.822   6.696  11.608  1.00  0.00     0.184 HD
BRANCH   7  11
HETATM   11  N1  UNL     1      12.611   9.050  11.478  1.00  0.00    -0.233 N 
ATOM     12  H12 UNL     1      13.231   9.739  11.905  1.00  0.00     0.174 HD
ATOM     13  H11 UNL     1      12.839   8.691  10.550  1.00  0.00     0.174 HD
ENDBRANCH   7  11
ENDBRANCH   1   2
BRANCH   1  14
HETATM   14  C5  UNL     1      10.930   4.589  12.271  1.00  0.00     0.006 C 
BRANCH  14  15
HETATM   15  C6  UNL     1      10.467   3.396  11.504  1.00  0.00     0.002 C 
BRANCH  15  16
HETATM   16  C7  UNL     1      10.695   3.536  10.005  1.00  0.00     0.030 C 
BRANCH  16  17
HETATM   17  C8  UNL     1      11.511   4.739   9.639  1.00  0.00     0.272 C 
BRANCH  17  18
HETATM   18  N4  UNL     1      12.223   4.478   8.399  1.00  0.00     0.091 N 
HETATM   19  C9  UNL     1      12.995   5.606   7.985  1.00  0.00     0.300 C 
HETATM   20  C10 UNL     1      12.275   6.442   7.007  1.00  0.00     0.262 C 
HETATM   21  N5  UNL     1      12.109   5.644   5.811  1.00  0.00    -0.072 N 
HETATM   22  C11 UNL     1      11.369   4.437   6.045  1.00  0.00     0.262 C 
ATOM     23  H52 UNL     1      11.686   6.192   5.063  1.00  0.00     0.277 HD
ATOM     24  H51 UNL     1      13.010   5.442   5.380  1.00  0.00     0.277 HD
HETATM   25  C12 UNL     1      11.413   3.874   7.400  1.00  0.00     0.300 C 
ENDBRANCH  17  18
ENDBRANCH  16  17
ENDBRANCH  15  16
ENDBRANCH  14  15
ENDBRANCH   1  14
TORSDOF 7
ENDMDL
MODEL 4
REMARK VINA RESULT: -7.091966561      1.355      1.925
REMARK  7 active torsions:
REMARK  status: ('A' for Active; 'I' for Inactive)
REMARK    1  A    between atoms: N1_1  and  C1_4 
REMARK    2  A    between atoms: C3_10  and  C4_11 
REMARK    3  A    between atoms: C4_11  and  C5_12 
REMARK    4  A    between atoms: C5_12  and  C6_13 
REMARK    5  A    between atoms: C6_13  and  C7_14 
REMARK    6  A    between atoms: C7_14  and  C8_15 
REMARK    7  A    between atoms: C8_15  and  N4_16 
ROOT
HETATM    1  C4  UNL     1      11.248   7.255  12.399  1.00  0.00     0.059 C 
ENDROOT
BRANCH   1   2
HETATM    2  C3  UNL     1      10.040   7.590  13.202  1.00  0.00     0.043 A 
HETATM    3  C2  UNL     1       8.921   6.823  13.179  1.00  0.00     0.133 A 
HETATM    4  N3  UNL     1       7.826   7.140  13.906  1.00  0.00    -0.296 N 
HETATM    5  N2  UNL     1       7.866   8.221  14.646  1.00  0.00    -0.133 N 
ATOM      6  H3  UNL     1       6.991   6.555  13.879  1.00  0.00     0.186 HD
HETATM    7  C1  UNL     1       8.934   9.013  14.710  1.00  0.00     0.690 A 
ATOM      8  H2  UNL     1       7.043   8.467  15.197  1.00  0.00     0.205 HD
HETATM    9  N6  UNL     1      10.012   8.699  13.992  1.00  0.00    -0.193 N 
ATOM     10  H6  UNL     1      10.833   9.302  14.036  1.00  0.00     0.184 HD
BRANCH   7  11
HETATM   11  N1  UNL     1       8.946  10.086  15.452  1.00  0.00    -0.233 N 
ATOM     12  H12 UNL     1       8.523  10.060  16.380  1.00  0.00     0.174 HD
ATOM     13  H11 UNL     1       9.373  10.954  15.129  1.00  0.00     0.174 HD
ENDBRANCH   7  11
ENDBRANCH   1   2
BRANCH   1  14
HETATM   14  C5  UNL     1      11.022   6.057  11.505  1.00  0.00     0.006 C 
BRANCH  14  15
HETATM   15  C6  UNL     1      11.428   6.314  10.092  1.00  0.00     0.002 C 
BRANCH  15  16
HETATM   16  C7  UNL     1      11.631   5.032   9.296  1.00  0.00     0.030 C 
BRANCH  16  17
HETATM   17  C8  UNL     1      10.924   5.037   7.974  1.00  0.00     0.272 C 
BRANCH  17  18
HETATM   18  N4  UNL     1      11.885   4.785   6.914  1.00  0.00     0.091 N 
HETATM   19  C9  UNL     1      11.313   4.021   5.851  1.00  0.00     0.300 C 
HETATM   20  C10 UNL     1      11.590   2.580   5.992  1.00  0.00     0.262 C 
HETATM   21  N5  UNL     1      13.021   2.410   5.845  1.00  0.00    -0.072 N 
HETATM   22  C11 UNL     1      13.772   3.140   6.826  1.00  0.00     0.262 C 
ATOM     23  H52 UNL     1      13.273   1.422   5.852  1.00  0.00     0.277 HD
ATOM     24  H51 UNL     1      13.322   2.651   4.901  1.00  0.00     0.277 HD
HETATM   25  C12 UNL     1      13.148   4.343   7.391  1.00  0.00     0.300 C 
ENDBRANCH  17  18
ENDBRANCH  16  17
ENDBRANCH  15  16
ENDBRANCH  14  15
ENDBRANCH   1  14
TORSDOF 7
ENDMDL
MODEL 5
REMARK VINA RESULT: -6.983566930      1.502      2.611
REMARK  7 active torsions:
REMARK  status: ('A' for Active; 'I' for Inactive)
REMARK    1  A    between atoms: N1_1  and  C1_4 
REMARK    2  A    between atoms: C3_10  and  C4_11 
REMARK    3  A    between atoms: C4_11  and  C5_12 
REMARK    4  A    between atoms: C5_12  and  C6_13 
REMARK    5  A    between atoms: C6_13  and  C7_14 
REMARK    6  A    between atoms: C7_14  and  C8_15 
REMARK    7  A    between atoms: C8_15  and  N4_16 
ROOT
HETATM    1  C4  UNL     1      11.328   4.862  12.138  1.00  0.00     0.059 C 
ENDROOT
BRANCH   1   2
HETATM    2  C3  UNL     1      10.684   6.161  12.474  1.00  0.00     0.043 A 
HETATM    3  C2  UNL     1      11.342   7.343  12.368  1.00  0.00     0.133 A 
HETATM    4  N3  UNL     1      10.750   8.517  12.683  1.00  0.00    -0.296 N 
HETATM    5  N2  UNL     1       9.508   8.493  13.098  1.00  0.00    -0.133 N 
ATOM      6  H3  UNL     1      11.257   9.398  12.599  1.00  0.00     0.186 HD
HETATM    7  C1  UNL     1       8.810   7.365  13.222  1.00  0.00     0.690 A 
ATOM      8  H2  UNL     1       9.055   9.375  13.337  1.00  0.00     0.205 HD
HETATM    9  N6  UNL     1       9.395   6.209  12.912  1.00  0.00    -0.193 N 
ATOM     10  H6  UNL     1       8.867   5.342  13.005  1.00  0.00     0.184 HD
BRANCH   7  11
HETATM   11  N1  UNL     1       7.575   7.369  13.641  1.00  0.00    -0.233 N 
ATOM     12  H12 UNL     1       6.839   6.993  13.043  1.00  0.00     0.174 HD
ATOM     13  H11 UNL     1       7.323   7.736  14.559  1.00  0.00     0.174 HD
ENDBRANCH   7  11
ENDBRANCH   1   2
BRANCH   1  14
HETATM   14  C5  UNL     1      10.360   3.898  11.491  1.00  0.00     0.006 C 
BRANCH  14  15
HETATM   15  C6  UNL     1      10.801   3.472  10.130  1.00  0.00     0.002 C 
BRANCH  15  16
HETATM   16  C7  UNL     1      11.439   4.604   9.338  1.00  0.00     0.030 C 
BRANCH  16  17
HETATM   17  C8  UNL     1      10.776   4.852   8.017  1.00  0.00     0.272 C 
BRANCH  17  18
HETATM   18  N4  UNL     1      11.749   4.682   6.950  1.00  0.00     0.091 N 
HETATM   19  C9  UNL     1      11.278   3.788   5.942  1.00  0.00     0.300 C 
HETATM   20  C10 UNL     1      11.762   2.411   6.152  1.00  0.00     0.262 C 
HETATM   21  N5  UNL     1      13.200   2.440   5.983  1.00  0.00    -0.072 N 
HETATM   22  C11 UNL     1      13.852   3.322   6.908  1.00  0.00     0.262 C 
ATOM     23  H52 UNL     1      13.592   1.500   6.037  1.00  0.00     0.277 HD
ATOM     24  H51 UNL     1      13.450   2.669   5.021  1.00  0.00     0.277 HD
HETATM   25  C12 UNL     1      13.069   4.453   7.422  1.00  0.00     0.300 C 
ENDBRANCH  17  18
ENDBRANCH  16  17
ENDBRANCH  15  16
ENDBRANCH  14  15
ENDBRANCH   1  14
TORSDOF 7
ENDMDL
