MODEL 1
REMARK VINA RESULT: -7.838973143      0.000      0.000
REMARK  5 active torsions:
REMARK  status: ('A' for Active; 'I' for Inactive)
REMARK    1  A    between atoms: C2_2  and  C3_3 
REMARK    2  A    between atoms: C3_3  and  C4_4 
REMARK    3  A    between atoms: C4_4  and  N1_5 
REMARK    4  A    between atoms: N5_18  and  C10_19 
REMARK    5  A    between atoms: C10_19  and  C11_20 
ROOT
HETATM    1  N1  UNL     1      11.263   7.351  11.754  1.00  0.00    -0.374 N 
ATOM      2  H1  UNL     1      11.493   8.157  11.172  1.00  0.00     0.161 HD
HETATM    3  C5  UNL     1      11.149   6.189  11.214  1.00  0.00     0.133 A 
HETATM    4  N2  UNL     1      10.850   5.063  11.882  1.00  0.00    -0.337 N 
ATOM      5  H2  UNL     1      10.697   5.100  12.890  1.00  0.00     0.168 HD
HETATM    6  C6  UNL     1      10.751   3.886  11.237  1.00  0.00     0.183 A 
HETATM    7  N3  UNL     1      10.937   3.753   9.917  1.00  0.00    -0.336 N 
ATOM      8  H3  UNL     1      10.851   2.838   9.472  1.00  0.00     0.168 HD
HETATM    9  C7  UNL     1      11.237   4.833   9.190  1.00  0.00     0.140 A 
HETATM   10  C8  UNL     1      11.344   6.049   9.827  1.00  0.00     0.122 A 
HETATM   11  N4  UNL     1      11.649   6.932   8.857  1.00  0.00    -0.346 N 
ATOM     12  H4  UNL     1      11.799   7.932   8.990  1.00  0.00     0.167 HD
HETATM   13  C9  UNL     1      11.723   6.274   7.676  1.00  0.00     0.185 A 
HETATM   14  N5  UNL     1      11.469   4.967   7.872  1.00  0.00    -0.321 N 
ENDROOT
BRANCH   1  15
HETATM   15  C4  UNL     1      11.070   7.526  13.163  1.00  0.00     0.125 C 
BRANCH  15  16
HETATM   16  C3  UNL     1      10.453   8.870  13.502  1.00  0.00     0.046 C 
BRANCH  16  17
HETATM   17  C2  UNL     1       9.295   8.714  14.427  1.00  0.00    -0.035 C 
HETATM   18  C1  UNL     1       9.054   9.565  15.415  1.00  0.00     0.007 C 
ENDBRANCH  16  17
ENDBRANCH  15  16
ENDBRANCH   1  15
BRANCH  14  19
HETATM   19  C10 UNL     1      11.458   3.952   6.837  1.00  0.00     0.204 C 
BRANCH  19  20
HETATM   20  C11 UNL     1      12.510   2.952   7.014  1.00  0.00     0.105 C 
HETATM   21  N6  UNL     1      13.720   3.125   6.606  1.00  0.00    -0.390 N 
ATOM     22  H62 UNL     1      13.945   4.003   6.138  1.00  0.00     0.157 HD
ATOM     23  H61 UNL     1      14.454   2.427   6.729  1.00  0.00     0.157 HD
HETATM   24  N7  UNL     1      12.198   1.733   7.661  1.00  0.00    -0.086 NA
ENDBRANCH  19  20
ENDBRANCH  14  19
TORSDOF 5
ENDMDL
MODEL 2
REMARK VINA RESULT: -7.697586439      1.526      6.967
REMARK  5 active torsions:
REMARK  status: ('A' for Active; 'I' for Inactive)
REMARK    1  A    between atoms: C2_2  and  C3_3 
REMARK    2  A    between atoms: C3_3  and  C4_4 
REMARK    3  A    between atoms: C4_4  and  N1_5 
REMARK    4  A    between atoms: N5_18  and  C10_19 
REMARK    5  A    between atoms: C10_19  and  C11_20 
ROOT
HETATM    1  N1  UNL     1      11.367   3.525   8.340  1.00  0.00    -0.374 N 
ATOM      2  H1  UNL     1      11.172   2.731   8.950  1.00  0.00     0.161 HD
HETATM    3  C5  UNL     1      11.435   4.708   8.841  1.00  0.00     0.133 A 
HETATM    4  N2  UNL     1      11.685   5.823   8.134  1.00  0.00    -0.337 N 
ATOM      5  H2  UNL     1      11.836   5.758   7.127  1.00  0.00     0.168 HD
HETATM    6  C6  UNL     1      11.739   7.023   8.739  1.00  0.00     0.183 A 
HETATM    7  N3  UNL     1      11.552   7.193  10.055  1.00  0.00    -0.336 N 
ATOM      8  H3  UNL     1      11.603   8.125  10.469  1.00  0.00     0.168 HD
HETATM    9  C7  UNL     1      11.298   6.126  10.818  1.00  0.00     0.140 A 
HETATM   10  C8  UNL     1      11.238   4.887  10.223  1.00  0.00     0.122 A 
HETATM   11  N4  UNL     1      10.973   4.026  11.223  1.00  0.00    -0.346 N 
ATOM     12  H4  UNL     1      10.862   3.016  11.124  1.00  0.00     0.167 HD
HETATM   13  C9  UNL     1      10.876   4.719  12.382  1.00  0.00     0.185 A 
HETATM   14  N5  UNL     1      11.077   6.027  12.142  1.00  0.00    -0.321 N 
ENDROOT
BRANCH   1  15
HETATM   15  C4  UNL     1      11.562   3.311   6.937  1.00  0.00     0.125 C 
BRANCH  15  16
HETATM   16  C3  UNL     1      12.576   2.220   6.651  1.00  0.00     0.046 C 
BRANCH  16  17
HETATM   17  C2  UNL     1      13.942   2.786   6.469  1.00  0.00    -0.035 C 
HETATM   18  C1  UNL     1      15.033   2.035   6.494  1.00  0.00     0.007 C 
ENDBRANCH  16  17
ENDBRANCH  15  16
ENDBRANCH   1  15
BRANCH  14  19
HETATM   19  C10 UNL     1      11.049   7.077  13.142  1.00  0.00     0.204 C 
BRANCH  19  20
HETATM   20  C11 UNL     1       9.788   7.817  13.152  1.00  0.00     0.105 C 
HETATM   21  N6  UNL     1       9.728   9.104  13.130  1.00  0.00    -0.390 N 
ATOM     22  H62 UNL     1      10.606   9.622  13.105  1.00  0.00     0.157 HD
ATOM     23  H61 UNL     1       8.848   9.620  13.136  1.00  0.00     0.157 HD
HETATM   24  N7  UNL     1       8.569   7.098  13.186  1.00  0.00    -0.086 NA
ENDBRANCH  19  20
ENDBRANCH  14  19
TORSDOF 5
ENDMDL
MODEL 3
REMARK VINA RESULT: -7.527148142      1.684      7.179
REMARK  5 active torsions:
REMARK  status: ('A' for Active; 'I' for Inactive)
REMARK    1  A    between atoms: C2_2  and  C3_3 
REMARK    2  A    between atoms: C3_3  and  C4_4 
REMARK    3  A    between atoms: C4_4  and  N1_5 
REMARK    4  A    between atoms: N5_18  and  C10_19 
REMARK    5  A    between atoms: C10_19  and  C11_20 
ROOT
HETATM    1  N1  UNL     1      11.398   3.616   8.148  1.00  0.00    -0.374 N 
ATOM      2  H1  UNL     1      11.209   2.794   8.720  1.00  0.00     0.161 HD
HETATM    3  C5  UNL     1      11.456   4.776   8.701  1.00  0.00     0.133 A 
HETATM    4  N2  UNL     1      11.697   5.923   8.046  1.00  0.00    -0.337 N 
ATOM      5  H2  UNL     1      11.849   5.906   7.037  1.00  0.00     0.168 HD
HETATM    6  C6  UNL     1      11.741   7.096   8.705  1.00  0.00     0.183 A 
HETATM    7  N3  UNL     1      11.552   7.204  10.027  1.00  0.00    -0.336 N 
ATOM      8  H3  UNL     1      11.595   8.116  10.482  1.00  0.00     0.168 HD
HETATM    9  C7  UNL     1      11.307   6.102  10.741  1.00  0.00     0.140 A 
HETATM   10  C8  UNL     1      11.257   4.890  10.090  1.00  0.00     0.122 A 
HETATM   11  N4  UNL     1      10.998   3.982  11.050  1.00  0.00    -0.346 N 
ATOM     12  H4  UNL     1      10.896   2.978  10.905  1.00  0.00     0.167 HD
HETATM   13  C9  UNL     1      10.895   4.622  12.239  1.00  0.00     0.185 A 
HETATM   14  N5  UNL     1      11.085   5.941  12.059  1.00  0.00    -0.321 N 
ENDROOT
BRANCH   1  15
HETATM   15  C4  UNL     1      11.595   3.467   6.737  1.00  0.00     0.125 C 
BRANCH  15  16
HETATM   16  C3  UNL     1      12.043   2.069   6.357  1.00  0.00     0.046 C 
BRANCH  16  17
HETATM   17  C2  UNL     1      11.297   1.566   5.169  1.00  0.00    -0.035 C 
HETATM   18  C1  UNL     1      11.490   0.355   4.668  1.00  0.00     0.007 C 
ENDBRANCH  16  17
ENDBRANCH  15  16
ENDBRANCH   1  15
BRANCH  14  19
HETATM   19  C10 UNL     1      11.048   6.944  13.105  1.00  0.00     0.204 C 
BRANCH  19  20
HETATM   20  C11 UNL     1       9.800   7.706  13.116  1.00  0.00     0.105 C 
HETATM   21  N6  UNL     1       9.762   8.994  13.088  1.00  0.00    -0.390 N 
ATOM     22  H62 UNL     1      10.649   9.496  13.057  1.00  0.00     0.157 HD
ATOM     23  H61 UNL     1       8.891   9.525  13.095  1.00  0.00     0.157 HD
HETATM   24  N7  UNL     1       8.570   7.009  13.158  1.00  0.00    -0.086 NA
ENDBRANCH  19  20
ENDBRANCH  14  19
TORSDOF 5
ENDMDL
MODEL 4
REMARK VINA RESULT: -7.431623760      0.830      1.034
REMARK  5 active torsions:
REMARK  status: ('A' for Active; 'I' for Inactive)
REMARK    1  A    between atoms: C2_2  and  C3_3 
REMARK    2  A    between atoms: C3_3  and  C4_4 
REMARK    3  A    between atoms: C4_4  and  N1_5 
REMARK    4  A    between atoms: N5_18  and  C10_19 
REMARK    5  A    between atoms: C10_19  and  C11_20 
ROOT
HETATM    1  N1  UNL     1      11.229   7.542  12.061  1.00  0.00    -0.374 N 
ATOM      2  H1  UNL     1      11.457   8.289  11.405  1.00  0.00     0.161 HD
HETATM    3  C5  UNL     1      11.117   6.334  11.634  1.00  0.00     0.133 A 
HETATM    4  N2  UNL     1      10.820   5.275  12.407  1.00  0.00    -0.337 N 
ATOM      5  H2  UNL     1      10.668   5.408  13.407  1.00  0.00     0.168 HD
HETATM    6  C6  UNL     1      10.723   4.043  11.876  1.00  0.00     0.183 A 
HETATM    7  N3  UNL     1      10.909   3.785  10.575  1.00  0.00    -0.336 N 
ATOM      8  H3  UNL     1      10.825   2.832  10.219  1.00  0.00     0.168 HD
HETATM    9  C7  UNL     1      11.207   4.792   9.749  1.00  0.00     0.140 A 
HETATM   10  C8  UNL     1      11.312   6.063  10.267  1.00  0.00     0.122 A 
HETATM   11  N4  UNL     1      11.614   6.850   9.217  1.00  0.00    -0.346 N 
ATOM     12  H4  UNL     1      11.762   7.858   9.254  1.00  0.00     0.167 HD
HETATM   13  C9  UNL     1      11.689   6.083   8.103  1.00  0.00     0.185 A 
HETATM   14  N5  UNL     1      11.437   4.800   8.423  1.00  0.00    -0.321 N 
ENDROOT
BRANCH   1  15
HETATM   15  C4  UNL     1      11.036   7.850  13.447  1.00  0.00     0.125 C 
BRANCH  15  16
HETATM   16  C3  UNL     1      10.207   9.103  13.654  1.00  0.00     0.046 C 
BRANCH  16  17
HETATM   17  C2  UNL     1       9.136   8.881  14.666  1.00  0.00    -0.035 C 
HETATM   18  C1  UNL     1       8.896   9.737  15.648  1.00  0.00     0.007 C 
ENDBRANCH  16  17
ENDBRANCH  15  16
ENDBRANCH   1  15
BRANCH  14  19
HETATM   19  C10 UNL     1      11.428   3.691   7.489  1.00  0.00     0.204 C 
BRANCH  19  20
HETATM   20  C11 UNL     1      12.290   3.919   6.330  1.00  0.00     0.105 C 
HETATM   21  N6  UNL     1      11.869   4.454   5.236  1.00  0.00    -0.390 N 
ATOM     22  H62 UNL     1      10.888   4.728   5.185  1.00  0.00     0.157 HD
ATOM     23  H61 UNL     1      12.471   4.614   4.427  1.00  0.00     0.157 HD
HETATM   24  N7  UNL     1      13.651   3.539   6.400  1.00  0.00    -0.086 NA
ENDBRANCH  19  20
ENDBRANCH  14  19
TORSDOF 5
ENDMDL
MODEL 5
REMARK VINA RESULT: -7.414142220      1.589      6.678
REMARK  5 active torsions:
REMARK  status: ('A' for Active; 'I' for Inactive)
REMARK    1  A    between atoms: C2_2  and  C3_3 
REMARK    2  A    between atoms: C3_3  and  C4_4 
REMARK    3  A    between atoms: C4_4  and  N1_5 
REMARK    4  A    between atoms: N5_18  and  C10_19 
REMARK    5  A    between atoms: C10_19  and  C11_20 
ROOT
HETATM    1  N1  UNL     1      11.628   4.590   8.676  1.00  0.00    -0.374 N 
ATOM      2  H1  UNL     1      11.998   5.430   8.232  1.00  0.00     0.161 HD
HETATM    3  C5  UNL     1      11.267   4.630   9.910  1.00  0.00     0.133 A 
HETATM    4  N2  UNL     1      10.769   3.587  10.594  1.00  0.00    -0.337 N 
ATOM      5  H2  UNL     1      10.656   2.686  10.129  1.00  0.00     0.168 HD
HETATM    6  C6  UNL     1      10.415   3.717  11.886  1.00  0.00     0.183 A 
HETATM    7  N3  UNL     1      10.530   4.865  12.568  1.00  0.00    -0.336 N 
ATOM      8  H3  UNL     1      10.248   4.915  13.548  1.00  0.00     0.168 HD
HETATM    9  C7  UNL     1      11.019   5.943  11.949  1.00  0.00     0.140 A 
HETATM   10  C8  UNL     1      11.389   5.835  10.627  1.00  0.00     0.122 A 
HETATM   11  N4  UNL     1      11.835   7.058  10.283  1.00  0.00    -0.346 N 
ATOM     12  H4  UNL     1      12.188   7.324   9.363  1.00  0.00     0.167 HD
HETATM   13  C9  UNL     1      11.740   7.876  11.358  1.00  0.00     0.185 A 
HETATM   14  N5  UNL     1      11.233   7.192  12.400  1.00  0.00    -0.321 N 
ENDROOT
BRANCH   1  15
HETATM   15  C4  UNL     1      11.517   3.378   7.920  1.00  0.00     0.125 C 
BRANCH  15  16
HETATM   16  C3  UNL     1      12.202   3.471   6.570  1.00  0.00     0.046 C 
BRANCH  16  17
HETATM   17  C2  UNL     1      11.368   4.223   5.591  1.00  0.00    -0.035 C 
HETATM   18  C1  UNL     1      11.757   5.372   5.059  1.00  0.00     0.007 C 
ENDBRANCH  16  17
ENDBRANCH  15  16
ENDBRANCH   1  15
BRANCH  14  19
HETATM   19  C10 UNL     1      10.988   7.739  13.721  1.00  0.00     0.204 C 
BRANCH  19  20
HETATM   20  C11 UNL     1       9.685   8.393  13.830  1.00  0.00     0.105 C 
HETATM   21  N6  UNL     1       8.660   8.039  13.133  1.00  0.00    -0.390 N 
ATOM     22  H62 UNL     1       8.773   7.265  12.478  1.00  0.00     0.157 HD
ATOM     23  H61 UNL     1       7.751   8.495  13.209  1.00  0.00     0.157 HD
HETATM   24  N7  UNL     1       9.529   9.466  14.738  1.00  0.00    -0.086 NA
ENDBRANCH  19  20
ENDBRANCH  14  19
TORSDOF 5
ENDMDL
