MODEL 1
REMARK VINA RESULT: -7.139155431      0.000      0.000
REMARK  6 active torsions:
REMARK  status: ('A' for Active; 'I' for Inactive)
REMARK    1  A    between atoms: C2_3  and  C3_4 
REMARK    2  A    between atoms: C3_4  and  N2_5 
REMARK    3  A    between atoms: C3_4  and  C10_17 
REMARK    4  A    between atoms: N2_5  and  C4_7 
REMARK    5  A    between atoms: C4_7  and  C5_8 
REMARK    6  A    between atoms: C5_8  and  N3_9 
ROOT
HETATM    1  N1  UNL     1      14.076   5.807   8.350  1.00  0.00    -0.197 NA
HETATM    2  C1  UNL     1      12.981   5.994   8.583  1.00  0.00     0.061 C 
HETATM    3  C2  UNL     1      11.588   6.233   8.907  1.00  0.00     0.155 C 
ENDROOT
BRANCH   3   4
HETATM    4  C3  UNL     1      10.803   4.911   8.976  1.00  0.00     0.141 C 
BRANCH   4   5
HETATM    5  N2  UNL     1      11.040   4.361  10.258  1.00  0.00    -0.407 N 
ATOM      6  H2  UNL     1      11.002   3.351  10.401  1.00  0.00     0.154 HD
BRANCH   5   7
HETATM    7  C4  UNL     1      11.328   5.225  11.335  1.00  0.00     0.159 C 
BRANCH   7   8
HETATM    8  C5  UNL     1      10.257   5.243  12.411  1.00  0.00     0.082 C 
BRANCH   8   9
HETATM    9  N3  UNL     1       9.949   6.531  12.872  1.00  0.00    -0.369 N 
HETATM   10  C6  UNL     1      10.993   7.364  13.298  1.00  0.00     0.090 C 
HETATM   11  C7  UNL     1      10.559   8.812  13.246  1.00  0.00     0.277 C 
HETATM   12  N4  UNL     1       9.351   9.079  13.958  1.00  0.00    -0.069 N 
HETATM   13  C8  UNL     1       8.570   7.879  14.248  1.00  0.00     0.252 C 
ATOM     14  H42 UNL     1       9.542   9.601  14.812  1.00  0.00     0.277 HD
ATOM     15  H41 UNL     1       8.784   9.767  13.462  1.00  0.00     0.277 HD
HETATM   16  C9  UNL     1       8.627   6.951  13.025  1.00  0.00     0.154 C 
ENDBRANCH   8   9
ENDBRANCH   7   8
ENDBRANCH   5   7
ENDBRANCH   4   5
BRANCH   4  17
HETATM   17  C10 UNL     1      11.203   4.086   7.816  1.00  0.00     0.049 A 
HETATM   18  C11 UNL     1      11.053   4.384   6.463  1.00  0.00     0.116 A 
HETATM   19  N5  UNL     1      11.521   3.372   5.698  1.00  0.00    -0.360 N 
HETATM   20  C12 UNL     1      11.965   2.440   6.568  1.00  0.00     0.180 A 
ATOM     21  H5  UNL     1      11.537   3.323   4.680  1.00  0.00     0.166 HD
HETATM   22  N6  UNL     1      11.772   2.872   7.825  1.00  0.00    -0.353 N 
ATOM     23  H6  UNL     1      12.024   2.351   8.665  1.00  0.00     0.166 HD
ENDBRANCH   4  17
ENDBRANCH   3   4
TORSDOF 6
ENDMDL
MODEL 2
REMARK VINA RESULT: -7.131614693      0.185      1.153
REMARK  6 active torsions:
REMARK  status: ('A' for Active; 'I' for Inactive)
REMARK    1  A    between atoms: C2_3  and  C3_4 
REMARK    2  A    between atoms: C3_4  and  N2_5 
REMARK    3  A    between atoms: C3_4  and  C10_17 
REMARK    4  A    between atoms: N2_5  and  C4_7 
REMARK    5  A    between atoms: C4_7  and  C5_8 
REMARK    6  A    between atoms: C5_8  and  N3_9 
ROOT
HETATM    1  N1  UNL     1      14.223   5.840   8.490  1.00  0.00    -0.197 NA
HETATM    2  C1  UNL     1      13.115   6.075   8.553  1.00  0.00     0.061 C 
HETATM    3  C2  UNL     1      11.701   6.377   8.660  1.00  0.00     0.155 C 
ENDROOT
BRANCH   3   4
HETATM    4  C3  UNL     1      10.871   5.090   8.812  1.00  0.00     0.141 C 
BRANCH   4   5
HETATM    5  N2  UNL     1      11.106   4.603  10.119  1.00  0.00    -0.407 N 
ATOM      6  H2  UNL     1      11.135   3.599  10.299  1.00  0.00     0.154 HD
BRANCH   5   7
HETATM    7  C4  UNL     1      11.301   5.523  11.171  1.00  0.00     0.159 C 
BRANCH   7   8
HETATM    8  C5  UNL     1      10.315   5.364  12.315  1.00  0.00     0.082 C 
BRANCH   8   9
HETATM    9  N3  UNL     1      10.011   6.569  12.963  1.00  0.00    -0.369 N 
HETATM   10  C6  UNL     1       8.667   6.930  13.126  1.00  0.00     0.090 C 
HETATM   11  C7  UNL     1       8.526   7.924  14.257  1.00  0.00     0.277 C 
HETATM   12  N4  UNL     1       9.365   9.071  14.126  1.00  0.00    -0.069 N 
HETATM   13  C8  UNL     1      10.458   8.886  13.175  1.00  0.00     0.252 C 
ATOM     14  H42 UNL     1       8.815   9.896  13.888  1.00  0.00     0.277 HD
ATOM     15  H41 UNL     1       9.723   9.362  15.036  1.00  0.00     0.277 HD
HETATM   16  C9  UNL     1      11.014   7.464  13.340  1.00  0.00     0.154 C 
ENDBRANCH   8   9
ENDBRANCH   7   8
ENDBRANCH   5   7
ENDBRANCH   4   5
BRANCH   4  17
HETATM   17  C10 UNL     1      11.224   4.188   7.695  1.00  0.00     0.049 A 
HETATM   18  C11 UNL     1      11.076   4.421   6.329  1.00  0.00     0.116 A 
HETATM   19  N5  UNL     1      11.494   3.351   5.616  1.00  0.00    -0.360 N 
HETATM   20  C12 UNL     1      11.904   2.447   6.531  1.00  0.00     0.180 A 
ATOM     21  H5  UNL     1      11.498   3.248   4.601  1.00  0.00     0.166 HD
HETATM   22  N6  UNL     1      11.741   2.953   7.764  1.00  0.00    -0.353 N 
ATOM     23  H6  UNL     1      11.976   2.466   8.629  1.00  0.00     0.166 HD
ENDBRANCH   4  17
ENDBRANCH   3   4
TORSDOF 6
ENDMDL
MODEL 3
REMARK VINA RESULT: -7.023026300      1.449      2.571
REMARK  6 active torsions:
REMARK  status: ('A' for Active; 'I' for Inactive)
REMARK    1  A    between atoms: C2_3  and  C3_4 
REMARK    2  A    between atoms: C3_4  and  N2_5 
REMARK    3  A    between atoms: C3_4  and  C10_17 
REMARK    4  A    between atoms: N2_5  and  C4_7 
REMARK    5  A    between atoms: C4_7  and  C5_8 
REMARK    6  A    between atoms: C5_8  and  N3_9 
ROOT
HETATM    1  N1  UNL     1      11.231   2.020  11.756  1.00  0.00    -0.197 NA
HETATM    2  C1  UNL     1      10.935   2.715  10.910  1.00  0.00     0.061 C 
HETATM    3  C2  UNL     1      10.571   3.590   9.812  1.00  0.00     0.155 C 
ENDROOT
BRANCH   3   4
HETATM    4  C3  UNL     1      11.555   4.768   9.695  1.00  0.00     0.141 C 
BRANCH   4   5
HETATM    5  N2  UNL     1      11.029   5.821  10.479  1.00  0.00    -0.407 N 
ATOM      6  H2  UNL     1      10.498   6.575  10.041  1.00  0.00     0.154 HD
BRANCH   5   7
HETATM    7  C4  UNL     1      11.248   5.817  11.873  1.00  0.00     0.159 C 
BRANCH   7   8
HETATM    8  C5  UNL     1       9.971   5.800  12.694  1.00  0.00     0.082 C 
BRANCH   8   9
HETATM    9  N3  UNL     1       9.723   7.005  13.367  1.00  0.00    -0.369 N 
HETATM   10  C6  UNL     1       8.395   7.408  13.565  1.00  0.00     0.090 C 
HETATM   11  C7  UNL     1       8.313   8.389  14.714  1.00  0.00     0.277 C 
HETATM   12  N4  UNL     1       9.188   9.509  14.581  1.00  0.00    -0.069 N 
HETATM   13  C8  UNL     1      10.252   9.302  13.602  1.00  0.00     0.252 C 
ATOM     14  H42 UNL     1       8.661  10.355  14.368  1.00  0.00     0.277 HD
ATOM     15  H41 UNL     1       9.576   9.773  15.486  1.00  0.00     0.277 HD
HETATM   16  C9  UNL     1      10.763   7.859  13.733  1.00  0.00     0.154 C 
ENDBRANCH   8   9
ENDBRANCH   7   8
ENDBRANCH   5   7
ENDBRANCH   4   5
BRANCH   4  17
HETATM   17  C10 UNL     1      11.758   5.047   8.257  1.00  0.00     0.049 A 
HETATM   18  C11 UNL     1      12.315   6.186   7.678  1.00  0.00     0.116 A 
HETATM   19  N5  UNL     1      12.312   6.084   6.330  1.00  0.00    -0.360 N 
HETATM   20  C12 UNL     1      11.755   4.884   6.062  1.00  0.00     0.180 A 
ATOM     21  H5  UNL     1      12.658   6.769   5.658  1.00  0.00     0.166 HD
HETATM   22  N6  UNL     1      11.428   4.274   7.212  1.00  0.00    -0.353 N 
ATOM     23  H6  UNL     1      10.993   3.354   7.282  1.00  0.00     0.166 HD
ENDBRANCH   4  17
ENDBRANCH   3   4
TORSDOF 6
ENDMDL
MODEL 4
REMARK VINA RESULT: -7.020949519      1.453      2.382
REMARK  6 active torsions:
REMARK  status: ('A' for Active; 'I' for Inactive)
REMARK    1  A    between atoms: C2_3  and  C3_4 
REMARK    2  A    between atoms: C3_4  and  N2_5 
REMARK    3  A    between atoms: C3_4  and  C10_17 
REMARK    4  A    between atoms: N2_5  and  C4_7 
REMARK    5  A    between atoms: C4_7  and  C5_8 
REMARK    6  A    between atoms: C5_8  and  N3_9 
ROOT
HETATM    1  N1  UNL     1      11.046   2.035  11.751  1.00  0.00    -0.197 NA
HETATM    2  C1  UNL     1      10.841   2.752  10.896  1.00  0.00     0.061 C 
HETATM    3  C2  UNL     1      10.594   3.654   9.788  1.00  0.00     0.155 C 
ENDROOT
BRANCH   3   4
HETATM    4  C3  UNL     1      11.609   4.810   9.780  1.00  0.00     0.141 C 
BRANCH   4   5
HETATM    5  N2  UNL     1      11.091   5.816  10.628  1.00  0.00    -0.407 N 
ATOM      6  H2  UNL     1      10.623   6.633  10.234  1.00  0.00     0.154 HD
BRANCH   5   7
HETATM    7  C4  UNL     1      11.230   5.678  12.025  1.00  0.00     0.159 C 
BRANCH   7   8
HETATM    8  C5  UNL     1       9.919   5.768  12.784  1.00  0.00     0.082 C 
BRANCH   8   9
HETATM    9  N3  UNL     1       9.650   7.050  13.285  1.00  0.00    -0.369 N 
HETATM   10  C6  UNL     1      10.724   7.900  13.583  1.00  0.00     0.090 C 
HETATM   11  C7  UNL     1      10.264   9.340  13.592  1.00  0.00     0.277 C 
HETATM   12  N4  UNL     1       9.149   9.585  14.448  1.00  0.00    -0.069 N 
HETATM   13  C8  UNL     1       8.430   8.372  14.828  1.00  0.00     0.252 C 
ATOM     14  H42 UNL     1       9.436  10.108  15.275  1.00  0.00     0.277 HD
ATOM     15  H41 UNL     1       8.514  10.265  14.029  1.00  0.00     0.277 HD
HETATM   16  C9  UNL     1       8.350   7.448  13.603  1.00  0.00     0.154 C 
ENDBRANCH   8   9
ENDBRANCH   7   8
ENDBRANCH   5   7
ENDBRANCH   4   5
BRANCH   4  17
HETATM   17  C10 UNL     1      11.853   5.190   8.372  1.00  0.00     0.049 A 
HETATM   18  C11 UNL     1      12.267   6.425   7.879  1.00  0.00     0.116 A 
HETATM   19  N5  UNL     1      12.360   6.393   6.530  1.00  0.00    -0.360 N 
HETATM   20  C12 UNL     1      12.005   5.140   6.176  1.00  0.00     0.180 A 
ATOM     21  H5  UNL     1      12.640   7.155   5.912  1.00  0.00     0.166 HD
HETATM   22  N6  UNL     1      11.706   4.431   7.276  1.00  0.00    -0.353 N 
ATOM     23  H6  UNL     1      11.409   3.455   7.278  1.00  0.00     0.166 HD
ENDBRANCH   4  17
ENDBRANCH   3   4
TORSDOF 6
ENDMDL
MODEL 5
REMARK VINA RESULT: -6.950493461      1.307      6.906
REMARK  6 active torsions:
REMARK  status: ('A' for Active; 'I' for Inactive)
REMARK    1  A    between atoms: C2_3  and  C3_4 
REMARK    2  A    between atoms: C3_4  and  N2_5 
REMARK    3  A    between atoms: C3_4  and  C10_17 
REMARK    4  A    between atoms: N2_5  and  C4_7 
REMARK    5  A    between atoms: C4_7  and  C5_8 
REMARK    6  A    between atoms: C5_8  and  N3_9 
ROOT
HETATM    1  N1  UNL     1      10.845   2.871  10.559  1.00  0.00    -0.197 NA
HETATM    2  C1  UNL     1      10.978   3.779  11.225  1.00  0.00     0.061 C 
HETATM    3  C2  UNL     1      11.126   4.936  12.088  1.00  0.00     0.155 C 
ENDROOT
BRANCH   3   4
HETATM    4  C3  UNL     1      10.608   6.209  11.396  1.00  0.00     0.141 C 
BRANCH   4   5
HETATM    5  N2  UNL     1      11.654   6.682  10.570  1.00  0.00    -0.407 N 
ATOM      6  H2  UNL     1      12.481   7.114  10.981  1.00  0.00     0.154 HD
BRANCH   5   7
HETATM    7  C4  UNL     1      11.538   6.549   9.170  1.00  0.00     0.159 C 
BRANCH   7   8
HETATM    8  C5  UNL     1      12.718   5.847   8.521  1.00  0.00     0.082 C 
BRANCH   8   9
HETATM    9  N3  UNL     1      12.344   4.807   7.658  1.00  0.00    -0.369 N 
HETATM   10  C6  UNL     1      13.338   3.963   7.145  1.00  0.00     0.090 C 
HETATM   11  C7  UNL     1      12.732   2.651   6.701  1.00  0.00     0.277 C 
HETATM   12  N4  UNL     1      11.644   2.797   5.788  1.00  0.00    -0.069 N 
HETATM   13  C8  UNL     1      11.077   4.143   5.770  1.00  0.00     0.252 C 
ATOM     14  H42 UNL     1      11.919   2.508   4.849  1.00  0.00     0.277 HD
ATOM     15  H41 UNL     1      10.921   2.102   5.974  1.00  0.00     0.277 HD
HETATM   16  C9  UNL     1      11.029   4.672   7.211  1.00  0.00     0.154 C 
ENDBRANCH   8   9
ENDBRANCH   7   8
ENDBRANCH   5   7
ENDBRANCH   4   5
BRANCH   4  17
HETATM   17  C10 UNL     1      10.125   7.130  12.448  1.00  0.00     0.049 A 
HETATM   18  C11 UNL     1       8.902   7.100  13.115  1.00  0.00     0.116 A 
HETATM   19  N5  UNL     1       8.815   8.122  13.996  1.00  0.00    -0.360 N 
HETATM   20  C12 UNL     1       9.981   8.793  13.884  1.00  0.00     0.180 A 
ATOM     21  H5  UNL     1       8.034   8.339  14.615  1.00  0.00     0.166 HD
HETATM   22  N6  UNL     1      10.754   8.197  12.962  1.00  0.00    -0.353 N 
ATOM     23  H6  UNL     1      11.686   8.511  12.692  1.00  0.00     0.166 HD
ENDBRANCH   4  17
ENDBRANCH   3   4
TORSDOF 6
ENDMDL
