MODEL 1
REMARK VINA RESULT: -7.963138133      0.000      0.000
REMARK  6 active torsions:
REMARK  status: ('A' for Active; 'I' for Inactive)
REMARK       I    between atoms: N1_7  and  C6_8 
REMARK    1  A    between atoms: C6_8  and  C7_10 
REMARK    2  A    between atoms: C7_10  and  C8_11 
REMARK    3  A    between atoms: C8_11  and  C9_12 
REMARK       I    between atoms: C9_12  and  N2_14 
REMARK    4  A    between atoms: N3_17  and  C13_19 
REMARK    5  A    between atoms: C13_19  and  C14_20 
REMARK       I    between atoms: C14_20  and  N4_22 
REMARK       I    between atoms: N4_22  and  C15_24 
REMARK       I    between atoms: C15_24  and  N5_26 
REMARK    6  A    between atoms: N5_26  and  C16_28 
ROOT
HETATM    1  C9  UNL     1       4.478   4.401  22.045  1.00  0.00     0.220 C 
HETATM    2  O2  UNL     1       3.582   4.037  22.881  1.00  0.00    -0.273 OA
HETATM    3  N2  UNL     1       4.808   5.759  21.905  1.00  0.00    -0.349 N 
HETATM    4  C10 UNL     1       5.815   6.188  20.956  1.00  0.00     0.154 C 
HETATM    5  C11 UNL     1       6.799   7.144  21.614  1.00  0.00     0.257 C 
HETATM    6  N3  UNL     1       6.224   8.019  22.576  1.00  0.00    -0.059 N 
HETATM    7  C12 UNL     1       6.654   7.760  23.920  1.00  0.00     0.273 C 
HETATM    8  C20 UNL     1       4.767   8.053  22.478  1.00  0.00     0.257 C 
HETATM    9  C21 UNL     1       4.120   6.734  22.746  1.00  0.00     0.154 C 
ENDROOT
BRANCH   1  10
HETATM   10  C8  UNL     1       5.174   3.386  21.220  1.00  0.00     0.112 C 
BRANCH  10  11
HETATM   11  C7  UNL     1       4.262   2.997  20.053  1.00  0.00     0.112 C 
BRANCH  11  12
HETATM   12  C6  UNL     1       4.939   3.239  18.752  1.00  0.00     0.220 C 
HETATM   13  N1  UNL     1       5.859   2.341  18.183  1.00  0.00    -0.352 N 
HETATM   14  C5  UNL     1       6.154   1.114  18.904  1.00  0.00     0.126 C 
HETATM   15  C22 UNL     1       6.434   2.719  16.938  1.00  0.00     0.129 C 
HETATM   16  C4  UNL     1       7.545   1.175  19.484  1.00  0.00     0.023 C 
HETATM   17  C3  UNL     1       8.636   0.840  18.556  1.00  0.00     0.045 C 
HETATM   18  C2  UNL     1       8.489   1.253  17.129  1.00  0.00     0.101 C 
HETATM   19  C1  UNL     1       7.822   0.165  16.306  1.00  0.00     0.051 C 
HETATM   20  F1  UNL     1       9.809   1.310  16.631  1.00  0.00    -0.243 F 
HETATM   21  C23 UNL     1       7.927   2.605  16.888  1.00  0.00     0.063 C 
HETATM   22  O1  UNL     1       4.664   4.302  18.148  1.00  0.00    -0.273 OA
ENDBRANCH  11  12
ENDBRANCH  10  11
ENDBRANCH   1  10
BRANCH   6  23
HETATM   23  C13 UNL     1       6.628   9.398  22.245  1.00  0.00     0.339 C 
BRANCH  23  24
HETATM   24  C14 UNL     1       7.899   9.487  21.535  1.00  0.00     0.251 C 
HETATM   25  O3  UNL     1       8.946   9.422  22.301  1.00  0.00    -0.271 OA
HETATM   26  N4  UNL     1       8.131   9.631  20.163  1.00  0.00    -0.278 N 
HETATM   27  C15 UNL     1       7.224   9.741  19.125  1.00  0.00     0.323 C 
ATOM     28  H4  UNL     1       9.113   9.661  19.889  1.00  0.00     0.173 HD
HETATM   29  O4  UNL     1       7.736   9.876  17.939  1.00  0.00    -0.247 OA
HETATM   30  N5  UNL     1       5.825   9.728  19.162  1.00  0.00    -0.335 N 
ATOM     31  H5  UNL     1       5.332   9.622  20.049  1.00  0.00     0.165 HD
BRANCH  30  32
HETATM   32  C16 UNL     1       5.068   9.871  17.898  1.00  0.00     0.023 C 
HETATM   33  C17 UNL     1       5.539   8.858  16.874  1.00  0.00     0.037 C 
HETATM   34  C18 UNL     1       5.283  11.283  17.416  1.00  0.00     0.037 C 
HETATM   35  C19 UNL     1       3.608   9.641  18.141  1.00  0.00     0.037 C 
ENDBRANCH  30  32
ENDBRANCH  23  24
ENDBRANCH   6  23
TORSDOF 6
ENDMDL
MODEL 2
REMARK VINA RESULT: -7.820546959      3.208      6.926
REMARK  6 active torsions:
REMARK  status: ('A' for Active; 'I' for Inactive)
REMARK       I    between atoms: N1_7  and  C6_8 
REMARK    1  A    between atoms: C6_8  and  C7_10 
REMARK    2  A    between atoms: C7_10  and  C8_11 
REMARK    3  A    between atoms: C8_11  and  C9_12 
REMARK       I    between atoms: C9_12  and  N2_14 
REMARK    4  A    between atoms: N3_17  and  C13_19 
REMARK    5  A    between atoms: C13_19  and  C14_20 
REMARK       I    between atoms: C14_20  and  N4_22 
REMARK       I    between atoms: N4_22  and  C15_24 
REMARK       I    between atoms: C15_24  and  N5_26 
REMARK    6  A    between atoms: N5_26  and  C16_28 
ROOT
HETATM    1  C9  UNL     1       6.855   9.591  18.723  1.00  0.00     0.220 C 
HETATM    2  O2  UNL     1       8.021  10.091  18.562  1.00  0.00    -0.273 OA
HETATM    3  N2  UNL     1       6.624   8.642  19.733  1.00  0.00    -0.349 N 
HETATM    4  C10 UNL     1       5.311   8.061  19.923  1.00  0.00     0.154 C 
HETATM    5  C11 UNL     1       4.911   8.107  21.391  1.00  0.00     0.257 C 
HETATM    6  N3  UNL     1       5.982   7.908  22.304  1.00  0.00    -0.059 N 
HETATM    7  C12 UNL     1       6.304   9.073  23.077  1.00  0.00     0.273 C 
HETATM    8  C20 UNL     1       7.166   7.361  21.645  1.00  0.00     0.257 C 
HETATM    9  C21 UNL     1       7.736   8.261  20.599  1.00  0.00     0.154 C 
ENDROOT
BRANCH   1  10
HETATM   10  C8  UNL     1       5.742  10.013  17.842  1.00  0.00     0.112 C 
BRANCH  10  11
HETATM   11  C7  UNL     1       5.823   9.217  16.536  1.00  0.00     0.112 C 
BRANCH  11  12
HETATM   12  C6  UNL     1       6.547   9.991  15.493  1.00  0.00     0.220 C 
HETATM   13  N1  UNL     1       6.825   9.482  14.212  1.00  0.00    -0.352 N 
HETATM   14  C5  UNL     1       6.376   8.137  13.896  1.00  0.00     0.126 C 
HETATM   15  C22 UNL     1       7.538  10.338  13.327  1.00  0.00     0.129 C 
HETATM   16  C4  UNL     1       7.556   7.199  13.826  1.00  0.00     0.023 C 
HETATM   17  C3  UNL     1       8.296   7.203  12.555  1.00  0.00     0.045 C 
HETATM   18  C2  UNL     1       8.430   8.502  11.830  1.00  0.00     0.101 C 
HETATM   19  C1  UNL     1       7.289   8.707  10.851  1.00  0.00     0.051 C 
HETATM   20  F1  UNL     1       9.571   8.343  11.013  1.00  0.00    -0.243 F 
HETATM   21  C23 UNL     1       8.717   9.696  12.664  1.00  0.00     0.063 C 
HETATM   22  O1  UNL     1       6.919  11.150  15.789  1.00  0.00    -0.273 OA
ENDBRANCH  11  12
ENDBRANCH  10  11
ENDBRANCH   1  10
BRANCH   6  23
HETATM   23  C13 UNL     1       5.590   6.848  23.252  1.00  0.00     0.339 C 
BRANCH  23  24
HETATM   24  C14 UNL     1       4.195   6.439  23.136  1.00  0.00     0.251 C 
HETATM   25  O3  UNL     1       3.368   7.154  23.837  1.00  0.00    -0.271 OA
HETATM   26  N4  UNL     1       3.645   5.398  22.383  1.00  0.00    -0.278 N 
HETATM   27  C15 UNL     1       4.274   4.477  21.564  1.00  0.00     0.323 C 
ATOM     28  H4  UNL     1       2.631   5.303  22.446  1.00  0.00     0.173 HD
HETATM   29  O4  UNL     1       3.498   3.607  20.992  1.00  0.00    -0.247 OA
HETATM   30  N5  UNL     1       5.633   4.341  21.259  1.00  0.00    -0.335 N 
ATOM     31  H5  UNL     1       6.318   4.982  21.659  1.00  0.00     0.165 HD
BRANCH  30  32
HETATM   32  C16 UNL     1       6.064   3.256  20.350  1.00  0.00     0.023 C 
HETATM   33  C17 UNL     1       5.912   1.905  21.019  1.00  0.00     0.037 C 
HETATM   34  C18 UNL     1       7.500   3.533  19.987  1.00  0.00     0.037 C 
HETATM   35  C19 UNL     1       5.224   3.257  19.110  1.00  0.00     0.037 C 
ENDBRANCH  30  32
ENDBRANCH  23  24
ENDBRANCH   6  23
TORSDOF 6
ENDMDL
MODEL 3
REMARK VINA RESULT: -7.780183938      3.334      7.147
REMARK  6 active torsions:
REMARK  status: ('A' for Active; 'I' for Inactive)
REMARK       I    between atoms: N1_7  and  C6_8 
REMARK    1  A    between atoms: C6_8  and  C7_10 
REMARK    2  A    between atoms: C7_10  and  C8_11 
REMARK    3  A    between atoms: C8_11  and  C9_12 
REMARK       I    between atoms: C9_12  and  N2_14 
REMARK    4  A    between atoms: N3_17  and  C13_19 
REMARK    5  A    between atoms: C13_19  and  C14_20 
REMARK       I    between atoms: C14_20  and  N4_22 
REMARK       I    between atoms: N4_22  and  C15_24 
REMARK       I    between atoms: C15_24  and  N5_26 
REMARK    6  A    between atoms: N5_26  and  C16_28 
ROOT
HETATM    1  C9  UNL     1       6.756  10.221  18.397  1.00  0.00     0.220 C 
HETATM    2  O2  UNL     1       7.735  11.021  18.209  1.00  0.00    -0.273 OA
HETATM    3  N2  UNL     1       6.848   9.200  19.357  1.00  0.00    -0.349 N 
HETATM    4  C10 UNL     1       5.750   8.281  19.576  1.00  0.00     0.154 C 
HETATM    5  C11 UNL     1       5.448   8.150  21.062  1.00  0.00     0.257 C 
HETATM    6  N3  UNL     1       6.590   8.203  21.907  1.00  0.00    -0.059 N 
HETATM    7  C12 UNL     1       6.643   9.374  22.733  1.00  0.00     0.273 C 
HETATM    8  C20 UNL     1       7.831   8.022  21.157  1.00  0.00     0.257 C 
HETATM    9  C21 UNL     1       8.075   9.090  20.141  1.00  0.00     0.154 C 
ENDROOT
BRANCH   1  10
HETATM   10  C8  UNL     1       5.515  10.372  17.601  1.00  0.00     0.112 C 
BRANCH  10  11
HETATM   11  C7  UNL     1       5.899  10.558  16.130  1.00  0.00     0.112 C 
BRANCH  11  12
HETATM   12  C6  UNL     1       6.283   9.259  15.518  1.00  0.00     0.220 C 
HETATM   13  N1  UNL     1       7.006   9.158  14.317  1.00  0.00    -0.352 N 
HETATM   14  C5  UNL     1       7.400  10.386  13.648  1.00  0.00     0.126 C 
HETATM   15  C22 UNL     1       7.286   7.844  13.850  1.00  0.00     0.129 C 
HETATM   16  C4  UNL     1       6.581  10.580  12.395  1.00  0.00     0.023 C 
HETATM   17  C3  UNL     1       7.047   9.839  11.212  1.00  0.00     0.045 C 
HETATM   18  C2  UNL     1       7.633   8.482  11.425  1.00  0.00     0.101 C 
HETATM   19  C1  UNL     1       9.135   8.556  11.630  1.00  0.00     0.051 C 
HETATM   20  F1  UNL     1       7.479   7.825  10.185  1.00  0.00    -0.243 F 
HETATM   21  C23 UNL     1       6.943   7.613  12.410  1.00  0.00     0.063 C 
HETATM   22  O1  UNL     1       5.935   8.214  16.117  1.00  0.00    -0.273 OA
ENDBRANCH  11  12
ENDBRANCH  10  11
ENDBRANCH   1  10
BRANCH   6  23
HETATM   23  C13 UNL     1       6.553   7.034  22.805  1.00  0.00     0.339 C 
BRANCH  23  24
HETATM   24  C14 UNL     1       5.205   6.592  23.144  1.00  0.00     0.251 C 
HETATM   25  O3  UNL     1       4.599   7.342  24.014  1.00  0.00    -0.271 OA
HETATM   26  N4  UNL     1       4.496   5.487  22.664  1.00  0.00    -0.278 N 
HETATM   27  C15 UNL     1       4.887   4.518  21.757  1.00  0.00     0.323 C 
ATOM     28  H4  UNL     1       3.553   5.378  23.038  1.00  0.00     0.173 HD
HETATM   29  O4  UNL     1       4.010   3.594  21.505  1.00  0.00    -0.247 OA
HETATM   30  N5  UNL     1       6.096   4.384  21.064  1.00  0.00    -0.335 N 
ATOM     31  H5  UNL     1       6.843   5.066  21.194  1.00  0.00     0.165 HD
BRANCH  30  32
HETATM   32  C16 UNL     1       6.277   3.242  20.142  1.00  0.00     0.023 C 
HETATM   33  C17 UNL     1       6.152   1.928  20.885  1.00  0.00     0.037 C 
HETATM   34  C18 UNL     1       7.640   3.393  19.518  1.00  0.00     0.037 C 
HETATM   35  C19 UNL     1       5.229   3.271  19.072  1.00  0.00     0.037 C 
ENDBRANCH  30  32
ENDBRANCH  23  24
ENDBRANCH   6  23
TORSDOF 6
ENDMDL
MODEL 4
REMARK VINA RESULT: -7.562815406      3.482      7.256
REMARK  6 active torsions:
REMARK  status: ('A' for Active; 'I' for Inactive)
REMARK       I    between atoms: N1_7  and  C6_8 
REMARK    1  A    between atoms: C6_8  and  C7_10 
REMARK    2  A    between atoms: C7_10  and  C8_11 
REMARK    3  A    between atoms: C8_11  and  C9_12 
REMARK       I    between atoms: C9_12  and  N2_14 
REMARK    4  A    between atoms: N3_17  and  C13_19 
REMARK    5  A    between atoms: C13_19  and  C14_20 
REMARK       I    between atoms: C14_20  and  N4_22 
REMARK       I    between atoms: N4_22  and  C15_24 
REMARK       I    between atoms: C15_24  and  N5_26 
REMARK    6  A    between atoms: N5_26  and  C16_28 
ROOT
HETATM    1  C9  UNL     1       7.194  10.268  18.771  1.00  0.00     0.220 C 
HETATM    2  O2  UNL     1       8.035  11.221  18.912  1.00  0.00    -0.273 OA
HETATM    3  N2  UNL     1       7.141   9.225  19.711  1.00  0.00    -0.349 N 
HETATM    4  C10 UNL     1       6.199   8.135  19.562  1.00  0.00     0.154 C 
HETATM    5  C11 UNL     1       5.460   7.881  20.868  1.00  0.00     0.257 C 
HETATM    6  N3  UNL     1       6.244   8.069  22.039  1.00  0.00    -0.059 N 
HETATM    7  C12 UNL     1       5.832   9.189  22.835  1.00  0.00     0.273 C 
HETATM    8  C20 UNL     1       7.672   8.124  21.735  1.00  0.00     0.257 C 
HETATM    9  C21 UNL     1       8.050   9.269  20.853  1.00  0.00     0.154 C 
ENDROOT
BRANCH   1  10
HETATM   10  C8  UNL     1       6.270  10.263  17.614  1.00  0.00     0.112 C 
BRANCH  10  11
HETATM   11  C7  UNL     1       7.091  10.439  16.333  1.00  0.00     0.112 C 
BRANCH  11  12
HETATM   12  C6  UNL     1       6.224  10.314  15.131  1.00  0.00     0.220 C 
HETATM   13  N1  UNL     1       6.539   9.489  14.038  1.00  0.00    -0.352 N 
HETATM   14  C5  UNL     1       7.769   8.718  14.093  1.00  0.00     0.126 C 
HETATM   15  C22 UNL     1       5.617   9.486  12.955  1.00  0.00     0.129 C 
HETATM   16  C4  UNL     1       8.784   9.291  13.134  1.00  0.00     0.023 C 
HETATM   17  C3  UNL     1       8.638   8.874  11.730  1.00  0.00     0.045 C 
HETATM   18  C2  UNL     1       7.255   8.678  11.202  1.00  0.00     0.101 C 
HETATM   19  C1  UNL     1       6.791   7.244  11.389  1.00  0.00     0.051 C 
HETATM   20  F1  UNL     1       7.379   8.826   9.803  1.00  0.00    -0.243 F 
HETATM   21  C23 UNL     1       6.244   9.685  11.609  1.00  0.00     0.063 C 
HETATM   22  O1  UNL     1       5.167  10.986  15.110  1.00  0.00    -0.273 OA
ENDBRANCH  11  12
ENDBRANCH  10  11
ENDBRANCH   1  10
BRANCH   6  23
HETATM   23  C13 UNL     1       6.113   6.863  22.879  1.00  0.00     0.339 C 
BRANCH  23  24
HETATM   24  C14 UNL     1       4.742   6.385  23.016  1.00  0.00     0.251 C 
HETATM   25  O3  UNL     1       4.004   7.098  23.811  1.00  0.00    -0.271 OA
HETATM   26  N4  UNL     1       4.134   5.278  22.415  1.00  0.00    -0.278 N 
HETATM   27  C15 UNL     1       4.670   4.343  21.548  1.00  0.00     0.323 C 
ATOM     28  H4  UNL     1       3.151   5.141  22.651  1.00  0.00     0.173 HD
HETATM   29  O4  UNL     1       3.859   3.408  21.154  1.00  0.00    -0.247 OA
HETATM   30  N5  UNL     1       5.966   4.254  21.027  1.00  0.00    -0.335 N 
ATOM     31  H5  UNL     1       6.672   4.947  21.277  1.00  0.00     0.165 HD
BRANCH  30  32
HETATM   32  C16 UNL     1       6.301   3.141  20.112  1.00  0.00     0.023 C 
HETATM   33  C17 UNL     1       6.186   1.808  20.823  1.00  0.00     0.037 C 
HETATM   34  C18 UNL     1       7.705   3.384  19.621  1.00  0.00     0.037 C 
HETATM   35  C19 UNL     1       5.358   3.128  18.948  1.00  0.00     0.037 C 
ENDBRANCH  30  32
ENDBRANCH  23  24
ENDBRANCH   6  23
TORSDOF 6
ENDMDL
MODEL 5
REMARK VINA RESULT: -7.490174113      2.408      3.837
REMARK  6 active torsions:
REMARK  status: ('A' for Active; 'I' for Inactive)
REMARK       I    between atoms: N1_7  and  C6_8 
REMARK    1  A    between atoms: C6_8  and  C7_10 
REMARK    2  A    between atoms: C7_10  and  C8_11 
REMARK    3  A    between atoms: C8_11  and  C9_12 
REMARK       I    between atoms: C9_12  and  N2_14 
REMARK    4  A    between atoms: N3_17  and  C13_19 
REMARK    5  A    between atoms: C13_19  and  C14_20 
REMARK       I    between atoms: C14_20  and  N4_22 
REMARK       I    between atoms: N4_22  and  C15_24 
REMARK       I    between atoms: C15_24  and  N5_26 
REMARK    6  A    between atoms: N5_26  and  C16_28 
ROOT
HETATM    1  C9  UNL     1       3.430   3.564  20.738  1.00  0.00     0.220 C 
HETATM    2  O2  UNL     1       2.833   3.236  19.656  1.00  0.00    -0.273 OA
HETATM    3  N2  UNL     1       3.538   4.915  21.106  1.00  0.00    -0.349 N 
HETATM    4  C10 UNL     1       4.218   5.303  22.324  1.00  0.00     0.154 C 
HETATM    5  C11 UNL     1       3.374   6.288  23.120  1.00  0.00     0.257 C 
HETATM    6  N3  UNL     1       2.625   7.202  22.330  1.00  0.00    -0.059 N 
HETATM    7  C12 UNL     1       1.207   7.001  22.404  1.00  0.00     0.273 C 
HETATM    8  C20 UNL     1       3.090   7.231  20.945  1.00  0.00     0.257 C 
HETATM    9  C21 UNL     1       2.939   5.924  20.238  1.00  0.00     0.154 C 
ENDROOT
BRANCH   1  10
HETATM   10  C8  UNL     1       4.009   2.515  21.609  1.00  0.00     0.112 C 
BRANCH  10  11
HETATM   11  C7  UNL     1       4.758   1.509  20.731  1.00  0.00     0.112 C 
BRANCH  11  12
HETATM   12  C6  UNL     1       6.136   1.985  20.443  1.00  0.00     0.220 C 
HETATM   13  N1  UNL     1       6.619   2.203  19.141  1.00  0.00    -0.352 N 
HETATM   14  C5  UNL     1       5.721   1.954  18.026  1.00  0.00     0.126 C 
HETATM   15  C22 UNL     1       7.966   2.646  19.027  1.00  0.00     0.129 C 
HETATM   16  C4  UNL     1       6.144   0.708  17.288  1.00  0.00     0.023 C 
HETATM   17  C3  UNL     1       7.233   0.885  16.314  1.00  0.00     0.045 C 
HETATM   18  C2  UNL     1       8.310   1.864  16.643  1.00  0.00     0.101 C 
HETATM   19  C1  UNL     1       7.980   3.248  16.113  1.00  0.00     0.051 C 
HETATM   20  F1  UNL     1       9.421   1.450  15.876  1.00  0.00    -0.243 F 
HETATM   21  C23 UNL     1       8.791   1.868  18.047  1.00  0.00     0.063 C 
HETATM   22  O1  UNL     1       6.889   2.196  21.422  1.00  0.00    -0.273 OA
ENDBRANCH  11  12
ENDBRANCH  10  11
ENDBRANCH   1  10
BRANCH   6  23
HETATM   23  C13 UNL     1       2.901   8.566  22.818  1.00  0.00     0.339 C 
BRANCH  23  24
HETATM   24  C14 UNL     1       3.448   8.611  24.170  1.00  0.00     0.251 C 
HETATM   25  O3  UNL     1       2.557   8.535  25.111  1.00  0.00    -0.271 OA
HETATM   26  N4  UNL     1       4.782   8.723  24.573  1.00  0.00    -0.278 N 
HETATM   27  C15 UNL     1       5.927   8.835  23.805  1.00  0.00     0.323 C 
ATOM     28  H4  UNL     1       4.933   8.723  25.583  1.00  0.00     0.173 HD
HETATM   29  O4  UNL     1       7.042   8.934  24.464  1.00  0.00    -0.247 OA
HETATM   30  N5  UNL     1       6.064   8.857  22.412  1.00  0.00    -0.335 N 
ATOM     31  H5  UNL     1       5.244   8.780  21.811  1.00  0.00     0.165 HD
BRANCH  30  32
HETATM   32  C16 UNL     1       7.414   8.994  21.822  1.00  0.00     0.023 C 
HETATM   33  C17 UNL     1       8.352   9.692  22.786  1.00  0.00     0.037 C 
HETATM   34  C18 UNL     1       7.257   9.776  20.543  1.00  0.00     0.037 C 
HETATM   35  C19 UNL     1       7.985   7.643  21.517  1.00  0.00     0.037 C 
ENDBRANCH  30  32
ENDBRANCH  23  24
ENDBRANCH   6  23
TORSDOF 6
ENDMDL
