MODEL 1
REMARK VINA RESULT: -7.676688747      0.000      0.000
REMARK  5 active torsions:
REMARK  status: ('A' for Active; 'I' for Inactive)
REMARK    1  A    between atoms: C2_2  and  C4_4 
REMARK    2  A    between atoms: C4_4  and  C5_6 
REMARK       I    between atoms: C5_6  and  N1_8 
REMARK    3  A    between atoms: N1_8  and  C6_10 
REMARK    4  A    between atoms: C7_11  and  C8_12 
REMARK       I    between atoms: N2_15  and  C9_16 
REMARK    5  A    between atoms: C9_16  and  C10_18 
ROOT
HETATM    1  C6  UNL     1       6.380   5.956  20.247  1.00  0.00     0.052 C 
HETATM    2  C7  UNL     1       5.454   5.861  21.214  1.00  0.00     0.138 C 
HETATM    3  N2  UNL     1       5.407   6.960  22.162  1.00  0.00    -0.309 N 
HETATM    4  C9  UNL     1       4.205   7.594  22.502  1.00  0.00     0.228 C 
HETATM    5  O4  UNL     1       3.122   7.321  21.962  1.00  0.00    -0.273 OA
HETATM    6  C14 UNL     1       6.640   7.470  22.733  1.00  0.00     0.153 C 
HETATM    7  C15 UNL     1       7.726   7.523  21.699  1.00  0.00     0.137 C 
HETATM    8  C16 UNL     1       7.340   7.096  20.326  1.00  0.00     0.072 C 
HETATM    9  C17 UNL     1       6.857   8.441  19.934  1.00  0.00     0.153 C 
HETATM   10  S1  UNL     1       8.032   9.155  21.076  1.00  0.00     0.151 S 
HETATM   11  O5  UNL     1       9.386   9.368  20.501  1.00  0.00    -0.227 OA
HETATM   12  O6  UNL     1       7.490  10.261  21.913  1.00  0.00    -0.227 OA
ENDROOT
BRANCH   1  13
HETATM   13  N1  UNL     1       6.452   4.970  19.247  1.00  0.00    -0.327 N 
HETATM   14  C5  UNL     1       7.227   3.778  19.258  1.00  0.00     0.236 C 
HETATM   15  O1  UNL     1       7.956   3.473  20.200  1.00  0.00    -0.272 OA
ATOM     16  H1  UNL     1       5.881   5.128  18.416  1.00  0.00     0.168 HD
BRANCH  14  17
HETATM   17  C4  UNL     1       7.194   2.818  18.106  1.00  0.00     0.153 C 
HETATM   18 BR1  UNL     1       6.843   3.763  16.437  1.00  0.00    -0.081 Br
BRANCH  17  19
HETATM   19  C2  UNL     1       8.468   2.063  17.912  1.00  0.00     0.001 C 
HETATM   20  C1  UNL     1       8.382   0.671  18.532  1.00  0.00     0.011 C 
HETATM   21  C3  UNL     1       8.894   1.871  16.486  1.00  0.00     0.011 C 
ENDBRANCH  17  19
ENDBRANCH  14  17
ENDBRANCH   1  13
BRANCH   2  22
HETATM   22  C8  UNL     1       4.510   4.794  21.308  1.00  0.00     0.229 C 
HETATM   23  O2  UNL     1       3.775   4.312  20.449  1.00  0.00    -0.643 OA
HETATM   24  O3  UNL     1       4.349   4.138  22.565  1.00  0.00    -0.643 OA
ENDBRANCH   2  22
BRANCH   4  25
HETATM   25  C10 UNL     1       4.135   8.658  23.553  1.00  0.00     0.078 C 
HETATM   26  C11 UNL     1       3.751   8.148  24.937  1.00  0.00     0.014 C 
HETATM   27  C12 UNL     1       2.872   9.376  25.064  1.00  0.00     0.002 C 
HETATM   28  C13 UNL     1       2.833   9.430  23.553  1.00  0.00     0.014 C 
ENDBRANCH   4  25
TORSDOF 5
ENDMDL
MODEL 2
REMARK VINA RESULT: -7.654838863      0.906      1.084
REMARK  5 active torsions:
REMARK  status: ('A' for Active; 'I' for Inactive)
REMARK    1  A    between atoms: C2_2  and  C4_4 
REMARK    2  A    between atoms: C4_4  and  C5_6 
REMARK       I    between atoms: C5_6  and  N1_8 
REMARK    3  A    between atoms: N1_8  and  C6_10 
REMARK    4  A    between atoms: C7_11  and  C8_12 
REMARK       I    between atoms: N2_15  and  C9_16 
REMARK    5  A    between atoms: C9_16  and  C10_18 
ROOT
HETATM    1  C6  UNL     1       6.602   5.669  20.680  1.00  0.00     0.052 C 
HETATM    2  C7  UNL     1       5.554   5.724  21.515  1.00  0.00     0.138 C 
HETATM    3  N2  UNL     1       5.344   6.992  22.192  1.00  0.00    -0.309 N 
HETATM    4  C9  UNL     1       4.089   7.614  22.228  1.00  0.00     0.228 C 
HETATM    5  O4  UNL     1       3.100   7.174  21.622  1.00  0.00    -0.273 OA
HETATM    6  C14 UNL     1       6.471   7.679  22.797  1.00  0.00     0.153 C 
HETATM    7  C15 UNL     1       7.688   7.577  21.927  1.00  0.00     0.137 C 
HETATM    8  C16 UNL     1       7.510   6.853  20.638  1.00  0.00     0.072 C 
HETATM    9  C17 UNL     1       7.049   8.057  19.908  1.00  0.00     0.153 C 
HETATM   10  S1  UNL     1       8.033   9.059  21.015  1.00  0.00     0.151 S 
HETATM   11  O5  UNL     1       9.448   9.224  20.589  1.00  0.00    -0.227 OA
HETATM   12  O6  UNL     1       7.349  10.282  21.517  1.00  0.00    -0.227 OA
ENDROOT
BRANCH   1  13
HETATM   13  N1  UNL     1       6.841   4.502  19.932  1.00  0.00    -0.327 N 
HETATM   14  C5  UNL     1       6.776   4.350  18.520  1.00  0.00     0.236 C 
HETATM   15  O1  UNL     1       6.487   5.279  17.768  1.00  0.00    -0.272 OA
ATOM     16  H1  UNL     1       7.088   3.668  20.464  1.00  0.00     0.168 HD
BRANCH  14  17
HETATM   17  C4  UNL     1       7.060   3.030  17.866  1.00  0.00     0.153 C 
HETATM   18 BR1  UNL     1       7.713   3.292  16.048  1.00  0.00    -0.081 Br
BRANCH  17  19
HETATM   19  C2  UNL     1       8.088   2.211  18.578  1.00  0.00     0.001 C 
HETATM   20  C1  UNL     1       7.437   1.087  19.379  1.00  0.00     0.011 C 
HETATM   21  C3  UNL     1       9.122   1.569  17.701  1.00  0.00     0.011 C 
ENDBRANCH  17  19
ENDBRANCH  14  17
ENDBRANCH   1  13
BRANCH   2  22
HETATM   22  C8  UNL     1       4.636   4.649  21.711  1.00  0.00     0.229 C 
HETATM   23  O2  UNL     1       4.296   4.078  22.746  1.00  0.00    -0.643 OA
HETATM   24  O3  UNL     1       3.969   4.108  20.571  1.00  0.00    -0.643 OA
ENDBRANCH   2  22
BRANCH   4  25
HETATM   25  C10 UNL     1       3.844   8.868  23.008  1.00  0.00     0.078 C 
HETATM   26  C11 UNL     1       3.685   8.651  24.509  1.00  0.00     0.014 C 
HETATM   27  C12 UNL     1       2.553   9.658  24.460  1.00  0.00     0.002 C 
HETATM   28  C13 UNL     1       2.400   9.322  22.993  1.00  0.00     0.014 C 
ENDBRANCH   4  25
TORSDOF 5
ENDMDL
MODEL 3
REMARK VINA RESULT: -7.383454970      1.046      1.374
REMARK  5 active torsions:
REMARK  status: ('A' for Active; 'I' for Inactive)
REMARK    1  A    between atoms: C2_2  and  C4_4 
REMARK    2  A    between atoms: C4_4  and  C5_6 
REMARK       I    between atoms: C5_6  and  N1_8 
REMARK    3  A    between atoms: N1_8  and  C6_10 
REMARK    4  A    between atoms: C7_11  and  C8_12 
REMARK       I    between atoms: N2_15  and  C9_16 
REMARK    5  A    between atoms: C9_16  and  C10_18 
ROOT
HETATM    1  C6  UNL     1       6.328   5.917  20.323  1.00  0.00     0.052 C 
HETATM    2  C7  UNL     1       5.398   5.868  21.288  1.00  0.00     0.138 C 
HETATM    3  N2  UNL     1       5.371   6.993  22.208  1.00  0.00    -0.309 N 
HETATM    4  C9  UNL     1       4.183   7.662  22.525  1.00  0.00     0.228 C 
HETATM    5  O4  UNL     1       3.095   7.399  21.989  1.00  0.00    -0.273 OA
HETATM    6  C14 UNL     1       6.614   7.490  22.769  1.00  0.00     0.153 C 
HETATM    7  C15 UNL     1       7.704   7.492  21.739  1.00  0.00     0.137 C 
HETATM    8  C16 UNL     1       7.313   7.038  20.376  1.00  0.00     0.072 C 
HETATM    9  C17 UNL     1       6.861   8.382  19.946  1.00  0.00     0.153 C 
HETATM   10  S1  UNL     1       8.048   9.100  21.074  1.00  0.00     0.151 S 
HETATM   11  O5  UNL     1       9.408   9.268  20.498  1.00  0.00    -0.227 OA
HETATM   12  O6  UNL     1       7.528  10.240  21.879  1.00  0.00    -0.227 OA
ENDROOT
BRANCH   1  13
HETATM   13  N1  UNL     1       6.381   4.904  19.349  1.00  0.00    -0.327 N 
HETATM   14  C5  UNL     1       7.159   3.714  19.378  1.00  0.00     0.236 C 
HETATM   15  O1  UNL     1       7.909   3.437  20.313  1.00  0.00    -0.272 OA
ATOM     16  H1  UNL     1       5.793   5.039  18.527  1.00  0.00     0.168 HD
BRANCH  14  17
HETATM   17  C4  UNL     1       7.105   2.723  18.253  1.00  0.00     0.153 C 
HETATM   18 BR1  UNL     1       8.423   1.312  18.520  1.00  0.00    -0.081 Br
BRANCH  17  19
HETATM   19  C2  UNL     1       5.779   2.050  18.103  1.00  0.00     0.001 C 
HETATM   20  C1  UNL     1       5.840   0.943  17.055  1.00  0.00     0.011 C 
HETATM   21  C3  UNL     1       5.226   1.429  19.352  1.00  0.00     0.011 C 
ENDBRANCH  17  19
ENDBRANCH  14  17
ENDBRANCH   1  13
BRANCH   2  22
HETATM   22  C8  UNL     1       4.430   4.826  21.407  1.00  0.00     0.229 C 
HETATM   23  O2  UNL     1       3.677   4.347  20.562  1.00  0.00    -0.643 OA
HETATM   24  O3  UNL     1       4.263   4.194  22.676  1.00  0.00    -0.643 OA
ENDBRANCH   2  22
BRANCH   4  25
HETATM   25  C10 UNL     1       4.133   8.755  23.548  1.00  0.00     0.078 C 
HETATM   26  C11 UNL     1       3.826   8.276  24.962  1.00  0.00     0.014 C 
HETATM   27  C12 UNL     1       2.922   9.486  25.095  1.00  0.00     0.002 C 
HETATM   28  C13 UNL     1       2.813   9.493  23.586  1.00  0.00     0.014 C 
ENDBRANCH   4  25
TORSDOF 5
ENDMDL
MODEL 4
REMARK VINA RESULT: -7.143065657      0.891      1.234
REMARK  5 active torsions:
REMARK  status: ('A' for Active; 'I' for Inactive)
REMARK    1  A    between atoms: C2_2  and  C4_4 
REMARK    2  A    between atoms: C4_4  and  C5_6 
REMARK       I    between atoms: C5_6  and  N1_8 
REMARK    3  A    between atoms: N1_8  and  C6_10 
REMARK    4  A    between atoms: C7_11  and  C8_12 
REMARK       I    between atoms: N2_15  and  C9_16 
REMARK    5  A    between atoms: C9_16  and  C10_18 
ROOT
HETATM    1  C6  UNL     1       6.359   5.940  20.198  1.00  0.00     0.052 C 
HETATM    2  C7  UNL     1       5.449   5.835  21.178  1.00  0.00     0.138 C 
HETATM    3  N2  UNL     1       5.418   6.924  22.140  1.00  0.00    -0.309 N 
HETATM    4  C9  UNL     1       4.223   7.555  22.506  1.00  0.00     0.228 C 
HETATM    5  O4  UNL     1       3.130   7.289  21.981  1.00  0.00    -0.273 OA
HETATM    6  C14 UNL     1       6.662   7.426  22.696  1.00  0.00     0.153 C 
HETATM    7  C15 UNL     1       7.730   7.490  21.645  1.00  0.00     0.137 C 
HETATM    8  C16 UNL     1       7.321   7.079  20.274  1.00  0.00     0.072 C 
HETATM    9  C17 UNL     1       6.833   8.428  19.904  1.00  0.00     0.153 C 
HETATM   10  S1  UNL     1       8.028   9.128  21.035  1.00  0.00     0.151 S 
HETATM   11  O5  UNL     1       9.372   9.347  20.440  1.00  0.00    -0.227 OA
HETATM   12  O6  UNL     1       7.501  10.226  21.893  1.00  0.00    -0.227 OA
ENDROOT
BRANCH   1  13
HETATM   13  N1  UNL     1       6.413   4.965  19.185  1.00  0.00    -0.327 N 
HETATM   14  C5  UNL     1       7.172   3.763  19.179  1.00  0.00     0.236 C 
HETATM   15  O1  UNL     1       7.901   3.437  20.115  1.00  0.00    -0.272 OA
ATOM     16  H1  UNL     1       5.841   5.142  18.359  1.00  0.00     0.168 HD
BRANCH  14  17
HETATM   17  C4  UNL     1       7.122   2.818  18.016  1.00  0.00     0.153 C 
HETATM   18 BR1  UNL     1       5.605   1.605  18.183  1.00  0.00    -0.081 Br
BRANCH  17  19
HETATM   19  C2  UNL     1       6.986   3.496  16.691  1.00  0.00     0.001 C 
HETATM   20  C1  UNL     1       8.108   3.080  15.744  1.00  0.00     0.011 C 
HETATM   21  C3  UNL     1       5.697   3.243  15.966  1.00  0.00     0.011 C 
ENDBRANCH  17  19
ENDBRANCH  14  17
ENDBRANCH   1  13
BRANCH   2  22
HETATM   22  C8  UNL     1       4.506   4.769  21.276  1.00  0.00     0.229 C 
HETATM   23  O2  UNL     1       3.762   4.291  20.422  1.00  0.00    -0.643 OA
HETATM   24  O3  UNL     1       4.356   4.106  22.531  1.00  0.00    -0.643 OA
ENDBRANCH   2  22
BRANCH   4  25
HETATM   25  C10 UNL     1       4.172   8.608  23.569  1.00  0.00     0.078 C 
HETATM   26  C11 UNL     1       3.763   8.090  24.944  1.00  0.00     0.014 C 
HETATM   27  C12 UNL     1       2.914   9.338  25.080  1.00  0.00     0.002 C 
HETATM   28  C13 UNL     1       2.890   9.412  23.569  1.00  0.00     0.014 C 
ENDBRANCH   4  25
TORSDOF 5
ENDMDL
MODEL 5
REMARK VINA RESULT: -7.076836892      1.267      1.417
REMARK  5 active torsions:
REMARK  status: ('A' for Active; 'I' for Inactive)
REMARK    1  A    between atoms: C2_2  and  C4_4 
REMARK    2  A    between atoms: C4_4  and  C5_6 
REMARK       I    between atoms: C5_6  and  N1_8 
REMARK    3  A    between atoms: N1_8  and  C6_10 
REMARK    4  A    between atoms: C7_11  and  C8_12 
REMARK       I    between atoms: N2_15  and  C9_16 
REMARK    5  A    between atoms: C9_16  and  C10_18 
ROOT
HETATM    1  C6  UNL     1       5.909   5.119  20.489  1.00  0.00     0.052 C 
HETATM    2  C7  UNL     1       5.041   5.299  21.496  1.00  0.00     0.138 C 
HETATM    3  N2  UNL     1       5.094   6.590  22.161  1.00  0.00    -0.309 N 
HETATM    4  C9  UNL     1       3.941   7.346  22.401  1.00  0.00     0.228 C 
HETATM    5  O4  UNL     1       2.816   7.012  21.997  1.00  0.00    -0.273 OA
HETATM    6  C14 UNL     1       6.379   7.154  22.532  1.00  0.00     0.153 C 
HETATM    7  C15 UNL     1       7.401   6.909  21.462  1.00  0.00     0.137 C 
HETATM    8  C16 UNL     1       6.915   6.195  20.248  1.00  0.00     0.072 C 
HETATM    9  C17 UNL     1       6.461   7.435  19.576  1.00  0.00     0.153 C 
HETATM   10  S1  UNL     1       7.730   8.333  20.457  1.00  0.00     0.151 S 
HETATM   11  O5  UNL     1       9.053   8.337  19.780  1.00  0.00    -0.227 OA
HETATM   12  O6  UNL     1       7.283   9.630  21.037  1.00  0.00    -0.227 OA
ENDROOT
BRANCH   1  13
HETATM   13  N1  UNL     1       5.881   3.924  19.746  1.00  0.00    -0.327 N 
HETATM   14  C5  UNL     1       6.395   2.655  20.127  1.00  0.00     0.236 C 
HETATM   15  O1  UNL     1       6.949   2.463  21.208  1.00  0.00    -0.272 OA
ATOM     16  H1  UNL     1       5.442   3.976  18.827  1.00  0.00     0.168 HD
BRANCH  14  17
HETATM   17  C4  UNL     1       6.287   1.467  19.217  1.00  0.00     0.153 C 
HETATM   18 BR1  UNL     1       4.558   1.448  18.318  1.00  0.00    -0.081 Br
BRANCH  17  19
HETATM   19  C2  UNL     1       7.328   1.429  18.147  1.00  0.00     0.001 C 
HETATM   20  C1  UNL     1       8.610   0.770  18.650  1.00  0.00     0.011 C 
HETATM   21  C3  UNL     1       6.937   0.704  16.892  1.00  0.00     0.011 C 
ENDBRANCH  17  19
ENDBRANCH  14  17
ENDBRANCH   1  13
BRANCH   2  22
HETATM   22  C8  UNL     1       4.065   4.334  21.886  1.00  0.00     0.229 C 
HETATM   23  O2  UNL     1       3.863   3.811  22.981  1.00  0.00    -0.643 OA
HETATM   24  O3  UNL     1       3.143   3.863  20.903  1.00  0.00    -0.643 OA
ENDBRANCH   2  22
BRANCH   4  25
HETATM   25  C10 UNL     1       3.976   8.628  23.174  1.00  0.00     0.078 C 
HETATM   26  C11 UNL     1       3.861   8.452  24.685  1.00  0.00     0.014 C 
HETATM   27  C12 UNL     1       2.936   9.654  24.679  1.00  0.00     0.002 C 
HETATM   28  C13 UNL     1       2.644   9.345  23.227  1.00  0.00     0.014 C 
ENDBRANCH   4  25
TORSDOF 5
ENDMDL
