MODEL 1
REMARK VINA RESULT: -9.123031419      0.000      0.000
REMARK  5 active torsions:
REMARK  status: ('A' for Active; 'I' for Inactive)
REMARK    1  A    between atoms: C2_2  and  C4_4 
REMARK    2  A    between atoms: C5_5  and  C6_6 
REMARK       I    between atoms: C6_6  and  N1_8 
REMARK    3  A    between atoms: C7_9  and  C8_10 
REMARK       I    between atoms: C8_10  and  N2_12 
REMARK    4  A    between atoms: C13_21  and  C14_22 
REMARK       I    between atoms: C14_22  and  N4_24 
REMARK    5  A    between atoms: N4_24  and  C15_26 
ROOT
HETATM    1  C6  UNL     1       5.876   8.874  23.490  1.00  0.00     0.246 C 
HETATM    2  O1  UNL     1       6.357   9.241  24.580  1.00  0.00    -0.268 OA
HETATM    3  N1  UNL     1       6.697   8.135  22.550  1.00  0.00    -0.296 N 
HETATM    4  C7  UNL     1       8.057   7.694  22.677  1.00  0.00     0.284 C 
HETATM    5  N3  UNL     1       8.507   7.519  21.289  1.00  0.00    -0.329 N 
ATOM      6  H3  UNL     1       9.425   7.183  20.998  1.00  0.00     0.165 HD
HETATM    7  C12 UNL     1       7.457   7.892  20.429  1.00  0.00     0.252 C 
HETATM    8  O3  UNL     1       7.535   8.288  19.235  1.00  0.00    -0.271 OA
HETATM    9  C13 UNL     1       6.209   7.715  21.244  1.00  0.00     0.274 C 
ENDROOT
BRANCH   9  10
HETATM   10  C14 UNL     1       5.873   6.280  21.219  1.00  0.00     0.250 C 
HETATM   11  O4  UNL     1       5.179   5.845  22.210  1.00  0.00    -0.271 OA
HETATM   12  N4  UNL     1       6.268   5.403  20.180  1.00  0.00    -0.354 N 
ATOM     13  H4  UNL     1       6.817   5.782  19.409  1.00  0.00     0.163 HD
BRANCH  12  14
HETATM   14  C15 UNL     1       5.939   4.019  20.156  1.00  0.00     0.092 C 
HETATM   15  C16 UNL     1       5.338   3.592  18.826  1.00  0.00     0.009 C 
HETATM   16  C17 UNL     1       6.327   3.562  17.709  1.00  0.00     0.011 C 
HETATM   17  C21 UNL     1       4.803   2.193  19.026  1.00  0.00     0.011 C 
HETATM   18  C18 UNL     1       7.452   2.596  18.044  1.00  0.00    -0.013 C 
HETATM   19  C19 UNL     1       6.878   1.221  18.232  1.00  0.00     0.009 C 
HETATM   20  C24 UNL     1       8.096   3.081  19.303  1.00  0.00     0.011 C 
HETATM   21  C20 UNL     1       5.937   1.241  19.408  1.00  0.00    -0.013 C 
HETATM   22  C22 UNL     1       6.589   1.735  20.681  1.00  0.00     0.011 C 
HETATM   23  C23 UNL     1       7.093   3.140  20.443  1.00  0.00     0.009 C 
ENDBRANCH  12  14
ENDBRANCH   9  10
BRANCH   1  24
HETATM   24  C5  UNL     1       4.495   9.195  23.179  1.00  0.00     0.070 C 
HETATM   25  C4  UNL     1       3.418   8.667  23.642  1.00  0.00    -0.017 C 
BRANCH  25  26
HETATM   26  C2  UNL     1       3.216   7.599  24.607  1.00  0.00    -0.000 C 
HETATM   27  C1  UNL     1       2.211   6.583  24.048  1.00  0.00     0.013 C 
HETATM   28  C3  UNL     1       2.612   8.233  25.867  1.00  0.00     0.013 C 
ENDBRANCH  25  26
ENDBRANCH   1  24
BRANCH   4  29
HETATM   29  C8  UNL     1       8.985   8.682  23.261  1.00  0.00     0.263 C 
HETATM   30  O2  UNL     1       9.266   9.750  22.661  1.00  0.00    -0.269 OA
HETATM   31  N2  UNL     1       9.574   8.424  24.523  1.00  0.00    -0.343 N 
HETATM   32  C9  UNL     1      10.500   9.167  25.387  1.00  0.00     0.164 C 
HETATM   33  C11 UNL     1       9.607   7.383  25.550  1.00  0.00     0.164 C 
HETATM   34  C10 UNL     1      11.014   7.829  25.879  1.00  0.00     0.206 C 
HETATM   35  F1  UNL     1      11.984   7.302  25.072  1.00  0.00    -0.246 F 
ENDBRANCH   4  29
TORSDOF 5
ENDMDL
MODEL 2
REMARK VINA RESULT: -8.789225852      2.597      4.418
REMARK  5 active torsions:
REMARK  status: ('A' for Active; 'I' for Inactive)
REMARK    1  A    between atoms: C2_2  and  C4_4 
REMARK    2  A    between atoms: C5_5  and  C6_6 
REMARK       I    between atoms: C6_6  and  N1_8 
REMARK    3  A    between atoms: C7_9  and  C8_10 
REMARK       I    between atoms: C8_10  and  N2_12 
REMARK    4  A    between atoms: C13_21  and  C14_22 
REMARK       I    between atoms: C14_22  and  N4_24 
REMARK    5  A    between atoms: N4_24  and  C15_26 
ROOT
HETATM    1  C6  UNL     1       4.337   5.129  21.027  1.00  0.00     0.246 C 
HETATM    2  O1  UNL     1       4.483   5.295  22.254  1.00  0.00    -0.268 OA
HETATM    3  N1  UNL     1       5.061   5.971  20.093  1.00  0.00    -0.296 N 
HETATM    4  C7  UNL     1       6.007   7.019  20.353  1.00  0.00     0.284 C 
HETATM    5  N3  UNL     1       5.971   7.843  19.137  1.00  0.00    -0.329 N 
ATOM      6  H3  UNL     1       6.544   8.668  18.959  1.00  0.00     0.165 HD
HETATM    7  C12 UNL     1       5.012   7.303  18.260  1.00  0.00     0.252 C 
HETATM    8  O3  UNL     1       4.379   7.892  17.344  1.00  0.00    -0.271 OA
HETATM    9  C13 UNL     1       4.903   5.858  18.651  1.00  0.00     0.274 C 
ENDROOT
BRANCH   9  10
HETATM   10  C14 UNL     1       6.038   5.152  18.028  1.00  0.00     0.250 C 
HETATM   11  O4  UNL     1       6.524   5.689  16.967  1.00  0.00    -0.271 OA
HETATM   12  N4  UNL     1       6.591   3.954  18.543  1.00  0.00    -0.354 N 
ATOM     13  H4  UNL     1       6.181   3.556  19.388  1.00  0.00     0.163 HD
BRANCH  12  14
HETATM   14  C15 UNL     1       7.689   3.277  17.943  1.00  0.00     0.092 C 
HETATM   15  C16 UNL     1       8.095   2.035  18.720  1.00  0.00     0.009 C 
HETATM   16  C17 UNL     1       7.112   0.917  18.611  1.00  0.00     0.011 C 
HETATM   17  C21 UNL     1       9.409   1.572  18.135  1.00  0.00     0.011 C 
HETATM   18  C18 UNL     1       6.944   0.521  17.153  1.00  0.00    -0.013 C 
HETATM   19  C19 UNL     1       8.270   0.067  16.612  1.00  0.00     0.009 C 
HETATM   20  C24 UNL     1       6.453   1.727  16.417  1.00  0.00     0.011 C 
HETATM   21  C20 UNL     1       9.236   1.221  16.656  1.00  0.00    -0.013 C 
HETATM   22  C22 UNL     1       8.738   2.442  15.914  1.00  0.00     0.011 C 
HETATM   23  C23 UNL     1       7.434   2.880  16.541  1.00  0.00     0.009 C 
ENDBRANCH  12  14
ENDBRANCH   9  10
BRANCH   1  24
HETATM   24  C5  UNL     1       3.442   4.091  20.552  1.00  0.00     0.070 C 
HETATM   25  C4  UNL     1       3.368   2.860  20.915  1.00  0.00    -0.017 C 
BRANCH  25  26
HETATM   26  C2  UNL     1       4.130   2.104  21.895  1.00  0.00    -0.000 C 
HETATM   27  C1  UNL     1       5.557   1.882  21.377  1.00  0.00     0.013 C 
HETATM   28  C3  UNL     1       3.451   0.736  22.042  1.00  0.00     0.013 C 
ENDBRANCH  25  26
ENDBRANCH   1  24
BRANCH   4  29
HETATM   29  C8  UNL     1       5.641   7.936  21.451  1.00  0.00     0.263 C 
HETATM   30  O2  UNL     1       4.589   8.621  21.408  1.00  0.00    -0.269 OA
HETATM   31  N2  UNL     1       6.493   8.050  22.576  1.00  0.00    -0.343 N 
HETATM   32  C9  UNL     1       6.438   8.825  23.823  1.00  0.00     0.164 C 
HETATM   33  C11 UNL     1       7.771   7.536  23.069  1.00  0.00     0.164 C 
HETATM   34  C10 UNL     1       7.954   8.846  23.801  1.00  0.00     0.206 C 
HETATM   35  F1  UNL     1       8.461   9.862  23.038  1.00  0.00    -0.246 F 
ENDBRANCH   4  29
TORSDOF 5
ENDMDL
MODEL 3
REMARK VINA RESULT: -8.443221240      2.764      4.371
REMARK  5 active torsions:
REMARK  status: ('A' for Active; 'I' for Inactive)
REMARK    1  A    between atoms: C2_2  and  C4_4 
REMARK    2  A    between atoms: C5_5  and  C6_6 
REMARK       I    between atoms: C6_6  and  N1_8 
REMARK    3  A    between atoms: C7_9  and  C8_10 
REMARK       I    between atoms: C8_10  and  N2_12 
REMARK    4  A    between atoms: C13_21  and  C14_22 
REMARK       I    between atoms: C14_22  and  N4_24 
REMARK    5  A    between atoms: N4_24  and  C15_26 
ROOT
HETATM    1  C6  UNL     1       4.064   5.658  20.429  1.00  0.00     0.246 C 
HETATM    2  O1  UNL     1       4.349   5.885  21.621  1.00  0.00    -0.268 OA
HETATM    3  N1  UNL     1       4.868   6.238  19.370  1.00  0.00    -0.296 N 
HETATM    4  C7  UNL     1       6.037   7.065  19.461  1.00  0.00     0.284 C 
HETATM    5  N3  UNL     1       6.074   7.776  18.175  1.00  0.00    -0.329 N 
ATOM      6  H3  UNL     1       6.794   8.434  17.878  1.00  0.00     0.165 HD
HETATM    7  C12 UNL     1       4.947   7.395  17.423  1.00  0.00     0.252 C 
HETATM    8  O3  UNL     1       4.379   8.035  16.498  1.00  0.00    -0.271 OA
HETATM    9  C13 UNL     1       4.563   6.047  17.960  1.00  0.00     0.274 C 
ENDROOT
BRANCH   9  10
HETATM   10  C14 UNL     1       5.459   5.057  17.334  1.00  0.00     0.250 C 
HETATM   11  O4  UNL     1       6.212   5.495  16.390  1.00  0.00    -0.271 OA
HETATM   12  N4  UNL     1       5.517   3.697  17.726  1.00  0.00    -0.354 N 
ATOM     13  H4  UNL     1       4.905   3.385  18.479  1.00  0.00     0.163 HD
BRANCH  12  14
HETATM   14  C15 UNL     1       6.385   2.745  17.124  1.00  0.00     0.092 C 
HETATM   15  C16 UNL     1       7.847   3.014  17.444  1.00  0.00     0.009 C 
HETATM   16  C17 UNL     1       8.210   2.718  18.861  1.00  0.00     0.011 C 
HETATM   17  C21 UNL     1       8.657   2.107  16.546  1.00  0.00     0.011 C 
HETATM   18  C18 UNL     1       7.926   1.258  19.171  1.00  0.00    -0.013 C 
HETATM   19  C19 UNL     1       8.750   0.394  18.259  1.00  0.00     0.009 C 
HETATM   20  C24 UNL     1       6.466   1.030  18.943  1.00  0.00     0.011 C 
HETATM   21  C20 UNL     1       8.327   0.642  16.836  1.00  0.00    -0.013 C 
HETATM   22  C22 UNL     1       6.849   0.414  16.607  1.00  0.00     0.011 C 
HETATM   23  C23 UNL     1       6.078   1.350  17.510  1.00  0.00     0.009 C 
ENDBRANCH  12  14
ENDBRANCH   9  10
BRANCH   1  24
HETATM   24  C5  UNL     1       2.926   4.811  20.121  1.00  0.00     0.070 C 
HETATM   25  C4  UNL     1       2.780   3.550  20.321  1.00  0.00    -0.017 C 
BRANCH  25  26
HETATM   26  C2  UNL     1       3.673   2.565  20.907  1.00  0.00    -0.000 C 
HETATM   27  C1  UNL     1       3.273   1.160  20.435  1.00  0.00     0.013 C 
HETATM   28  C3  UNL     1       3.488   2.633  22.429  1.00  0.00     0.013 C 
ENDBRANCH  25  26
ENDBRANCH   1  24
BRANCH   4  29
HETATM   29  C8  UNL     1       5.977   8.126  20.486  1.00  0.00     0.263 C 
HETATM   30  O2  UNL     1       5.195   9.103  20.371  1.00  0.00    -0.269 OA
HETATM   31  N2  UNL     1       6.818   8.046  21.622  1.00  0.00    -0.343 N 
HETATM   32  C9  UNL     1       7.007   8.886  22.812  1.00  0.00     0.164 C 
HETATM   33  C11 UNL     1       7.867   7.192  22.180  1.00  0.00     0.164 C 
HETATM   34  C10 UNL     1       8.452   8.427  22.827  1.00  0.00     0.206 C 
HETATM   35  F1  UNL     1       9.256   9.174  22.011  1.00  0.00    -0.246 F 
ENDBRANCH   4  29
TORSDOF 5
ENDMDL
MODEL 4
REMARK VINA RESULT: -8.421735645      2.731      4.292
REMARK  5 active torsions:
REMARK  status: ('A' for Active; 'I' for Inactive)
REMARK    1  A    between atoms: C2_2  and  C4_4 
REMARK    2  A    between atoms: C5_5  and  C6_6 
REMARK       I    between atoms: C6_6  and  N1_8 
REMARK    3  A    between atoms: C7_9  and  C8_10 
REMARK       I    between atoms: C8_10  and  N2_12 
REMARK    4  A    between atoms: C13_21  and  C14_22 
REMARK       I    between atoms: C14_22  and  N4_24 
REMARK    5  A    between atoms: N4_24  and  C15_26 
ROOT
HETATM    1  C6  UNL     1       4.642   5.284  21.615  1.00  0.00     0.246 C 
HETATM    2  O1  UNL     1       5.033   5.119  22.787  1.00  0.00    -0.268 OA
HETATM    3  N1  UNL     1       5.509   5.930  20.648  1.00  0.00    -0.296 N 
HETATM    4  C7  UNL     1       6.847   6.425  20.810  1.00  0.00     0.284 C 
HETATM    5  N3  UNL     1       6.990   7.424  19.741  1.00  0.00    -0.329 N 
ATOM      6  H3  UNL     1       7.833   7.961  19.537  1.00  0.00     0.165 HD
HETATM    7  C12 UNL     1       5.769   7.514  19.048  1.00  0.00     0.252 C 
HETATM    8  O3  UNL     1       5.327   8.485  18.377  1.00  0.00    -0.271 OA
HETATM    9  C13 UNL     1       5.097   6.191  19.277  1.00  0.00     0.274 C 
ENDROOT
BRANCH   9  10
HETATM   10  C14 UNL     1       5.694   5.230  18.332  1.00  0.00     0.250 C 
HETATM   11  O4  UNL     1       6.272   5.736  17.302  1.00  0.00    -0.271 OA
HETATM   12  N4  UNL     1       5.659   3.826  18.518  1.00  0.00    -0.354 N 
ATOM     13  H4  UNL     1       5.192   3.460  19.348  1.00  0.00     0.163 HD
BRANCH  12  14
HETATM   14  C15 UNL     1       6.240   2.901  17.608  1.00  0.00     0.092 C 
HETATM   15  C16 UNL     1       7.752   3.034  17.537  1.00  0.00     0.009 C 
HETATM   16  C17 UNL     1       8.451   2.545  18.761  1.00  0.00     0.011 C 
HETATM   17  C21 UNL     1       8.203   2.193  16.364  1.00  0.00     0.011 C 
HETATM   18  C18 UNL     1       8.122   1.079  18.990  1.00  0.00    -0.013 C 
HETATM   19  C19 UNL     1       8.587   0.281  17.805  1.00  0.00     0.009 C 
HETATM   20  C24 UNL     1       6.640   0.975  19.153  1.00  0.00     0.011 C 
HETATM   21  C20 UNL     1       7.824   0.728  16.586  1.00  0.00    -0.013 C 
HETATM   22  C22 UNL     1       6.324   0.625  16.753  1.00  0.00     0.011 C 
HETATM   23  C23 UNL     1       5.916   1.492  17.922  1.00  0.00     0.009 C 
ENDBRANCH  12  14
ENDBRANCH   9  10
BRANCH   1  24
HETATM   24  C5  UNL     1       3.319   4.821  21.236  1.00  0.00     0.070 C 
HETATM   25  C4  UNL     1       2.910   3.619  21.036  1.00  0.00    -0.017 C 
BRANCH  25  26
HETATM   26  C2  UNL     1       3.606   2.346  21.118  1.00  0.00    -0.000 C 
HETATM   27  C1  UNL     1       2.985   1.355  20.125  1.00  0.00     0.013 C 
HETATM   28  C3  UNL     1       3.394   1.804  22.538  1.00  0.00     0.013 C 
ENDBRANCH  25  26
ENDBRANCH   1  24
BRANCH   4  29
HETATM   29  C8  UNL     1       7.096   7.163  22.064  1.00  0.00     0.263 C 
HETATM   30  O2  UNL     1       8.135   6.968  22.742  1.00  0.00    -0.269 OA
HETATM   31  N2  UNL     1       6.144   8.109  22.516  1.00  0.00    -0.343 N 
HETATM   32  C9  UNL     1       6.073   9.010  23.674  1.00  0.00     0.164 C 
HETATM   33  C11 UNL     1       4.836   8.647  22.142  1.00  0.00     0.164 C 
HETATM   34  C10 UNL     1       4.566   8.864  23.613  1.00  0.00     0.206 C 
HETATM   35  F1  UNL     1       4.111   7.760  24.280  1.00  0.00    -0.246 F 
ENDBRANCH   4  29
TORSDOF 5
ENDMDL
MODEL 5
REMARK VINA RESULT: -8.240834565      2.477      4.035
REMARK  5 active torsions:
REMARK  status: ('A' for Active; 'I' for Inactive)
REMARK    1  A    between atoms: C2_2  and  C4_4 
REMARK    2  A    between atoms: C5_5  and  C6_6 
REMARK       I    between atoms: C6_6  and  N1_8 
REMARK    3  A    between atoms: C7_9  and  C8_10 
REMARK       I    between atoms: C8_10  and  N2_12 
REMARK    4  A    between atoms: C13_21  and  C14_22 
REMARK       I    between atoms: C14_22  and  N4_24 
REMARK    5  A    between atoms: N4_24  and  C15_26 
ROOT
HETATM    1  C6  UNL     1       3.587   5.453  21.622  1.00  0.00     0.246 C 
HETATM    2  O1  UNL     1       3.945   5.509  22.815  1.00  0.00    -0.268 OA
HETATM    3  N1  UNL     1       4.320   6.192  20.612  1.00  0.00    -0.296 N 
HETATM    4  C7  UNL     1       5.489   7.014  20.751  1.00  0.00     0.284 C 
HETATM    5  N3  UNL     1       5.441   7.904  19.582  1.00  0.00    -0.329 N 
ATOM      6  H3  UNL     1       6.138   8.608  19.340  1.00  0.00     0.165 HD
HETATM    7  C12 UNL     1       4.272   7.619  18.852  1.00  0.00     0.252 C 
HETATM    8  O3  UNL     1       3.643   8.379  18.067  1.00  0.00    -0.271 OA
HETATM    9  C13 UNL     1       3.929   6.202  19.210  1.00  0.00     0.274 C 
ENDROOT
BRANCH   9  10
HETATM   10  C14 UNL     1       4.789   5.327  18.393  1.00  0.00     0.250 C 
HETATM   11  O4  UNL     1       5.434   5.899  17.440  1.00  0.00    -0.271 OA
HETATM   12  N4  UNL     1       4.926   3.935  18.618  1.00  0.00    -0.354 N 
ATOM     13  H4  UNL     1       4.400   3.515  19.384  1.00  0.00     0.163 HD
BRANCH  12  14
HETATM   14  C15 UNL     1       5.760   3.093  17.832  1.00  0.00     0.092 C 
HETATM   15  C16 UNL     1       7.234   3.430  17.991  1.00  0.00     0.009 C 
HETATM   16  C17 UNL     1       7.793   3.046  19.320  1.00  0.00     0.011 C 
HETATM   17  C21 UNL     1       7.970   2.653  16.923  1.00  0.00     0.011 C 
HETATM   18  C18 UNL     1       7.631   1.550  19.533  1.00  0.00    -0.013 C 
HETATM   19  C19 UNL     1       8.377   0.818  18.454  1.00  0.00     0.009 C 
HETATM   20  C24 UNL     1       6.168   1.246  19.470  1.00  0.00     0.011 C 
HETATM   21  C20 UNL     1       7.761   1.152  17.122  1.00  0.00    -0.013 C 
HETATM   22  C22 UNL     1       6.280   0.846  17.059  1.00  0.00     0.011 C 
HETATM   23  C23 UNL     1       5.583   1.655  18.129  1.00  0.00     0.009 C 
ENDBRANCH  12  14
ENDBRANCH   9  10
BRANCH   1  24
HETATM   24  C5  UNL     1       2.437   4.643  21.264  1.00  0.00     0.070 C 
HETATM   25  C4  UNL     1       2.332   3.363  21.219  1.00  0.00    -0.017 C 
BRANCH  25  26
HETATM   26  C2  UNL     1       3.297   2.314  21.503  1.00  0.00    -0.000 C 
HETATM   27  C1  UNL     1       2.930   1.048  20.717  1.00  0.00     0.013 C 
HETATM   28  C3  UNL     1       3.197   1.998  23.002  1.00  0.00     0.013 C 
ENDBRANCH  25  26
ENDBRANCH   1  24
BRANCH   4  29
HETATM   29  C8  UNL     1       5.487   7.914  21.921  1.00  0.00     0.263 C 
HETATM   30  O2  UNL     1       4.493   8.633  22.191  1.00  0.00    -0.269 OA
HETATM   31  N2  UNL     1       6.628   7.973  22.756  1.00  0.00    -0.343 N 
HETATM   32  C9  UNL     1       6.961   8.718  23.978  1.00  0.00     0.164 C 
HETATM   33  C11 UNL     1       7.973   7.406  22.855  1.00  0.00     0.164 C 
HETATM   34  C10 UNL     1       8.406   8.691  23.523  1.00  0.00     0.206 C 
HETATM   35  F1  UNL     1       8.713   9.709  22.662  1.00  0.00    -0.246 F 
ENDBRANCH   4  29
TORSDOF 5
ENDMDL
