MODEL 1
REMARK VINA RESULT: -9.635478288      0.000      0.000
REMARK  5 active torsions:
REMARK  status: ('A' for Active; 'I' for Inactive)
REMARK       I    between atoms: C2_2  and  N1_4 
REMARK    1  A    between atoms: N1_4  and  C3_6 
REMARK    2  A    between atoms: C3_6  and  C4_7 
REMARK       I    between atoms: C4_7  and  N2_9 
REMARK    3  A    between atoms: C8_13  and  C9_14 
REMARK       I    between atoms: C9_14  and  N3_16 
REMARK    4  A    between atoms: C16_23  and  C17_24 
REMARK    5  A    between atoms: C17_24  and  N4_25 
REMARK       I    between atoms: N4_25  and  C18_27 
REMARK       I    between atoms: C18_27  and  N5_29 
ROOT
HETATM    1  C9  UNL     1       5.538   6.831  22.062  1.00  0.00     0.226 C 
HETATM    2  O3  UNL     1       6.615   7.443  21.723  1.00  0.00    -0.273 OA
HETATM    3  N3  UNL     1       4.856   7.267  23.180  1.00  0.00    -0.345 N 
HETATM    4  C10 UNL     1       3.610   6.662  23.707  1.00  0.00     0.127 C 
HETATM    5  C11 UNL     1       2.492   7.635  23.823  1.00  0.00     0.028 C 
HETATM    6  C12 UNL     1       2.868   9.017  24.223  1.00  0.00    -0.044 C 
HETATM    7  C13 UNL     1       2.702   9.189  25.728  1.00  0.00     0.015 C 
HETATM    8  C14 UNL     1       1.841   9.965  23.586  1.00  0.00     0.015 C 
HETATM    9  C15 UNL     1       4.211   9.453  23.747  1.00  0.00     0.035 C 
HETATM   10  C16 UNL     1       5.281   8.384  23.991  1.00  0.00     0.105 C 
ENDROOT
BRANCH   1  11
HETATM   11  C8  UNL     1       5.188   5.699  21.147  1.00  0.00     0.096 C 
HETATM   12  C7  UNL     1       4.792   4.472  21.879  1.00  0.00     0.017 C 
HETATM   13  C6  UNL     1       5.028   3.180  21.170  1.00  0.00     0.021 C 
HETATM   14  C5  UNL     1       6.308   3.107  20.395  1.00  0.00     0.126 C 
HETATM   15  N2  UNL     1       6.384   4.259  19.528  1.00  0.00    -0.350 N 
HETATM   16  C4  UNL     1       6.568   4.131  18.111  1.00  0.00     0.237 C 
HETATM   17  C23 UNL     1       6.267   5.568  20.126  1.00  0.00     0.139 C 
HETATM   18  O2  UNL     1       6.627   5.167  17.403  1.00  0.00    -0.272 OA
BRANCH  16  19
HETATM   19  C3  UNL     1       6.686   2.797  17.491  1.00  0.00     0.225 C 
BRANCH  19  20
HETATM   20  N1  UNL     1       8.033   2.349  17.288  1.00  0.00    -0.353 N 
HETATM   21  C2  UNL     1       8.663   1.323  18.024  1.00  0.00     0.213 C 
HETATM   22  C1  UNL     1      10.051   0.932  17.747  1.00  0.00     0.117 C 
HETATM   23  O1  UNL     1       8.027   0.738  18.926  1.00  0.00    -0.274 OA
ATOM     24  H1  UNL     1       8.576   2.806  16.557  1.00  0.00     0.162 HD
ENDBRANCH  19  20
ENDBRANCH  16  19
ENDBRANCH   1  11
BRANCH  10  25
HETATM   25  C17 UNL     1       6.591   8.987  23.696  1.00  0.00     0.149 C 
BRANCH  25  26
HETATM   26  N4  UNL     1       7.600   8.337  24.549  1.00  0.00    -0.341 N 
HETATM   27  C18 UNL     1       8.966   8.609  24.337  1.00  0.00     0.318 C 
HETATM   28  O4  UNL     1       9.293   9.411  23.413  1.00  0.00    -0.247 OA
HETATM   29  N5  UNL     1       9.987   8.005  25.138  1.00  0.00    -0.331 N 
HETATM   30  C19 UNL     1       9.714   7.083  26.212  1.00  0.00     0.130 C 
HETATM   31  C22 UNL     1      11.410   8.230  24.987  1.00  0.00     0.164 C 
HETATM   32  C20 UNL     1      10.984   7.117  27.040  1.00  0.00     0.058 C 
HETATM   33  C21 UNL     1      12.036   7.322  25.994  1.00  0.00     0.189 C 
HETATM   34  F1  UNL     1      13.166   7.939  26.495  1.00  0.00    -0.248 F 
ATOM     35  H4  UNL     1       7.313   7.694  25.286  1.00  0.00     0.164 HD
ENDBRANCH  25  26
ENDBRANCH  10  25
TORSDOF 5
ENDMDL
MODEL 2
REMARK VINA RESULT: -9.545890326      3.505      8.217
REMARK  5 active torsions:
REMARK  status: ('A' for Active; 'I' for Inactive)
REMARK       I    between atoms: C2_2  and  N1_4 
REMARK    1  A    between atoms: N1_4  and  C3_6 
REMARK    2  A    between atoms: C3_6  and  C4_7 
REMARK       I    between atoms: C4_7  and  N2_9 
REMARK    3  A    between atoms: C8_13  and  C9_14 
REMARK       I    between atoms: C9_14  and  N3_16 
REMARK    4  A    between atoms: C16_23  and  C17_24 
REMARK    5  A    between atoms: C17_24  and  N4_25 
REMARK       I    between atoms: N4_25  and  C18_27 
REMARK       I    between atoms: C18_27  and  N5_29 
ROOT
HETATM    1  C9  UNL     1       6.089   6.564  19.942  1.00  0.00     0.226 C 
HETATM    2  O3  UNL     1       6.865   6.385  18.936  1.00  0.00    -0.273 OA
HETATM    3  N3  UNL     1       4.960   5.778  20.053  1.00  0.00    -0.345 N 
HETATM    4  C10 UNL     1       3.961   5.869  21.144  1.00  0.00     0.127 C 
HETATM    5  C11 UNL     1       3.762   4.583  21.862  1.00  0.00     0.028 C 
HETATM    6  C12 UNL     1       3.836   3.352  21.031  1.00  0.00    -0.044 C 
HETATM    7  C13 UNL     1       2.437   2.923  20.608  1.00  0.00     0.015 C 
HETATM    8  C14 UNL     1       4.354   2.227  21.939  1.00  0.00     0.015 C 
HETATM    9  C15 UNL     1       4.776   3.443  19.877  1.00  0.00     0.035 C 
HETATM   10  C16 UNL     1       4.604   4.752  19.100  1.00  0.00     0.105 C 
ENDROOT
BRANCH   1  11
HETATM   11  C8  UNL     1       6.559   7.643  20.867  1.00  0.00     0.096 C 
HETATM   12  C7  UNL     1       6.930   8.889  20.154  1.00  0.00     0.017 C 
HETATM   13  C6  UNL     1       7.947   9.752  20.823  1.00  0.00     0.021 C 
HETATM   14  C5  UNL     1       9.065   9.011  21.490  1.00  0.00     0.126 C 
HETATM   15  N2  UNL     1       8.496   8.013  22.364  1.00  0.00    -0.350 N 
HETATM   16  C4  UNL     1       8.823   7.950  23.759  1.00  0.00     0.237 C 
HETATM   17  C23 UNL     1       7.570   7.061  21.795  1.00  0.00     0.139 C 
HETATM   18  O2  UNL     1       8.297   7.060  24.474  1.00  0.00    -0.272 OA
BRANCH  16  19
HETATM   19  C3  UNL     1       9.765   8.921  24.349  1.00  0.00     0.225 C 
BRANCH  19  20
HETATM   20  N1  UNL     1      11.083   8.408  24.583  1.00  0.00    -0.353 N 
HETATM   21  C2  UNL     1      11.517   7.810  25.784  1.00  0.00     0.213 C 
HETATM   22  C1  UNL     1      12.892   7.315  25.933  1.00  0.00     0.117 C 
HETATM   23  O1  UNL     1      10.717   7.701  26.737  1.00  0.00    -0.274 OA
ATOM     24  H1  UNL     1      11.759   8.481  23.822  1.00  0.00     0.162 HD
ENDBRANCH  19  20
ENDBRANCH  16  19
ENDBRANCH   1  11
BRANCH  10  25
HETATM   25  C17 UNL     1       5.407   4.649  17.870  1.00  0.00     0.149 C 
BRANCH  25  26
HETATM   26  N4  UNL     1       6.507   3.701  18.117  1.00  0.00    -0.341 N 
HETATM   27  C18 UNL     1       6.695   2.615  17.241  1.00  0.00     0.318 C 
HETATM   28  O4  UNL     1       5.908   2.479  16.258  1.00  0.00    -0.247 OA
HETATM   29  N5  UNL     1       7.748   1.665  17.433  1.00  0.00    -0.331 N 
HETATM   30  C19 UNL     1       8.694   1.735  18.520  1.00  0.00     0.130 C 
HETATM   31  C22 UNL     1       8.010   0.523  16.582  1.00  0.00     0.164 C 
HETATM   32  C20 UNL     1       9.849   0.878  18.040  1.00  0.00     0.058 C 
HETATM   33  C21 UNL     1       9.147  -0.181  17.247  1.00  0.00     0.189 C 
HETATM   34  F1  UNL     1       9.953  -0.730  16.269  1.00  0.00    -0.248 F 
ATOM     35  H4  UNL     1       7.127   3.830  18.915  1.00  0.00     0.164 HD
ENDBRANCH  25  26
ENDBRANCH  10  25
TORSDOF 5
ENDMDL
MODEL 3
REMARK VINA RESULT: -9.534460718      4.230      9.379
REMARK  5 active torsions:
REMARK  status: ('A' for Active; 'I' for Inactive)
REMARK       I    between atoms: C2_2  and  N1_4 
REMARK    1  A    between atoms: N1_4  and  C3_6 
REMARK    2  A    between atoms: C3_6  and  C4_7 
REMARK       I    between atoms: C4_7  and  N2_9 
REMARK    3  A    between atoms: C8_13  and  C9_14 
REMARK       I    between atoms: C9_14  and  N3_16 
REMARK    4  A    between atoms: C16_23  and  C17_24 
REMARK    5  A    between atoms: C17_24  and  N4_25 
REMARK       I    between atoms: N4_25  and  C18_27 
REMARK       I    between atoms: C18_27  and  N5_29 
ROOT
HETATM    1  C9  UNL     1       6.324   5.754  18.714  1.00  0.00     0.226 C 
HETATM    2  O3  UNL     1       5.981   6.761  17.996  1.00  0.00    -0.273 OA
HETATM    3  N3  UNL     1       6.233   4.491  18.166  1.00  0.00    -0.345 N 
HETATM    4  C10 UNL     1       6.578   3.231  18.867  1.00  0.00     0.127 C 
HETATM    5  C11 UNL     1       7.602   2.426  18.151  1.00  0.00     0.028 C 
HETATM    6  C12 UNL     1       7.529   2.448  16.666  1.00  0.00    -0.044 C 
HETATM    7  C13 UNL     1       6.745   1.242  16.164  1.00  0.00     0.015 C 
HETATM    8  C14 UNL     1       8.960   2.255  16.142  1.00  0.00     0.015 C 
HETATM    9  C15 UNL     1       7.030   3.730  16.092  1.00  0.00     0.035 C 
HETATM   10  C16 UNL     1       5.779   4.234  16.819  1.00  0.00     0.105 C 
ENDROOT
BRANCH   1  11
HETATM   11  C8  UNL     1       6.787   6.137  20.086  1.00  0.00     0.096 C 
HETATM   12  C7  UNL     1       5.779   5.845  21.133  1.00  0.00     0.017 C 
HETATM   13  C6  UNL     1       5.834   6.700  22.355  1.00  0.00     0.021 C 
HETATM   14  C5  UNL     1       6.129   8.147  22.103  1.00  0.00     0.126 C 
HETATM   15  N2  UNL     1       7.316   8.236  21.286  1.00  0.00    -0.350 N 
HETATM   16  C4  UNL     1       8.460   9.002  21.690  1.00  0.00     0.237 C 
HETATM   17  C23 UNL     1       7.331   7.523  20.029  1.00  0.00     0.139 C 
HETATM   18  O2  UNL     1       9.467   9.044  20.941  1.00  0.00    -0.272 OA
BRANCH  16  19
HETATM   19  C3  UNL     1       8.454   9.731  22.974  1.00  0.00     0.225 C 
BRANCH  19  20
HETATM   20  N1  UNL     1       9.615   9.517  23.788  1.00  0.00    -0.353 N 
HETATM   21  C2  UNL     1       9.826   8.394  24.616  1.00  0.00     0.213 C 
HETATM   22  C1  UNL     1      11.049   8.262  25.419  1.00  0.00     0.117 C 
HETATM   23  O1  UNL     1       8.957   7.498  24.666  1.00  0.00    -0.274 OA
ATOM     24  H1  UNL     1      10.343  10.230  23.767  1.00  0.00     0.162 HD
ENDBRANCH  19  20
ENDBRANCH  16  19
ENDBRANCH   1  11
BRANCH  10  25
HETATM   25  C17 UNL     1       5.242   5.368  16.049  1.00  0.00     0.149 C 
BRANCH  25  26
HETATM   26  N4  UNL     1       6.244   5.756  15.041  1.00  0.00    -0.341 N 
HETATM   27  C18 UNL     1       6.357   7.107  14.661  1.00  0.00     0.318 C 
HETATM   28  O4  UNL     1       5.590   7.959  15.198  1.00  0.00    -0.247 OA
HETATM   29  N5  UNL     1       7.314   7.538  13.687  1.00  0.00    -0.331 N 
HETATM   30  C19 UNL     1       8.230   6.644  13.023  1.00  0.00     0.130 C 
HETATM   31  C22 UNL     1       7.495   8.903  13.241  1.00  0.00     0.164 C 
HETATM   32  C20 UNL     1       9.316   7.568  12.507  1.00  0.00     0.058 C 
HETATM   33  C21 UNL     1       8.544   8.809  12.181  1.00  0.00     0.189 C 
HETATM   34  F1  UNL     1       9.325   9.947  12.237  1.00  0.00    -0.248 F 
ATOM     35  H4  UNL     1       6.850   5.051  14.622  1.00  0.00     0.164 HD
ENDBRANCH  25  26
ENDBRANCH  10  25
TORSDOF 5
ENDMDL
MODEL 4
REMARK VINA RESULT: -9.476437141      1.371      1.729
REMARK  5 active torsions:
REMARK  status: ('A' for Active; 'I' for Inactive)
REMARK       I    between atoms: C2_2  and  N1_4 
REMARK    1  A    between atoms: N1_4  and  C3_6 
REMARK    2  A    between atoms: C3_6  and  C4_7 
REMARK       I    between atoms: C4_7  and  N2_9 
REMARK    3  A    between atoms: C8_13  and  C9_14 
REMARK       I    between atoms: C9_14  and  N3_16 
REMARK    4  A    between atoms: C16_23  and  C17_24 
REMARK    5  A    between atoms: C17_24  and  N4_25 
REMARK       I    between atoms: N4_25  and  C18_27 
REMARK       I    between atoms: C18_27  and  N5_29 
ROOT
HETATM    1  C9  UNL     1       6.803   7.442  21.203  1.00  0.00     0.226 C 
HETATM    2  O3  UNL     1       7.748   8.308  21.278  1.00  0.00    -0.273 OA
HETATM    3  N3  UNL     1       5.926   7.329  22.264  1.00  0.00    -0.345 N 
HETATM    4  C10 UNL     1       4.795   6.374  22.336  1.00  0.00     0.127 C 
HETATM    5  C11 UNL     1       3.485   7.038  22.565  1.00  0.00     0.028 C 
HETATM    6  C12 UNL     1       3.503   8.229  23.454  1.00  0.00    -0.044 C 
HETATM    7  C13 UNL     1       3.144   7.824  24.878  1.00  0.00     0.015 C 
HETATM    8  C14 UNL     1       2.366   9.153  22.991  1.00  0.00     0.015 C 
HETATM    9  C15 UNL     1       4.760   9.028  23.391  1.00  0.00     0.035 C 
HETATM   10  C16 UNL     1       6.006   8.140  23.457  1.00  0.00     0.105 C 
ENDROOT
BRANCH   1  11
HETATM   11  C8  UNL     1       6.810   6.668  19.922  1.00  0.00     0.096 C 
HETATM   12  C7  UNL     1       5.685   7.030  19.027  1.00  0.00     0.017 C 
HETATM   13  C6  UNL     1       5.229   5.968  18.083  1.00  0.00     0.021 C 
HETATM   14  C5  UNL     1       5.206   4.583  18.652  1.00  0.00     0.126 C 
HETATM   15  N2  UNL     1       6.493   4.308  19.244  1.00  0.00    -0.350 N 
HETATM   16  C4  UNL     1       7.277   3.169  18.863  1.00  0.00     0.237 C 
HETATM   17  C23 UNL     1       6.988   5.224  20.246  1.00  0.00     0.139 C 
HETATM   18  O2  UNL     1       8.392   2.979  19.410  1.00  0.00    -0.272 OA
BRANCH  16  19
HETATM   19  C3  UNL     1       6.780   2.231  17.837  1.00  0.00     0.225 C 
BRANCH  19  20
HETATM   20  N1  UNL     1       7.540   1.021  17.716  1.00  0.00    -0.353 N 
HETATM   21  C2  UNL     1       8.695   0.867  16.920  1.00  0.00     0.213 C 
HETATM   22  C1  UNL     1       9.408  -0.416  16.856  1.00  0.00     0.117 C 
HETATM   23  O1  UNL     1       9.116   1.839  16.259  1.00  0.00    -0.274 OA
ATOM     24  H1  UNL     1       7.222   0.210  18.246  1.00  0.00     0.162 HD
ENDBRANCH  19  20
ENDBRANCH  16  19
ENDBRANCH   1  11
BRANCH  10  25
HETATM   25  C17 UNL     1       7.175   9.022  23.610  1.00  0.00     0.149 C 
BRANCH  25  26
HETATM   26  N4  UNL     1       8.137   8.360  24.508  1.00  0.00    -0.341 N 
HETATM   27  C18 UNL     1       9.516   8.582  24.331  1.00  0.00     0.318 C 
HETATM   28  O4  UNL     1       9.897   9.350  23.398  1.00  0.00    -0.247 OA
HETATM   29  N5  UNL     1      10.494   7.965  25.176  1.00  0.00    -0.331 N 
HETATM   30  C19 UNL     1      10.159   7.078  26.263  1.00  0.00     0.130 C 
HETATM   31  C22 UNL     1      11.926   8.140  25.062  1.00  0.00     0.164 C 
HETATM   32  C20 UNL     1      11.404   7.092  27.128  1.00  0.00     0.058 C 
HETATM   33  C21 UNL     1      12.492   7.236  26.109  1.00  0.00     0.189 C 
HETATM   34  F1  UNL     1      13.627   7.828  26.628  1.00  0.00    -0.248 F 
ATOM     35  H4  UNL     1       7.807   7.745  25.251  1.00  0.00     0.164 HD
ENDBRANCH  25  26
ENDBRANCH  10  25
TORSDOF 5
ENDMDL
MODEL 5
REMARK VINA RESULT: -9.181273852      4.289      9.308
REMARK  5 active torsions:
REMARK  status: ('A' for Active; 'I' for Inactive)
REMARK       I    between atoms: C2_2  and  N1_4 
REMARK    1  A    between atoms: N1_4  and  C3_6 
REMARK    2  A    between atoms: C3_6  and  C4_7 
REMARK       I    between atoms: C4_7  and  N2_9 
REMARK    3  A    between atoms: C8_13  and  C9_14 
REMARK       I    between atoms: C9_14  and  N3_16 
REMARK    4  A    between atoms: C16_23  and  C17_24 
REMARK    5  A    between atoms: C17_24  and  N4_25 
REMARK       I    between atoms: N4_25  and  C18_27 
REMARK       I    between atoms: C18_27  and  N5_29 
ROOT
HETATM    1  C9  UNL     1       6.106   6.065  19.017  1.00  0.00     0.226 C 
HETATM    2  O3  UNL     1       6.049   7.224  18.466  1.00  0.00    -0.273 OA
HETATM    3  N3  UNL     1       5.865   4.951  18.239  1.00  0.00    -0.345 N 
HETATM    4  C10 UNL     1       5.880   3.552  18.726  1.00  0.00     0.127 C 
HETATM    5  C11 UNL     1       6.832   2.685  17.981  1.00  0.00     0.028 C 
HETATM    6  C12 UNL     1       6.965   2.961  16.527  1.00  0.00    -0.044 C 
HETATM    7  C13 UNL     1       6.053   2.035  15.733  1.00  0.00     0.015 C 
HETATM    8  C14 UNL     1       8.396   2.573  16.125  1.00  0.00     0.015 C 
HETATM    9  C15 UNL     1       6.786   4.393  16.151  1.00  0.00     0.035 C 
HETATM   10  C16 UNL     1       5.559   5.013  16.828  1.00  0.00     0.105 C 
ENDROOT
BRANCH   1  11
HETATM   11  C8  UNL     1       6.439   6.121  20.476  1.00  0.00     0.096 C 
HETATM   12  C7  UNL     1       5.266   5.856  21.343  1.00  0.00     0.017 C 
HETATM   13  C6  UNL     1       5.301   6.470  22.702  1.00  0.00     0.021 C 
HETATM   14  C5  UNL     1       5.867   7.856  22.756  1.00  0.00     0.126 C 
HETATM   15  N2  UNL     1       7.150   7.853  22.095  1.00  0.00    -0.350 N 
HETATM   16  C4  UNL     1       8.342   8.309  22.749  1.00  0.00     0.237 C 
HETATM   17  C23 UNL     1       7.212   7.368  20.735  1.00  0.00     0.139 C 
HETATM   18  O2  UNL     1       9.433   8.284  22.126  1.00  0.00    -0.272 OA
BRANCH  16  19
HETATM   19  C3  UNL     1       8.289   8.803  24.139  1.00  0.00     0.225 C 
BRANCH  19  20
HETATM   20  N1  UNL     1       8.777   7.879  25.121  1.00  0.00    -0.353 N 
HETATM   21  C2  UNL     1       9.997   8.009  25.817  1.00  0.00     0.213 C 
HETATM   22  C1  UNL     1      10.418   7.008  26.806  1.00  0.00     0.117 C 
HETATM   23  O1  UNL     1      10.731   8.993  25.587  1.00  0.00    -0.274 OA
ATOM     24  H1  UNL     1       8.199   7.067  25.332  1.00  0.00     0.162 HD
ENDBRANCH  19  20
ENDBRANCH  16  19
ENDBRANCH   1  11
BRANCH  10  25
HETATM   25  C17 UNL     1       5.343   6.341  16.230  1.00  0.00     0.149 C 
BRANCH  25  26
HETATM   26  N4  UNL     1       6.278   6.496  15.103  1.00  0.00    -0.341 N 
HETATM   27  C18 UNL     1       6.786   7.773  14.795  1.00  0.00     0.318 C 
HETATM   28  O4  UNL     1       6.423   8.761  15.498  1.00  0.00    -0.247 OA
HETATM   29  N5  UNL     1       7.699   7.979  13.711  1.00  0.00    -0.331 N 
HETATM   30  C19 UNL     1       8.171   6.918  12.856  1.00  0.00     0.130 C 
HETATM   31  C22 UNL     1       8.266   9.255  13.328  1.00  0.00     0.164 C 
HETATM   32  C20 UNL     1       9.427   7.496  12.235  1.00  0.00     0.058 C 
HETATM   33  C21 UNL     1       9.078   8.947  12.112  1.00  0.00     0.189 C 
HETATM   34  F1  UNL     1      10.194   9.761  12.116  1.00  0.00    -0.248 F 
ATOM     35  H4  UNL     1       6.556   5.685  14.550  1.00  0.00     0.164 HD
ENDBRANCH  25  26
ENDBRANCH  10  25
TORSDOF 5
ENDMDL
