MODEL 1
REMARK VINA RESULT: -7.469409127      0.000      0.000
REMARK  6 active torsions:
REMARK  status: ('A' for Active; 'I' for Inactive)
REMARK    1  A    between atoms: C2_2  and  O1_3 
REMARK    2  A    between atoms: O1_3  and  C3_4 
REMARK    3  A    between atoms: C3_4  and  C4_6 
REMARK    4  A    between atoms: C4_6  and  C5_7 
REMARK    5  A    between atoms: N3_23  and  C15_24 
REMARK    6  A    between atoms: C15_24  and  C16_25 
ROOT
HETATM    1  C4  UNL     1       7.616   7.918  22.014  1.00  0.00     0.051 C 
HETATM    2  C7  UNL     1       7.617   6.609  21.320  1.00  0.00     0.051 C 
HETATM    3  C8  UNL     1       6.458   6.357  20.383  1.00  0.00     0.131 C 
HETATM    4  C9  UNL     1       5.362   7.379  20.649  1.00  0.00     0.030 A 
HETATM    5  N1  UNL     1       4.776   7.982  19.700  1.00  0.00    -0.337 N 
ATOM      6  H1  UNL     1       5.065   7.765  18.746  1.00  0.00     0.168 HD
HETATM    7  C10 UNL     1       3.742   8.941  19.882  1.00  0.00     0.178 A 
HETATM    8  S1  UNL     1       2.996   9.725  18.662  1.00  0.00    -0.040 SA
HETATM    9  N2  UNL     1       3.348   9.222  21.215  1.00  0.00    -0.303 N 
ATOM     10  H2  UNL     1       2.612   9.903  21.402  1.00  0.00     0.171 HD
HETATM   11  C11 UNL     1       3.983   8.551  22.276  1.00  0.00     0.238 A 
HETATM   12  O3  UNL     1       3.577   8.767  23.437  1.00  0.00    -0.272 OA
HETATM   13  C12 UNL     1       5.107   7.599  22.085  1.00  0.00     0.084 A 
HETATM   14  C13 UNL     1       4.885   6.259  22.704  1.00  0.00     0.045 C 
HETATM   15  C14 UNL     1       4.907   5.106  21.771  1.00  0.00     0.124 C 
HETATM   16  N3  UNL     1       5.880   5.122  20.739  1.00  0.00    -0.383 N 
HETATM   17  C22 UNL     1       6.331   8.308  22.647  1.00  0.00     0.045 C 
ENDROOT
BRANCH  16  18
HETATM   18  C15 UNL     1       5.556   4.260  19.678  1.00  0.00     0.063 C 
BRANCH  18  19
HETATM   19  C16 UNL     1       6.283   2.976  19.485  1.00  0.00     0.024 C 
HETATM   20  C17 UNL     1       7.747   2.943  19.723  1.00  0.00     0.013 C 
HETATM   21  C18 UNL     1       8.281   1.554  19.435  1.00  0.00     0.038 C 
HETATM   22  C19 UNL     1       7.869   0.965  18.140  1.00  0.00     0.170 C 
HETATM   23  F1  UNL     1       8.572   1.497  17.075  1.00  0.00    -0.249 F 
HETATM   24  C20 UNL     1       6.390   1.155  17.855  1.00  0.00     0.038 C 
HETATM   25  C21 UNL     1       6.062   2.619  17.987  1.00  0.00     0.013 C 
ENDBRANCH  18  19
ENDBRANCH  16  18
BRANCH   1  26
HETATM   26  C3  UNL     1       8.080   8.947  21.008  1.00  0.00     0.267 C 
HETATM   27  O2  UNL     1       8.979   8.690  20.169  1.00  0.00    -0.264 OA
BRANCH  26  28
HETATM   28  O1  UNL     1       7.533  10.222  20.968  1.00  0.00    -0.321 OA
BRANCH  28  29
HETATM   29  C2  UNL     1       7.771  11.099  19.866  1.00  0.00     0.174 C 
HETATM   30  C1  UNL     1       6.534  11.208  19.030  1.00  0.00     0.034 C 
ENDBRANCH  28  29
ENDBRANCH  26  28
ENDBRANCH   1  26
BRANCH   1  31
HETATM   31  C5  UNL     1       8.769   7.883  23.028  1.00  0.00     0.015 C 
HETATM   32  C6  UNL     1       8.461   8.556  24.317  1.00  0.00     0.006 C 
ENDBRANCH   1  31
TORSDOF 6
ENDMDL
MODEL 2
REMARK VINA RESULT: -7.250342055      3.749      6.401
REMARK  6 active torsions:
REMARK  status: ('A' for Active; 'I' for Inactive)
REMARK    1  A    between atoms: C2_2  and  O1_3 
REMARK    2  A    between atoms: O1_3  and  C3_4 
REMARK    3  A    between atoms: C3_4  and  C4_6 
REMARK    4  A    between atoms: C4_6  and  C5_7 
REMARK    5  A    between atoms: N3_23  and  C15_24 
REMARK    6  A    between atoms: C15_24  and  C16_25 
ROOT
HETATM    1  C4  UNL     1       4.326   7.726  23.099  1.00  0.00     0.051 C 
HETATM    2  C7  UNL     1       5.544   8.056  23.877  1.00  0.00     0.051 C 
HETATM    3  C8  UNL     1       6.603   8.844  23.142  1.00  0.00     0.131 C 
HETATM    4  C9  UNL     1       6.317   8.805  21.648  1.00  0.00     0.030 A 
HETATM    5  N1  UNL     1       6.381   9.853  20.936  1.00  0.00    -0.337 N 
ATOM      6  H1  UNL     1       6.626  10.730  21.395  1.00  0.00     0.168 HD
HETATM    7  C10 UNL     1       6.131   9.881  19.535  1.00  0.00     0.178 A 
HETATM    8  S1  UNL     1       6.202  11.230  18.621  1.00  0.00    -0.040 SA
HETATM    9  N2  UNL     1       5.801   8.651  18.912  1.00  0.00    -0.303 N 
ATOM     10  H2  UNL     1       5.610   8.615  17.911  1.00  0.00     0.171 HD
HETATM   11  C11 UNL     1       5.739   7.481  19.690  1.00  0.00     0.238 A 
HETATM   12  O3  UNL     1       5.507   6.399  19.111  1.00  0.00    -0.272 OA
HETATM   13  C12 UNL     1       5.935   7.467  21.163  1.00  0.00     0.084 A 
HETATM   14  C13 UNL     1       6.983   6.513  21.630  1.00  0.00     0.045 C 
HETATM   15  C14 UNL     1       8.121   7.114  22.368  1.00  0.00     0.124 C 
HETATM   16  N3  UNL     1       7.825   8.156  23.283  1.00  0.00    -0.383 N 
HETATM   17  C22 UNL     1       4.562   7.161  21.746  1.00  0.00     0.045 C 
ENDROOT
BRANCH  16  18
HETATM   18  C15 UNL     1       8.948   8.942  23.589  1.00  0.00     0.063 C 
BRANCH  18  19
HETATM   19  C16 UNL     1       9.700   8.744  24.858  1.00  0.00     0.024 C 
HETATM   20  C17 UNL     1      11.143   8.407  24.785  1.00  0.00     0.013 C 
HETATM   21  C18 UNL     1      11.695   8.217  26.185  1.00  0.00     0.038 C 
HETATM   22  C19 UNL     1      10.911   7.321  27.066  1.00  0.00     0.170 C 
HETATM   23  F1  UNL     1      11.109   5.986  26.766  1.00  0.00    -0.249 F 
HETATM   24  C20 UNL     1       9.419   7.590  26.996  1.00  0.00     0.038 C 
HETATM   25  C21 UNL     1       8.991   7.546  25.553  1.00  0.00     0.013 C 
ENDBRANCH  18  19
ENDBRANCH  16  18
BRANCH   1  26
HETATM   26  C3  UNL     1       3.488   8.983  23.042  1.00  0.00     0.267 C 
HETATM   27  O2  UNL     1       3.180   9.520  21.949  1.00  0.00    -0.264 OA
BRANCH  26  28
HETATM   28  O1  UNL     1       3.023   9.599  24.195  1.00  0.00    -0.321 OA
BRANCH  28  29
HETATM   29  C2  UNL     1       1.684  10.088  24.289  1.00  0.00     0.174 C 
HETATM   30  C1  UNL     1       0.800   9.033  24.877  1.00  0.00     0.034 C 
ENDBRANCH  28  29
ENDBRANCH  26  28
ENDBRANCH   1  26
BRANCH   1  31
HETATM   31  C5  UNL     1       3.482   6.788  23.974  1.00  0.00     0.015 C 
HETATM   32  C6  UNL     1       2.436   6.043  23.227  1.00  0.00     0.006 C 
ENDBRANCH   1  31
TORSDOF 6
ENDMDL
MODEL 3
REMARK VINA RESULT: -7.176199998      1.864      2.352
REMARK  6 active torsions:
REMARK  status: ('A' for Active; 'I' for Inactive)
REMARK    1  A    between atoms: C2_2  and  O1_3 
REMARK    2  A    between atoms: O1_3  and  C3_4 
REMARK    3  A    between atoms: C3_4  and  C4_6 
REMARK    4  A    between atoms: C4_6  and  C5_7 
REMARK    5  A    between atoms: N3_23  and  C15_24 
REMARK    6  A    between atoms: C15_24  and  C16_25 
ROOT
HETATM    1  C4  UNL     1       6.204   6.771  21.872  1.00  0.00     0.051 C 
HETATM    2  C7  UNL     1       6.744   5.711  20.989  1.00  0.00     0.051 C 
HETATM    3  C8  UNL     1       5.755   5.074  20.041  1.00  0.00     0.131 C 
HETATM    4  C9  UNL     1       4.340   5.430  20.473  1.00  0.00     0.030 A 
HETATM    5  N1  UNL     1       3.468   5.810  19.633  1.00  0.00    -0.337 N 
ATOM      6  H1  UNL     1       3.745   5.875  18.654  1.00  0.00     0.168 HD
HETATM    7  C10 UNL     1       2.130   6.151  19.972  1.00  0.00     0.178 A 
HETATM    8  S1  UNL     1       1.012   6.650  18.894  1.00  0.00    -0.040 SA
HETATM    9  N2  UNL     1       1.761   6.046  21.337  1.00  0.00    -0.303 N 
ATOM     10  H2  UNL     1       0.814   6.280  21.635  1.00  0.00     0.171 HD
HETATM   11  C11 UNL     1       2.716   5.615  22.276  1.00  0.00     0.238 A 
HETATM   12  O3  UNL     1       2.353   5.469  23.462  1.00  0.00    -0.272 OA
HETATM   13  C12 UNL     1       4.130   5.323  21.928  1.00  0.00     0.084 A 
HETATM   14  C13 UNL     1       4.594   3.966  22.341  1.00  0.00     0.045 C 
HETATM   15  C14 UNL     1       5.062   3.082  21.246  1.00  0.00     0.124 C 
HETATM   16  N3  UNL     1       5.832   3.678  20.214  1.00  0.00    -0.383 N 
HETATM   17  C22 UNL     1       4.939   6.440  22.574  1.00  0.00     0.045 C 
ENDROOT
BRANCH  16  18
HETATM   18  C15 UNL     1       5.851   2.907  19.040  1.00  0.00     0.063 C 
BRANCH  18  19
HETATM   19  C16 UNL     1       6.867   1.837  18.842  1.00  0.00     0.024 C 
HETATM   20  C17 UNL     1       8.251   2.071  19.322  1.00  0.00     0.013 C 
HETATM   21  C18 UNL     1       9.118   0.873  18.987  1.00  0.00     0.038 C 
HETATM   22  C19 UNL     1       9.040   0.399  17.585  1.00  0.00     0.170 C 
HETATM   23  F1  UNL     1       9.752   1.206  16.718  1.00  0.00    -0.249 F 
HETATM   24  C20 UNL     1       7.613   0.322  17.073  1.00  0.00     0.038 C 
HETATM   25  C21 UNL     1       6.950   1.655  17.299  1.00  0.00     0.013 C 
ENDBRANCH  18  19
ENDBRANCH  16  18
BRANCH   1  26
HETATM   26  C3  UNL     1       6.066   8.017  21.027  1.00  0.00     0.267 C 
HETATM   27  O2  UNL     1       5.149   8.851  21.229  1.00  0.00    -0.264 OA
BRANCH  26  28
HETATM   28  O1  UNL     1       6.946   8.293  19.991  1.00  0.00    -0.321 OA
BRANCH  28  29
HETATM   29  C2  UNL     1       7.840   9.406  20.051  1.00  0.00     0.174 C 
HETATM   30  C1  UNL     1       9.163   8.964  20.593  1.00  0.00     0.034 C 
ENDBRANCH  28  29
ENDBRANCH  26  28
ENDBRANCH   1  26
BRANCH   1  31
HETATM   31  C5  UNL     1       7.325   7.144  22.854  1.00  0.00     0.015 C 
HETATM   32  C6  UNL     1       6.847   7.804  24.096  1.00  0.00     0.006 C 
ENDBRANCH   1  31
TORSDOF 6
ENDMDL
MODEL 4
REMARK VINA RESULT: -7.105338906      0.797      1.170
REMARK  6 active torsions:
REMARK  status: ('A' for Active; 'I' for Inactive)
REMARK    1  A    between atoms: C2_2  and  O1_3 
REMARK    2  A    between atoms: O1_3  and  C3_4 
REMARK    3  A    between atoms: C3_4  and  C4_6 
REMARK    4  A    between atoms: C4_6  and  C5_7 
REMARK    5  A    between atoms: N3_23  and  C15_24 
REMARK    6  A    between atoms: C15_24  and  C16_25 
ROOT
HETATM    1  C4  UNL     1       7.702   8.062  21.780  1.00  0.00     0.051 C 
HETATM    2  C7  UNL     1       7.614   6.639  21.377  1.00  0.00     0.051 C 
HETATM    3  C8  UNL     1       6.359   6.239  20.636  1.00  0.00     0.131 C 
HETATM    4  C9  UNL     1       5.309   7.329  20.794  1.00  0.00     0.030 A 
HETATM    5  N1  UNL     1       4.633   7.744  19.805  1.00  0.00    -0.337 N 
ATOM      6  H1  UNL     1       4.815   7.327  18.892  1.00  0.00     0.168 HD
HETATM    7  C10 UNL     1       3.635   8.754  19.888  1.00  0.00     0.178 A 
HETATM    8  S1  UNL     1       2.772   9.295  18.614  1.00  0.00    -0.040 SA
HETATM    9  N2  UNL     1       3.388   9.316  21.167  1.00  0.00    -0.303 N 
ATOM     10  H2  UNL     1       2.685  10.045  21.282  1.00  0.00     0.171 HD
HETATM   11  C11 UNL     1       4.125   8.856  22.273  1.00  0.00     0.238 A 
HETATM   12  O3  UNL     1       3.848   9.320  23.400  1.00  0.00    -0.272 OA
HETATM   13  C12 UNL     1       5.211   7.848  22.171  1.00  0.00     0.084 A 
HETATM   14  C13 UNL     1       5.041   6.672  23.074  1.00  0.00     0.045 C 
HETATM   15  C14 UNL     1       4.951   5.352  22.404  1.00  0.00     0.124 C 
HETATM   16  N3  UNL     1       5.807   5.124  21.298  1.00  0.00    -0.383 N 
HETATM   17  C22 UNL     1       6.497   8.617  22.445  1.00  0.00     0.045 C 
ENDROOT
BRANCH  16  18
HETATM   18  C15 UNL     1       5.363   4.073  20.478  1.00  0.00     0.063 C 
BRANCH  18  19
HETATM   19  C16 UNL     1       6.218   3.542  19.381  1.00  0.00     0.024 C 
HETATM   20  C17 UNL     1       5.586   3.220  18.078  1.00  0.00     0.013 C 
HETATM   21  C18 UNL     1       6.629   2.665  17.127  1.00  0.00     0.038 C 
HETATM   22  C19 UNL     1       7.476   1.578  17.670  1.00  0.00     0.170 C 
HETATM   23  F1  UNL     1       6.812   0.366  17.710  1.00  0.00    -0.249 F 
HETATM   24  C20 UNL     1       7.978   1.872  19.072  1.00  0.00     0.038 C 
HETATM   25  C21 UNL     1       6.797   2.212  19.943  1.00  0.00     0.013 C 
ENDBRANCH  18  19
ENDBRANCH  16  18
BRANCH   1  26
HETATM   26  C3  UNL     1       8.068   8.847  20.540  1.00  0.00     0.267 C 
HETATM   27  O2  UNL     1       9.132   8.625  19.911  1.00  0.00    -0.264 OA
BRANCH  26  28
HETATM   28  O1  UNL     1       7.243   9.846  20.044  1.00  0.00    -0.321 OA
BRANCH  28  29
HETATM   29  C2  UNL     1       7.194  10.145  18.647  1.00  0.00     0.174 C 
HETATM   30  C1  UNL     1       6.129  11.162  18.385  1.00  0.00     0.034 C 
ENDBRANCH  28  29
ENDBRANCH  26  28
ENDBRANCH   1  26
BRANCH   1  31
HETATM   31  C5  UNL     1       8.956   8.197  22.656  1.00  0.00     0.015 C 
HETATM   32  C6  UNL     1       8.898   9.324  23.624  1.00  0.00     0.006 C 
ENDBRANCH   1  31
TORSDOF 6
ENDMDL
MODEL 5
REMARK VINA RESULT: -6.978048233      2.675      4.801
REMARK  6 active torsions:
REMARK  status: ('A' for Active; 'I' for Inactive)
REMARK    1  A    between atoms: C2_2  and  O1_3 
REMARK    2  A    between atoms: O1_3  and  C3_4 
REMARK    3  A    between atoms: C3_4  and  C4_6 
REMARK    4  A    between atoms: C4_6  and  C5_7 
REMARK    5  A    between atoms: N3_23  and  C15_24 
REMARK    6  A    between atoms: C15_24  and  C16_25 
ROOT
HETATM    1  C4  UNL     1       4.150   8.503  22.633  1.00  0.00     0.051 C 
HETATM    2  C7  UNL     1       4.190   7.122  22.094  1.00  0.00     0.051 C 
HETATM    3  C8  UNL     1       5.449   6.338  22.380  1.00  0.00     0.131 C 
HETATM    4  C9  UNL     1       6.539   7.288  22.857  1.00  0.00     0.030 A 
HETATM    5  N1  UNL     1       7.263   7.012  23.860  1.00  0.00    -0.337 N 
ATOM      6  H1  UNL     1       7.091   6.132  24.347  1.00  0.00     0.168 HD
HETATM    7  C10 UNL     1       8.300   7.853  24.351  1.00  0.00     0.178 A 
HETATM    8  S1  UNL     1       9.225   7.504  25.648  1.00  0.00    -0.040 SA
HETATM    9  N2  UNL     1       8.530   9.068  23.657  1.00  0.00    -0.303 N 
ATOM     10  H2  UNL     1       9.260   9.709  23.967  1.00  0.00     0.171 HD
HETATM   11  C11 UNL     1       7.740   9.379  22.535  1.00  0.00     0.238 A 
HETATM   12  O3  UNL     1       8.001  10.424  21.901  1.00  0.00    -0.272 OA
HETATM   13  C12 UNL     1       6.615   8.530  22.066  1.00  0.00     0.084 A 
HETATM   14  C13 UNL     1       6.707   8.133  20.630  1.00  0.00     0.045 C 
HETATM   15  C14 UNL     1       6.762   6.675  20.366  1.00  0.00     0.124 C 
HETATM   16  N3  UNL     1       5.932   5.839  21.154  1.00  0.00    -0.383 N 
HETATM   17  C22 UNL     1       5.356   9.328  22.374  1.00  0.00     0.045 C 
ENDROOT
BRANCH  16  18
HETATM   18  C15 UNL     1       6.356   4.500  21.154  1.00  0.00     0.063 C 
BRANCH  18  19
HETATM   19  C16 UNL     1       6.822   3.843  19.902  1.00  0.00     0.024 C 
HETATM   20  C17 UNL     1       5.867   3.702  18.775  1.00  0.00     0.013 C 
HETATM   21  C18 UNL     1       6.539   2.979  17.624  1.00  0.00     0.038 C 
HETATM   22  C19 UNL     1       7.240   1.723  17.979  1.00  0.00     0.170 C 
HETATM   23  F1  UNL     1       6.365   0.672  18.179  1.00  0.00    -0.249 F 
HETATM   24  C20 UNL     1       8.087   1.860  19.232  1.00  0.00     0.038 C 
HETATM   25  C21 UNL     1       7.221   2.404  20.338  1.00  0.00     0.013 C 
ENDBRANCH  18  19
ENDBRANCH  16  18
BRANCH   1  26
HETATM   26  C3  UNL     1       3.857   8.387  24.111  1.00  0.00     0.267 C 
HETATM   27  O2  UNL     1       4.247   9.256  24.930  1.00  0.00    -0.264 OA
BRANCH  26  28
HETATM   28  O1  UNL     1       3.143   7.315  24.629  1.00  0.00    -0.321 OA
BRANCH  28  29
HETATM   29  C2  UNL     1       1.815   7.477  25.128  1.00  0.00     0.174 C 
HETATM   30  C1  UNL     1       0.888   6.545  24.413  1.00  0.00     0.034 C 
ENDBRANCH  28  29
ENDBRANCH  26  28
ENDBRANCH   1  26
BRANCH   1  31
HETATM   31  C5  UNL     1       2.876   9.158  22.079  1.00  0.00     0.015 C 
HETATM   32  C6  UNL     1       2.035   8.247  21.259  1.00  0.00     0.006 C 
ENDBRANCH   1  31
TORSDOF 6
ENDMDL
