MODEL 1
REMARK VINA RESULT: -7.984503730      0.000      0.000
REMARK  8 active torsions:
REMARK  status: ('A' for Active; 'I' for Inactive)
REMARK    1  A    between atoms: C2_2  and  N1_3 
REMARK    2  A    between atoms: C2_2  and  C8_12 
REMARK       I    between atoms: N1_3  and  C3_5 
REMARK    3  A    between atoms: C3_5  and  O2_7 
REMARK    4  A    between atoms: O2_7  and  C4_8 
REMARK       I    between atoms: C8_12  and  N2_14 
REMARK    5  A    between atoms: C15_21  and  C16_22 
REMARK    6  A    between atoms: C16_22  and  O5_24 
REMARK    7  A    between atoms: O5_24  and  C17_25 
REMARK    8  A    between atoms: C17_25  and  C18_26 
ROOT
HETATM    1  C8  UNL     1       4.466   9.066  22.499  1.00  0.00     0.243 C 
HETATM    2  O3  UNL     1       3.425   9.497  21.913  1.00  0.00    -0.271 OA
HETATM    3  N2  UNL     1       5.722   9.115  21.851  1.00  0.00    -0.330 N 
HETATM    4  C9  UNL     1       5.958   9.681  20.542  1.00  0.00     0.093 A 
HETATM    5  C10 UNL     1       5.664   8.832  19.360  1.00  0.00     0.033 A 
HETATM    6  C11 UNL     1       7.064   8.901  19.916  1.00  0.00     0.021 A 
HETATM    7  C12 UNL     1       7.497   7.945  21.004  1.00  0.00    -0.012 C 
HETATM    8  C13 UNL     1       8.994   7.859  20.950  1.00  0.00     0.018 C 
HETATM    9  C14 UNL     1       6.913   6.582  20.878  1.00  0.00     0.018 C 
HETATM   10  C15 UNL     1       6.981   8.594  22.285  1.00  0.00     0.195 C 
ENDROOT
BRANCH   1  11
HETATM   11  C2  UNL     1       4.289   8.512  23.873  1.00  0.00     0.175 C 
HETATM   12  C1  UNL     1       3.520   9.533  24.724  1.00  0.00     0.042 C 
BRANCH  11  13
HETATM   13  N1  UNL     1       3.394   7.376  23.773  1.00  0.00    -0.324 N 
HETATM   14  C3  UNL     1       3.890   6.053  23.671  1.00  0.00     0.362 C 
HETATM   15  O1  UNL     1       5.137   5.909  23.681  1.00  0.00    -0.238 OA
ATOM     16  H1  UNL     1       2.386   7.533  23.775  1.00  0.00     0.165 HD
BRANCH  14  17
HETATM   17  O2  UNL     1       3.114   4.919  23.558  1.00  0.00    -0.294 OA
BRANCH  17  18
HETATM   18  C4  UNL     1       3.016   4.295  22.290  1.00  0.00     0.061 C 
HETATM   19  C5  UNL     1       1.603   3.777  22.135  1.00  0.00     0.046 C 
HETATM   20  C6  UNL     1       3.332   5.201  21.155  1.00  0.00     0.046 C 
HETATM   21  C7  UNL     1       3.948   3.096  22.219  1.00  0.00     0.046 C 
ENDBRANCH  17  18
ENDBRANCH  14  17
ENDBRANCH  11  13
ENDBRANCH   1  11
BRANCH  10  22
HETATM   22  C16 UNL     1       7.934   9.571  22.822  1.00  0.00     0.283 C 
HETATM   23  O4  UNL     1       8.334  10.578  22.195  1.00  0.00    -0.263 OA
BRANCH  22  24
HETATM   24  O5  UNL     1       8.411   9.362  24.100  1.00  0.00    -0.315 OA
BRANCH  24  25
HETATM   25  C17 UNL     1       8.267   8.199  24.867  1.00  0.00     0.217 C 
BRANCH  25  26
HETATM   26  C18 UNL     1       9.566   7.908  25.522  1.00  0.00    -0.034 A 
HETATM   27  C19 UNL     1      10.708   8.439  24.997  1.00  0.00     0.012 A 
HETATM   28  C20 UNL     1      11.917   8.190  25.560  1.00  0.00     0.043 A 
HETATM   29  C21 UNL     1      12.046   7.391  26.682  1.00  0.00     0.116 A 
HETATM   30  F1  UNL     1      13.257   7.147  27.230  1.00  0.00    -0.206 F 
HETATM   31  C22 UNL     1      10.884   6.848  27.219  1.00  0.00     0.043 A 
HETATM   32  C23 UNL     1       9.673   7.114  26.633  1.00  0.00     0.012 A 
ENDBRANCH  25  26
ENDBRANCH  24  25
ENDBRANCH  22  24
ENDBRANCH  10  22
TORSDOF 8
ENDMDL
MODEL 2
REMARK VINA RESULT: -7.926047961      2.539      3.232
REMARK  8 active torsions:
REMARK  status: ('A' for Active; 'I' for Inactive)
REMARK    1  A    between atoms: C2_2  and  N1_3 
REMARK    2  A    between atoms: C2_2  and  C8_12 
REMARK       I    between atoms: N1_3  and  C3_5 
REMARK    3  A    between atoms: C3_5  and  O2_7 
REMARK    4  A    between atoms: O2_7  and  C4_8 
REMARK       I    between atoms: C8_12  and  N2_14 
REMARK    5  A    between atoms: C15_21  and  C16_22 
REMARK    6  A    between atoms: C16_22  and  O5_24 
REMARK    7  A    between atoms: O5_24  and  C17_25 
REMARK    8  A    between atoms: C17_25  and  C18_26 
ROOT
HETATM    1  C8  UNL     1       5.357   7.091  21.534  1.00  0.00     0.243 C 
HETATM    2  O3  UNL     1       4.337   7.449  20.867  1.00  0.00    -0.271 OA
HETATM    3  N2  UNL     1       6.319   8.046  21.936  1.00  0.00    -0.330 N 
HETATM    4  C9  UNL     1       6.227   9.468  21.691  1.00  0.00     0.093 A 
HETATM    5  C10 UNL     1       6.654   9.968  20.360  1.00  0.00     0.033 A 
HETATM    6  C11 UNL     1       7.617   9.977  21.520  1.00  0.00     0.021 A 
HETATM    7  C12 UNL     1       8.485   8.770  21.796  1.00  0.00    -0.012 C 
HETATM    8  C13 UNL     1       9.670   9.245  22.583  1.00  0.00     0.018 C 
HETATM    9  C14 UNL     1       8.949   8.065  20.570  1.00  0.00     0.018 C 
HETATM   10  C15 UNL     1       7.572   7.842  22.592  1.00  0.00     0.195 C 
ENDROOT
BRANCH   1  11
HETATM   11  C2  UNL     1       5.479   5.639  21.856  1.00  0.00     0.175 C 
HETATM   12  C1  UNL     1       4.264   5.212  22.693  1.00  0.00     0.042 C 
BRANCH  11  13
HETATM   13  N1  UNL     1       5.340   4.904  20.614  1.00  0.00    -0.324 N 
HETATM   14  C3  UNL     1       6.472   4.515  19.857  1.00  0.00     0.362 C 
HETATM   15  O1  UNL     1       7.598   4.826  20.315  1.00  0.00    -0.238 OA
ATOM     16  H1  UNL     1       4.407   4.663  20.279  1.00  0.00     0.165 HD
BRANCH  14  17
HETATM   17  O2  UNL     1       6.432   3.829  18.662  1.00  0.00    -0.294 OA
BRANCH  17  18
HETATM   18  C4  UNL     1       6.385   2.414  18.700  1.00  0.00     0.061 C 
HETATM   19  C5  UNL     1       6.631   1.902  17.298  1.00  0.00     0.046 C 
HETATM   20  C6  UNL     1       7.383   1.811  19.623  1.00  0.00     0.046 C 
HETATM   21  C7  UNL     1       5.002   1.943  19.118  1.00  0.00     0.046 C 
ENDBRANCH  17  18
ENDBRANCH  14  17
ENDBRANCH  11  13
ENDBRANCH   1  11
BRANCH  10  22
HETATM   22  C16 UNL     1       7.606   8.143  24.027  1.00  0.00     0.283 C 
HETATM   23  O4  UNL     1       6.925   9.041  24.571  1.00  0.00    -0.263 OA
BRANCH  22  24
HETATM   24  O5  UNL     1       8.442   7.384  24.820  1.00  0.00    -0.315 OA
BRANCH  24  25
HETATM   25  C17 UNL     1       8.823   7.659  26.140  1.00  0.00     0.217 C 
BRANCH  25  26
HETATM   26  C18 UNL     1      10.302   7.568  26.227  1.00  0.00    -0.034 A 
HETATM   27  C19 UNL     1      11.062   8.227  25.305  1.00  0.00     0.012 A 
HETATM   28  C20 UNL     1      12.417   8.162  25.343  1.00  0.00     0.043 A 
HETATM   29  C21 UNL     1      13.083   7.430  26.310  1.00  0.00     0.116 A 
HETATM   30  F1  UNL     1      14.433   7.370  26.334  1.00  0.00    -0.206 F 
HETATM   31  C22 UNL     1      12.310   6.758  27.250  1.00  0.00     0.043 A 
HETATM   32  C23 UNL     1      10.943   6.839  27.192  1.00  0.00     0.012 A 
ENDBRANCH  25  26
ENDBRANCH  24  25
ENDBRANCH  22  24
ENDBRANCH  10  22
TORSDOF 8
ENDMDL
MODEL 3
REMARK VINA RESULT: -7.804058215      4.273      7.185
REMARK  8 active torsions:
REMARK  status: ('A' for Active; 'I' for Inactive)
REMARK    1  A    between atoms: C2_2  and  N1_3 
REMARK    2  A    between atoms: C2_2  and  C8_12 
REMARK       I    between atoms: N1_3  and  C3_5 
REMARK    3  A    between atoms: C3_5  and  O2_7 
REMARK    4  A    between atoms: O2_7  and  C4_8 
REMARK       I    between atoms: C8_12  and  N2_14 
REMARK    5  A    between atoms: C15_21  and  C16_22 
REMARK    6  A    between atoms: C16_22  and  O5_24 
REMARK    7  A    between atoms: O5_24  and  C17_25 
REMARK    8  A    between atoms: C17_25  and  C18_26 
ROOT
HETATM    1  C8  UNL     1       6.105   6.733  20.577  1.00  0.00     0.243 C 
HETATM    2  O3  UNL     1       6.164   7.691  19.745  1.00  0.00    -0.271 OA
HETATM    3  N2  UNL     1       5.259   5.626  20.332  1.00  0.00    -0.330 N 
HETATM    4  C9  UNL     1       4.452   5.447  19.146  1.00  0.00     0.093 A 
HETATM    5  C10 UNL     1       3.140   6.140  19.091  1.00  0.00     0.033 A 
HETATM    6  C11 UNL     1       3.223   4.709  19.555  1.00  0.00     0.021 A 
HETATM    7  C12 UNL     1       3.455   4.395  21.016  1.00  0.00    -0.012 C 
HETATM    8  C13 UNL     1       2.942   3.007  21.260  1.00  0.00     0.018 C 
HETATM    9  C14 UNL     1       2.793   5.345  21.950  1.00  0.00     0.018 C 
HETATM   10  C15 UNL     1       4.969   4.509  21.176  1.00  0.00     0.195 C 
ENDROOT
BRANCH   1  11
HETATM   11  C2  UNL     1       6.953   6.843  21.799  1.00  0.00     0.175 C 
HETATM   12  C1  UNL     1       8.322   7.416  21.402  1.00  0.00     0.042 C 
BRANCH  11  13
HETATM   13  N1  UNL     1       6.366   7.863  22.646  1.00  0.00    -0.324 N 
HETATM   14  C3  UNL     1       5.592   7.521  23.782  1.00  0.00     0.362 C 
HETATM   15  O1  UNL     1       5.447   6.299  24.026  1.00  0.00    -0.238 OA
ATOM     16  H1  UNL     1       6.513   8.846  22.419  1.00  0.00     0.165 HD
BRANCH  14  17
HETATM   17  O2  UNL     1       4.986   8.422  24.632  1.00  0.00    -0.294 OA
BRANCH  17  18
HETATM   18  C4  UNL     1       3.633   8.765  24.396  1.00  0.00     0.061 C 
HETATM   19  C5  UNL     1       3.328  10.024  25.177  1.00  0.00     0.046 C 
HETATM   20  C6  UNL     1       3.318   8.991  22.960  1.00  0.00     0.046 C 
HETATM   21  C7  UNL     1       2.714   7.673  24.920  1.00  0.00     0.046 C 
ENDBRANCH  17  18
ENDBRANCH  14  17
ENDBRANCH  11  13
ENDBRANCH   1  11
BRANCH  10  22
HETATM   22  C16 UNL     1       5.648   3.253  20.841  1.00  0.00     0.283 C 
HETATM   23  O4  UNL     1       5.666   2.246  21.583  1.00  0.00    -0.263 OA
BRANCH  22  24
HETATM   24  O5  UNL     1       6.304   3.186  19.629  1.00  0.00    -0.315 OA
BRANCH  24  25
HETATM   25  C17 UNL     1       6.046   2.285  18.586  1.00  0.00     0.217 C 
BRANCH  25  26
HETATM   26  C18 UNL     1       7.293   1.531  18.303  1.00  0.00    -0.034 A 
HETATM   27  C19 UNL     1       7.372   0.784  17.164  1.00  0.00     0.012 A 
HETATM   28  C20 UNL     1       8.489   0.072  16.873  1.00  0.00     0.043 A 
HETATM   29  C21 UNL     1       9.590   0.070  17.711  1.00  0.00     0.116 A 
HETATM   30  F1  UNL     1      10.695  -0.647  17.411  1.00  0.00    -0.206 F 
HETATM   31  C22 UNL     1       9.511   0.830  18.872  1.00  0.00     0.043 A 
HETATM   32  C23 UNL     1       8.371   1.542  19.145  1.00  0.00     0.012 A 
ENDBRANCH  25  26
ENDBRANCH  24  25
ENDBRANCH  22  24
ENDBRANCH  10  22
TORSDOF 8
ENDMDL
MODEL 4
REMARK VINA RESULT: -7.773905143      4.126      7.672
REMARK  8 active torsions:
REMARK  status: ('A' for Active; 'I' for Inactive)
REMARK    1  A    between atoms: C2_2  and  N1_3 
REMARK    2  A    between atoms: C2_2  and  C8_12 
REMARK       I    between atoms: N1_3  and  C3_5 
REMARK    3  A    between atoms: C3_5  and  O2_7 
REMARK    4  A    between atoms: O2_7  and  C4_8 
REMARK       I    between atoms: C8_12  and  N2_14 
REMARK    5  A    between atoms: C15_21  and  C16_22 
REMARK    6  A    between atoms: C16_22  and  O5_24 
REMARK    7  A    between atoms: O5_24  and  C17_25 
REMARK    8  A    between atoms: C17_25  and  C18_26 
ROOT
HETATM    1  C8  UNL     1       3.989   6.777  20.594  1.00  0.00     0.243 C 
HETATM    2  O3  UNL     1       3.224   7.737  20.918  1.00  0.00    -0.271 OA
HETATM    3  N2  UNL     1       3.480   5.462  20.488  1.00  0.00    -0.330 N 
HETATM    4  C9  UNL     1       2.094   5.093  20.674  1.00  0.00     0.093 A 
HETATM    5  C10 UNL     1       1.613   4.897  22.064  1.00  0.00     0.033 A 
HETATM    6  C11 UNL     1       2.078   3.717  21.249  1.00  0.00     0.021 A 
HETATM    7  C12 UNL     1       3.533   3.309  21.263  1.00  0.00    -0.012 C 
HETATM    8  C13 UNL     1       3.594   1.865  20.863  1.00  0.00     0.018 C 
HETATM    9  C14 UNL     1       4.199   3.492  22.581  1.00  0.00     0.018 C 
HETATM   10  C15 UNL     1       4.181   4.240  20.242  1.00  0.00     0.195 C 
ENDROOT
BRANCH   1  11
HETATM   11  C2  UNL     1       5.422   7.108  20.344  1.00  0.00     0.175 C 
HETATM   12  C1  UNL     1       5.509   8.521  19.747  1.00  0.00     0.042 C 
BRANCH  11  13
HETATM   13  N1  UNL     1       6.075   7.219  21.633  1.00  0.00    -0.324 N 
HETATM   14  C3  UNL     1       7.463   6.975  21.781  1.00  0.00     0.362 C 
HETATM   15  O1  UNL     1       8.101   6.668  20.745  1.00  0.00    -0.238 OA
ATOM     16  H1  UNL     1       5.524   7.478  22.451  1.00  0.00     0.165 HD
BRANCH  14  17
HETATM   17  O2  UNL     1       8.161   7.043  22.968  1.00  0.00    -0.294 OA
BRANCH  17  18
HETATM   18  C4  UNL     1       8.279   8.301  23.606  1.00  0.00     0.061 C 
HETATM   19  C5  UNL     1       9.481   8.247  24.523  1.00  0.00     0.046 C 
HETATM   20  C6  UNL     1       8.438   9.437  22.659  1.00  0.00     0.046 C 
HETATM   21  C7  UNL     1       7.060   8.569  24.474  1.00  0.00     0.046 C 
ENDBRANCH  17  18
ENDBRANCH  14  17
ENDBRANCH  11  13
ENDBRANCH   1  11
BRANCH  10  22
HETATM   22  C16 UNL     1       4.087   3.705  18.880  1.00  0.00     0.283 C 
HETATM   23  O4  UNL     1       3.039   3.709  18.196  1.00  0.00    -0.263 OA
BRANCH  22  24
HETATM   24  O5  UNL     1       5.230   3.167  18.325  1.00  0.00    -0.315 OA
BRANCH  24  25
HETATM   25  C17 UNL     1       5.369   1.888  17.769  1.00  0.00     0.217 C 
BRANCH  25  26
HETATM   26  C18 UNL     1       6.775   1.449  17.956  1.00  0.00    -0.034 A 
HETATM   27  C19 UNL     1       7.433   1.799  19.098  1.00  0.00     0.012 A 
HETATM   28  C20 UNL     1       8.722   1.426  19.303  1.00  0.00     0.043 A 
HETATM   29  C21 UNL     1       9.420   0.681  18.370  1.00  0.00     0.116 A 
HETATM   30  F1  UNL     1      10.705   0.320  18.585  1.00  0.00    -0.206 F 
HETATM   31  C22 UNL     1       8.751   0.323  17.206  1.00  0.00     0.043 A 
HETATM   32  C23 UNL     1       7.449   0.711  17.020  1.00  0.00     0.012 A 
ENDBRANCH  25  26
ENDBRANCH  24  25
ENDBRANCH  22  24
ENDBRANCH  10  22
TORSDOF 8
ENDMDL
MODEL 5
REMARK VINA RESULT: -7.767000121      0.772      1.245
REMARK  8 active torsions:
REMARK  status: ('A' for Active; 'I' for Inactive)
REMARK    1  A    between atoms: C2_2  and  N1_3 
REMARK    2  A    between atoms: C2_2  and  C8_12 
REMARK       I    between atoms: N1_3  and  C3_5 
REMARK    3  A    between atoms: C3_5  and  O2_7 
REMARK    4  A    between atoms: O2_7  and  C4_8 
REMARK       I    between atoms: C8_12  and  N2_14 
REMARK    5  A    between atoms: C15_21  and  C16_22 
REMARK    6  A    between atoms: C16_22  and  O5_24 
REMARK    7  A    between atoms: O5_24  and  C17_25 
REMARK    8  A    between atoms: C17_25  and  C18_26 
ROOT
HETATM    1  C8  UNL     1       4.447   8.978  22.643  1.00  0.00     0.243 C 
HETATM    2  O3  UNL     1       3.395   9.416  22.080  1.00  0.00    -0.271 OA
HETATM    3  N2  UNL     1       5.691   9.035  21.975  1.00  0.00    -0.330 N 
HETATM    4  C9  UNL     1       5.905   9.615  20.668  1.00  0.00     0.093 A 
HETATM    5  C10 UNL     1       5.592   8.780  19.482  1.00  0.00     0.033 A 
HETATM    6  C11 UNL     1       7.000   8.843  20.016  1.00  0.00     0.021 A 
HETATM    7  C12 UNL     1       7.452   7.875  21.085  1.00  0.00    -0.012 C 
HETATM    8  C13 UNL     1       8.948   7.790  21.005  1.00  0.00     0.018 C 
HETATM    9  C14 UNL     1       6.866   6.513  20.954  1.00  0.00     0.018 C 
HETATM   10  C15 UNL     1       6.958   8.510  22.382  1.00  0.00     0.195 C 
ENDROOT
BRANCH   1  11
HETATM   11  C2  UNL     1       4.293   8.409  24.014  1.00  0.00     0.175 C 
HETATM   12  C1  UNL     1       3.871   9.532  24.973  1.00  0.00     0.042 C 
BRANCH  11  13
HETATM   13  N1  UNL     1       3.156   7.510  23.987  1.00  0.00    -0.324 N 
HETATM   14  C3  UNL     1       3.307   6.141  23.657  1.00  0.00     0.362 C 
HETATM   15  O1  UNL     1       4.468   5.741  23.399  1.00  0.00    -0.238 OA
ATOM     16  H1  UNL     1       2.229   7.871  24.211  1.00  0.00     0.165 HD
BRANCH  14  17
HETATM   17  O2  UNL     1       2.282   5.220  23.594  1.00  0.00    -0.294 OA
BRANCH  17  18
HETATM   18  C4  UNL     1       1.390   5.282  22.496  1.00  0.00     0.061 C 
HETATM   19  C5  UNL     1       0.144   6.011  22.950  1.00  0.00     0.046 C 
HETATM   20  C6  UNL     1       1.955   5.974  21.308  1.00  0.00     0.046 C 
HETATM   21  C7  UNL     1       0.969   3.882  22.079  1.00  0.00     0.046 C 
ENDBRANCH  17  18
ENDBRANCH  14  17
ENDBRANCH  11  13
ENDBRANCH   1  11
BRANCH  10  22
HETATM   22  C16 UNL     1       7.919   9.482  22.913  1.00  0.00     0.283 C 
HETATM   23  O4  UNL     1       8.349  10.466  22.271  1.00  0.00    -0.263 OA
BRANCH  22  24
HETATM   24  O5  UNL     1       8.370   9.293  24.204  1.00  0.00    -0.315 OA
BRANCH  24  25
HETATM   25  C17 UNL     1       8.293   8.112  24.953  1.00  0.00     0.217 C 
BRANCH  25  26
HETATM   26  C18 UNL     1       9.624   7.855  25.558  1.00  0.00    -0.034 A 
HETATM   27  C19 UNL     1       9.709   7.057  26.661  1.00  0.00     0.012 A 
HETATM   28  C20 UNL     1      10.905   6.806  27.250  1.00  0.00     0.043 A 
HETATM   29  C21 UNL     1      12.082   7.344  26.765  1.00  0.00     0.116 A 
HETATM   30  F1  UNL     1      13.267   7.090  27.364  1.00  0.00    -0.206 F 
HETATM   31  C22 UNL     1      11.998   8.158  25.641  1.00  0.00     0.043 A 
HETATM   32  C23 UNL     1      10.778   8.398  25.062  1.00  0.00     0.012 A 
ENDBRANCH  25  26
ENDBRANCH  24  25
ENDBRANCH  22  24
ENDBRANCH  10  22
TORSDOF 8
ENDMDL
