MODEL 1
REMARK VINA RESULT: -7.699939658      0.000      0.000
REMARK  6 active torsions:
REMARK  status: ('A' for Active; 'I' for Inactive)
REMARK    1  A    between atoms: C2_2  and  C3_4 
REMARK    2  A    between atoms: C3_4  and  N1_5 
REMARK    3  A    between atoms: C6_8  and  N2_9 
REMARK    4  A    between atoms: C9_16  and  N5_17 
REMARK       I    between atoms: N6_21  and  C13_22 
REMARK       I    between atoms: C13_22  and  N7_24 
REMARK    5  A    between atoms: N7_24  and  C14_26 
REMARK    6  A    between atoms: C18_30  and  N8_31 
ROOT
HETATM    1  N2  UNL     1       7.289   8.016  22.120  1.00  0.00    -0.271 N 
HETATM    2  N3  UNL     1       8.092   7.648  21.149  1.00  0.00    -0.239 N 
ATOM      3  H3  UNL     1       8.902   8.183  20.838  1.00  0.00     0.208 HD
HETATM    4  N4  UNL     1       7.715   6.498  20.625  1.00  0.00    -0.284 N 
ATOM      5  H4  UNL     1       8.172   6.003  19.860  1.00  0.00     0.188 HD
HETATM    6  C7  UNL     1       6.620   6.101  21.287  1.00  0.00     0.080 A 
HETATM    7  C8  UNL     1       5.848   4.961  21.117  1.00  0.00     0.062 A 
HETATM    8  C9  UNL     1       4.750   4.749  21.916  1.00  0.00     0.033 A 
HETATM    9  C22 UNL     1       4.471   5.719  22.879  1.00  0.00     0.032 A 
HETATM   10  C23 UNL     1       5.244   6.846  23.039  1.00  0.00     0.036 A 
HETATM   11  C24 UNL     1       6.353   7.053  22.224  1.00  0.00     0.081 A 
ENDROOT
BRANCH   8  12
HETATM   12  N5  UNL     1       3.937   3.588  21.806  1.00  0.00    -0.364 N 
HETATM   13  C10 UNL     1       2.690   3.533  21.113  1.00  0.00     0.126 C 
HETATM   14  C11 UNL     1       2.586   2.394  20.115  1.00  0.00     0.040 C 
HETATM   15  C12 UNL     1       3.166   1.131  20.748  1.00  0.00     0.131 C 
HETATM   16  N6  UNL     1       3.419   1.356  22.146  1.00  0.00    -0.318 N 
HETATM   17  C13 UNL     1       2.742   0.626  23.140  1.00  0.00     0.320 C 
HETATM   18  C21 UNL     1       4.404   2.360  22.469  1.00  0.00     0.254 C 
HETATM   19  O1  UNL     1       3.001   0.905  24.371  1.00  0.00    -0.247 OA
HETATM   20  N7  UNL     1       1.797  -0.396  22.908  1.00  0.00    -0.336 N 
ATOM     21  H7  UNL     1       1.554  -0.666  21.955  1.00  0.00     0.164 HD
BRANCH  20  22
HETATM   22  C14 UNL     1       1.179  -1.055  24.028  1.00  0.00     0.119 C 
HETATM   23  C15 UNL     1       1.106  -2.545  23.617  1.00  0.00     0.027 C 
HETATM   24  C16 UNL     1      -0.090  -3.087  24.322  1.00  0.00     0.004 C 
HETATM   25  C17 UNL     1      -0.691  -1.948  25.078  1.00  0.00     0.038 C 
HETATM   26  C18 UNL     1      -0.244  -0.709  24.285  1.00  0.00     0.244 C 
BRANCH  26  27
HETATM   27  N8  UNL     1      -0.465   0.408  25.133  1.00  0.00     0.086 N 
HETATM   28  C19 UNL     1      -1.418   0.040  26.159  1.00  0.00     0.310 C 
HETATM   29  C20 UNL     1      -0.935   1.599  24.493  1.00  0.00     0.310 C 
ENDBRANCH  26  27
ENDBRANCH  20  22
ENDBRANCH   8  12
BRANCH   1  30
HETATM   30  C6  UNL     1       7.332   9.181  22.967  1.00  0.00     0.113 C 
HETATM   31  C5  UNL     1       6.803   8.935  24.354  1.00  0.00     0.057 C 
HETATM   32  C4  UNL     1       7.751   8.173  25.218  1.00  0.00     0.274 C 
HETATM   33  N1  UNL     1       9.092   8.723  25.223  1.00  0.00     0.091 N 
HETATM   34  C26 UNL     1       9.595   9.054  23.943  1.00  0.00     0.274 C 
HETATM   35  C25 UNL     1       8.670   9.805  23.034  1.00  0.00     0.057 C 
BRANCH  33  36
HETATM   36  C3  UNL     1       9.921   7.750  25.873  1.00  0.00     0.308 C 
BRANCH  36  37
HETATM   37  C2  UNL     1      11.233   8.220  26.385  1.00  0.00     0.194 C 
HETATM   38  C1  UNL     1      11.613   7.253  27.532  1.00  0.00     0.046 C 
HETATM   39  F1  UNL     1      12.278   8.064  25.470  1.00  0.00    -0.248 F 
ENDBRANCH  36  37
ENDBRANCH  33  36
ENDBRANCH   1  30
TORSDOF 6
ENDMDL
MODEL 2
REMARK VINA RESULT: -7.407425040      1.496      1.684
REMARK  6 active torsions:
REMARK  status: ('A' for Active; 'I' for Inactive)
REMARK    1  A    between atoms: C2_2  and  C3_4 
REMARK    2  A    between atoms: C3_4  and  N1_5 
REMARK    3  A    between atoms: C6_8  and  N2_9 
REMARK    4  A    between atoms: C9_16  and  N5_17 
REMARK       I    between atoms: N6_21  and  C13_22 
REMARK       I    between atoms: C13_22  and  N7_24 
REMARK    5  A    between atoms: N7_24  and  C14_26 
REMARK    6  A    between atoms: C18_30  and  N8_31 
ROOT
HETATM    1  N2  UNL     1       8.324   8.367  22.717  1.00  0.00    -0.271 N 
HETATM    2  N3  UNL     1       9.216   8.185  21.771  1.00  0.00    -0.239 N 
ATOM      3  H3  UNL     1      10.063   8.743  21.664  1.00  0.00     0.208 HD
HETATM    4  N4  UNL     1       8.875   7.190  20.975  1.00  0.00    -0.284 N 
ATOM      5  H4  UNL     1       9.400   6.854  20.168  1.00  0.00     0.188 HD
HETATM    6  C7  UNL     1       7.712   6.704  21.425  1.00  0.00     0.080 A 
HETATM    7  C8  UNL     1       6.941   5.658  20.937  1.00  0.00     0.062 A 
HETATM    8  C9  UNL     1       5.764   5.322  21.561  1.00  0.00     0.033 A 
HETATM    9  C22 UNL     1       5.404   6.072  22.680  1.00  0.00     0.032 A 
HETATM   10  C23 UNL     1       6.176   7.107  23.156  1.00  0.00     0.036 A 
HETATM   11  C24 UNL     1       7.366   7.441  22.518  1.00  0.00     0.081 A 
ENDROOT
BRANCH   8  12
HETATM   12  N5  UNL     1       4.946   4.245  21.122  1.00  0.00    -0.364 N 
HETATM   13  C10 UNL     1       3.869   4.369  20.193  1.00  0.00     0.126 C 
HETATM   14  C11 UNL     1       3.930   3.385  19.039  1.00  0.00     0.040 C 
HETATM   15  C12 UNL     1       4.316   2.012  19.583  1.00  0.00     0.131 C 
HETATM   16  N6  UNL     1       4.283   2.028  21.021  1.00  0.00    -0.318 N 
HETATM   17  C13 UNL     1       3.386   1.218  21.742  1.00  0.00     0.320 C 
HETATM   18  C21 UNL     1       5.218   2.910  21.678  1.00  0.00     0.254 C 
HETATM   19  O1  UNL     1       3.394   1.310  23.028  1.00  0.00    -0.247 OA
HETATM   20  N7  UNL     1       2.470   0.303  21.180  1.00  0.00    -0.336 N 
ATOM     21  H7  UNL     1       2.420   0.182  20.168  1.00  0.00     0.164 HD
BRANCH  20  22
HETATM   22  C14 UNL     1       1.608  -0.456  22.045  1.00  0.00     0.119 C 
HETATM   23  C15 UNL     1       1.699  -1.907  21.515  1.00  0.00     0.027 C 
HETATM   24  C16 UNL     1       0.381  -2.526  21.839  1.00  0.00     0.004 C 
HETATM   25  C17 UNL     1      -0.436  -1.463  22.498  1.00  0.00     0.038 C 
HETATM   26  C18 UNL     1       0.156  -0.155  21.948  1.00  0.00     0.244 C 
BRANCH  26  27
HETATM   27  N8  UNL     1      -0.319   0.883  22.793  1.00  0.00     0.086 N 
HETATM   28  C19 UNL     1       0.068   0.593  24.157  1.00  0.00     0.310 C 
HETATM   29  C20 UNL     1      -1.731   1.117  22.767  1.00  0.00     0.310 C 
ENDBRANCH  26  27
ENDBRANCH  20  22
ENDBRANCH   8  12
BRANCH   1  30
HETATM   30  C6  UNL     1       8.300   9.320  23.798  1.00  0.00     0.113 C 
HETATM   31  C5  UNL     1       7.888   8.721  25.116  1.00  0.00     0.057 C 
HETATM   32  C4  UNL     1       8.961   7.905  25.752  1.00  0.00     0.274 C 
HETATM   33  N1  UNL     1      10.236   8.591  25.827  1.00  0.00     0.091 N 
HETATM   34  C26 UNL     1      10.621   9.245  24.633  1.00  0.00     0.274 C 
HETATM   35  C25 UNL     1       9.567  10.063  23.949  1.00  0.00     0.057 C 
BRANCH  33  36
HETATM   36  C3  UNL     1      11.200   7.602  26.214  1.00  0.00     0.308 C 
BRANCH  36  37
HETATM   37  C2  UNL     1      12.620   8.033  26.265  1.00  0.00     0.194 C 
HETATM   38  C1  UNL     1      13.264   7.236  27.425  1.00  0.00     0.046 C 
HETATM   39  F1  UNL     1      13.364   7.640  25.149  1.00  0.00    -0.248 F 
ENDBRANCH  36  37
ENDBRANCH  33  36
ENDBRANCH   1  30
TORSDOF 6
ENDMDL
MODEL 3
REMARK VINA RESULT: -7.393352072      6.013      8.892
REMARK  6 active torsions:
REMARK  status: ('A' for Active; 'I' for Inactive)
REMARK    1  A    between atoms: C2_2  and  C3_4 
REMARK    2  A    between atoms: C3_4  and  N1_5 
REMARK    3  A    between atoms: C6_8  and  N2_9 
REMARK    4  A    between atoms: C9_16  and  N5_17 
REMARK       I    between atoms: N6_21  and  C13_22 
REMARK       I    between atoms: C13_22  and  N7_24 
REMARK    5  A    between atoms: N7_24  and  C14_26 
REMARK    6  A    between atoms: C18_30  and  N8_31 
ROOT
HETATM    1  N2  UNL     1       0.660   8.850  25.203  1.00  0.00    -0.271 N 
HETATM    2  N3  UNL     1       1.335   9.956  25.419  1.00  0.00    -0.239 N 
ATOM      3  H3  UNL     1       1.015  10.718  26.015  1.00  0.00     0.208 HD
HETATM    4  N4  UNL     1       2.481   9.953  24.766  1.00  0.00    -0.284 N 
ATOM      5  H4  UNL     1       3.180  10.695  24.769  1.00  0.00     0.188 HD
HETATM    6  C7  UNL     1       2.553   8.795  24.097  1.00  0.00     0.080 A 
HETATM    7  C8  UNL     1       3.555   8.313  23.267  1.00  0.00     0.062 A 
HETATM    8  C9  UNL     1       3.423   7.081  22.673  1.00  0.00     0.033 A 
HETATM    9  C22 UNL     1       2.257   6.367  22.950  1.00  0.00     0.032 A 
HETATM   10  C23 UNL     1       1.270   6.854  23.776  1.00  0.00     0.036 A 
HETATM   11  C24 UNL     1       1.412   8.103  24.372  1.00  0.00     0.081 A 
ENDROOT
BRANCH   8  12
HETATM   12  N5  UNL     1       4.426   6.524  21.834  1.00  0.00    -0.364 N 
HETATM   13  C10 UNL     1       4.759   7.011  20.533  1.00  0.00     0.126 C 
HETATM   14  C11 UNL     1       6.241   7.267  20.328  1.00  0.00     0.040 C 
HETATM   15  C12 UNL     1       7.029   6.111  20.937  1.00  0.00     0.131 C 
HETATM   16  N6  UNL     1       6.133   5.049  21.309  1.00  0.00    -0.318 N 
HETATM   17  C13 UNL     1       6.208   3.781  20.704  1.00  0.00     0.320 C 
HETATM   18  C21 UNL     1       5.164   5.353  22.334  1.00  0.00     0.254 C 
HETATM   19  O1  UNL     1       5.351   2.889  21.068  1.00  0.00    -0.247 OA
HETATM   20  N7  UNL     1       7.148   3.391  19.725  1.00  0.00    -0.336 N 
ATOM     21  H7  UNL     1       7.855   4.051  19.400  1.00  0.00     0.164 HD
BRANCH  20  22
HETATM   22  C14 UNL     1       7.101   2.057  19.191  1.00  0.00     0.119 C 
HETATM   23  C15 UNL     1       8.504   1.470  19.474  1.00  0.00     0.027 C 
HETATM   24  C16 UNL     1       8.745   0.487  18.380  1.00  0.00     0.004 C 
HETATM   25  C17 UNL     1       7.544   0.533  17.494  1.00  0.00     0.038 C 
HETATM   26  C18 UNL     1       6.985   1.949  17.713  1.00  0.00     0.244 C 
BRANCH  26  27
HETATM   27  N8  UNL     1       5.663   1.940  17.195  1.00  0.00     0.086 N 
HETATM   28  C19 UNL     1       4.822   1.144  18.063  1.00  0.00     0.310 C 
HETATM   29  C20 UNL     1       5.516   1.451  15.858  1.00  0.00     0.310 C 
ENDBRANCH  26  27
ENDBRANCH  20  22
ENDBRANCH   8  12
BRANCH   1  30
HETATM   30  C6  UNL     1      -0.617   8.428  25.719  1.00  0.00     0.113 C 
HETATM   31  C5  UNL     1      -1.230   9.410  26.681  1.00  0.00     0.057 C 
HETATM   32  C4  UNL     1      -1.807  10.610  26.010  1.00  0.00     0.274 C 
HETATM   33  N1  UNL     1      -2.692  10.282  24.911  1.00  0.00     0.091 N 
HETATM   34  C26 UNL     1      -2.192   9.295  24.029  1.00  0.00     0.274 C 
HETATM   35  C25 UNL     1      -1.587   8.079  24.662  1.00  0.00     0.057 C 
BRANCH  33  36
HETATM   36  C3  UNL     1      -2.949  11.514  24.222  1.00  0.00     0.308 C 
BRANCH  36  37
HETATM   37  C2  UNL     1      -1.819  12.471  24.116  1.00  0.00     0.194 C 
HETATM   38  C1  UNL     1      -1.712  12.838  22.616  1.00  0.00     0.046 C 
HETATM   39  F1  UNL     1      -2.067  13.699  24.734  1.00  0.00    -0.248 F 
ENDBRANCH  36  37
ENDBRANCH  33  36
ENDBRANCH   1  30
TORSDOF 6
ENDMDL
MODEL 4
REMARK VINA RESULT: -7.334726785      1.365      1.682
REMARK  6 active torsions:
REMARK  status: ('A' for Active; 'I' for Inactive)
REMARK    1  A    between atoms: C2_2  and  C3_4 
REMARK    2  A    between atoms: C3_4  and  N1_5 
REMARK    3  A    between atoms: C6_8  and  N2_9 
REMARK    4  A    between atoms: C9_16  and  N5_17 
REMARK       I    between atoms: N6_21  and  C13_22 
REMARK       I    between atoms: C13_22  and  N7_24 
REMARK    5  A    between atoms: N7_24  and  C14_26 
REMARK    6  A    between atoms: C18_30  and  N8_31 
ROOT
HETATM    1  N2  UNL     1       7.049   7.784  21.964  1.00  0.00    -0.271 N 
HETATM    2  N3  UNL     1       7.842   7.308  21.031  1.00  0.00    -0.239 N 
ATOM      3  H3  UNL     1       8.662   7.795  20.670  1.00  0.00     0.208 HD
HETATM    4  N4  UNL     1       7.441   6.121  20.621  1.00  0.00    -0.284 N 
ATOM      5  H4  UNL     1       7.886   5.546  19.906  1.00  0.00     0.188 HD
HETATM    6  C7  UNL     1       6.341   5.811  21.319  1.00  0.00     0.080 A 
HETATM    7  C8  UNL     1       5.545   4.675  21.260  1.00  0.00     0.062 A 
HETATM    8  C9  UNL     1       4.446   4.563  22.077  1.00  0.00     0.033 A 
HETATM    9  C22 UNL     1       4.189   5.626  22.942  1.00  0.00     0.032 A 
HETATM   10  C23 UNL     1       4.984   6.748  22.993  1.00  0.00     0.036 A 
HETATM   11  C24 UNL     1       6.095   6.854  22.161  1.00  0.00     0.081 A 
ENDROOT
BRANCH   8  12
HETATM   12  N5  UNL     1       3.610   3.413  22.079  1.00  0.00    -0.364 N 
HETATM   13  C10 UNL     1       3.022   2.834  20.914  1.00  0.00     0.126 C 
HETATM   14  C11 UNL     1       3.260   1.341  20.777  1.00  0.00     0.040 C 
HETATM   15  C12 UNL     1       3.062   0.684  22.141  1.00  0.00     0.131 C 
HETATM   16  N6  UNL     1       2.502   1.633  23.065  1.00  0.00    -0.318 N 
HETATM   17  C13 UNL     1       1.231   1.439  23.636  1.00  0.00     0.320 C 
HETATM   18  C21 UNL     1       3.314   2.785  23.377  1.00  0.00     0.254 C 
HETATM   19  O1  UNL     1       0.784   2.348  24.432  1.00  0.00    -0.247 OA
HETATM   20  N7  UNL     1       0.393   0.324  23.415  1.00  0.00    -0.336 N 
ATOM     21  H7  UNL     1       0.694  -0.431  22.799  1.00  0.00     0.164 HD
BRANCH  20  22
HETATM   22  C14 UNL     1      -0.888   0.263  24.066  1.00  0.00     0.119 C 
HETATM   23  C15 UNL     1      -0.776  -0.930  25.045  1.00  0.00     0.027 C 
HETATM   24  C16 UNL     1      -2.160  -1.469  25.165  1.00  0.00     0.004 C 
HETATM   25  C17 UNL     1      -3.020  -0.638  24.270  1.00  0.00     0.038 C 
HETATM   26  C18 UNL     1      -2.040  -0.117  23.206  1.00  0.00     0.244 C 
BRANCH  26  27
HETATM   27  N8  UNL     1      -2.700   0.954  22.547  1.00  0.00     0.086 N 
HETATM   28  C19 UNL     1      -2.202   1.052  21.191  1.00  0.00     0.310 C 
HETATM   29  C20 UNL     1      -2.576   2.241  23.162  1.00  0.00     0.310 C 
ENDBRANCH  26  27
ENDBRANCH  20  22
ENDBRANCH   8  12
BRANCH   1  30
HETATM   30  C6  UNL     1       7.117   9.023  22.695  1.00  0.00     0.113 C 
HETATM   31  C5  UNL     1       6.610   8.916  24.108  1.00  0.00     0.057 C 
HETATM   32  C4  UNL     1       7.566   8.229  25.025  1.00  0.00     0.274 C 
HETATM   33  N1  UNL     1       8.911   8.763  24.956  1.00  0.00     0.091 N 
HETATM   34  C26 UNL     1       9.395   8.965  23.642  1.00  0.00     0.274 C 
HETATM   35  C25 UNL     1       8.462   9.636  22.681  1.00  0.00     0.057 C 
BRANCH  33  36
HETATM   36  C3  UNL     1       9.742   7.846  25.683  1.00  0.00     0.308 C 
BRANCH  36  37
HETATM   37  C2  UNL     1      11.035   8.371  26.190  1.00  0.00     0.194 C 
HETATM   38  C1  UNL     1      11.435   7.448  27.366  1.00  0.00     0.046 C 
HETATM   39  F1  UNL     1      12.091   8.222  25.287  1.00  0.00    -0.248 F 
ENDBRANCH  36  37
ENDBRANCH  33  36
ENDBRANCH   1  30
TORSDOF 6
ENDMDL
MODEL 5
REMARK VINA RESULT: -7.299654309      3.152      4.896
REMARK  6 active torsions:
REMARK  status: ('A' for Active; 'I' for Inactive)
REMARK    1  A    between atoms: C2_2  and  C3_4 
REMARK    2  A    between atoms: C3_4  and  N1_5 
REMARK    3  A    between atoms: C6_8  and  N2_9 
REMARK    4  A    between atoms: C9_16  and  N5_17 
REMARK       I    between atoms: N6_21  and  C13_22 
REMARK       I    between atoms: C13_22  and  N7_24 
REMARK    5  A    between atoms: N7_24  and  C14_26 
REMARK    6  A    between atoms: C18_30  and  N8_31 
ROOT
HETATM    1  N2  UNL     1       7.708   8.202  22.318  1.00  0.00    -0.271 N 
HETATM    2  N3  UNL     1       8.618   8.056  21.383  1.00  0.00    -0.239 N 
ATOM      3  H3  UNL     1       9.402   8.692  21.239  1.00  0.00     0.208 HD
HETATM    4  N4  UNL     1       8.387   6.983  20.652  1.00  0.00    -0.284 N 
ATOM      5  H4  UNL     1       8.948   6.654  19.867  1.00  0.00     0.188 HD
HETATM    6  C7  UNL     1       7.280   6.405  21.135  1.00  0.00     0.080 A 
HETATM    7  C8  UNL     1       6.626   5.255  20.716  1.00  0.00     0.062 A 
HETATM    8  C9  UNL     1       5.487   4.837  21.363  1.00  0.00     0.033 A 
HETATM    9  C22 UNL     1       5.046   5.614  22.434  1.00  0.00     0.032 A 
HETATM   10  C23 UNL     1       5.702   6.753  22.841  1.00  0.00     0.036 A 
HETATM   11  C24 UNL     1       6.853   7.170  22.180  1.00  0.00     0.081 A 
ENDROOT
BRANCH   8  12
HETATM   12  N5  UNL     1       4.790   3.654  20.995  1.00  0.00    -0.364 N 
HETATM   13  C10 UNL     1       5.137   2.339  21.429  1.00  0.00     0.126 C 
HETATM   14  C11 UNL     1       3.977   1.556  22.019  1.00  0.00     0.040 C 
HETATM   15  C12 UNL     1       2.742   1.774  21.149  1.00  0.00     0.131 C 
HETATM   16  N6  UNL     1       3.111   2.458  19.939  1.00  0.00    -0.318 N 
HETATM   17  C13 UNL     1       2.954   1.853  18.678  1.00  0.00     0.320 C 
HETATM   18  C21 UNL     1       3.639   3.793  20.088  1.00  0.00     0.254 C 
HETATM   19  O1  UNL     1       3.335   2.518  17.641  1.00  0.00    -0.247 OA
HETATM   20  N7  UNL     1       2.411   0.572  18.443  1.00  0.00    -0.336 N 
ATOM     21  H7  UNL     1       2.087  -0.000  19.223  1.00  0.00     0.164 HD
BRANCH  20  22
HETATM   22  C14 UNL     1       2.318   0.079  17.095  1.00  0.00     0.119 C 
HETATM   23  C15 UNL     1       1.068  -0.832  17.094  1.00  0.00     0.027 C 
HETATM   24  C16 UNL     1       1.337  -1.866  16.055  1.00  0.00     0.004 C 
HETATM   25  C17 UNL     1       2.696  -1.574  15.508  1.00  0.00     0.038 C 
HETATM   26  C18 UNL     1       3.402  -0.840  16.660  1.00  0.00     0.244 C 
BRANCH  26  27
HETATM   27  N8  UNL     1       4.548  -0.220  16.094  1.00  0.00     0.086 N 
HETATM   28  C19 UNL     1       4.152   0.509  14.908  1.00  0.00     0.310 C 
HETATM   29  C20 UNL     1       5.625  -1.096  15.743  1.00  0.00     0.310 C 
ENDBRANCH  26  27
ENDBRANCH  20  22
ENDBRANCH   8  12
BRANCH   1  30
HETATM   30  C6  UNL     1       7.579   9.213  23.336  1.00  0.00     0.113 C 
HETATM   31  C5  UNL     1       7.074   8.680  24.650  1.00  0.00     0.057 C 
HETATM   32  C4  UNL     1       8.108   7.927  25.416  1.00  0.00     0.274 C 
HETATM   33  N1  UNL     1       9.359   8.645  25.551  1.00  0.00     0.091 N 
HETATM   34  C26 UNL     1       9.826   9.240  24.355  1.00  0.00     0.274 C 
HETATM   35  C25 UNL     1       8.816   9.993  23.545  1.00  0.00     0.057 C 
BRANCH  33  36
HETATM   36  C3  UNL     1      10.308   7.702  26.070  1.00  0.00     0.308 C 
BRANCH  36  37
HETATM   37  C2  UNL     1      11.681   8.205  26.326  1.00  0.00     0.194 C 
HETATM   38  C1  UNL     1      12.265   7.296  27.435  1.00  0.00     0.046 C 
HETATM   39  F1  UNL     1      12.556   8.012  25.254  1.00  0.00    -0.248 F 
ENDBRANCH  36  37
ENDBRANCH  33  36
ENDBRANCH   1  30
TORSDOF 6
ENDMDL
