MODEL 1
REMARK VINA RESULT: -6.405068841      0.000      0.000
REMARK  7 active torsions:
REMARK  status: ('A' for Active; 'I' for Inactive)
REMARK    1  A    between atoms: C6_9  and  N1_10 
REMARK    2  A    between atoms: N1_10  and  C7_12 
REMARK    3  A    between atoms: C10_15  and  N2_16 
REMARK    4  A    between atoms: N2_16  and  C11_17 
REMARK    5  A    between atoms: N2_16  and  C13_20 
REMARK    6  A    between atoms: C11_17  and  C12_18 
REMARK    7  A    between atoms: C13_20  and  C14_21 
ROOT
HETATM    1  C7  UNL     1       5.901  37.882  77.449  1.00  0.00     0.082 C 
HETATM    2  C8  UNL     1       6.898  37.696  78.554  1.00  0.00     0.027 C 
HETATM    3  C9  UNL     1       8.166  36.978  78.054  1.00  0.00     0.027 C 
HETATM    4  C10 UNL     1       7.674  35.808  77.252  1.00  0.00     0.083 C 
HETATM    5  C15 UNL     1       7.031  36.287  75.970  1.00  0.00     0.027 C 
HETATM    6  C16 UNL     1       6.666  37.740  76.122  1.00  0.00     0.027 C 
ENDROOT
BRANCH   1   7
HETATM    7  N1  UNL     1       5.241  39.164  77.485  1.00  0.00    -0.383 N 
ATOM      8  H1  UNL     1       5.542  39.892  76.837  1.00  0.00     0.160 HD
BRANCH   7   9
HETATM    9  C6  UNL     1       4.203  39.440  78.379  1.00  0.00     0.070 A 
HETATM   10  C1  UNL     1       3.863  40.776  78.562  1.00  0.00     0.160 A 
HETATM   11  F1  UNL     1       4.527  41.758  77.901  1.00  0.00    -0.202 F 
HETATM   12  C2  UNL     1       2.848  41.125  79.411  1.00  0.00     0.053 A 
HETATM   13 BR1  UNL     1       2.388  42.977  79.656  1.00  0.00    -0.048 Br
HETATM   14  C3  UNL     1       2.131  40.168  80.112  1.00  0.00     0.041 A 
HETATM   15  C4  UNL     1       2.473  38.851  79.925  1.00  0.00     0.014 A 
HETATM   16 BR2  UNL     1       1.532  37.488  80.866  1.00  0.00    -0.051 Br
HETATM   17  C5  UNL     1       3.503  38.499  79.063  1.00  0.00     0.051 A 
ENDBRANCH   7   9
ENDBRANCH   1   7
BRANCH   4  18
HETATM   18  N2  UNL     1       8.551  34.751  77.143  1.00  0.00    -0.387 N 
BRANCH  18  19
HETATM   19  C11 UNL     1       8.233  33.460  76.769  1.00  0.00     0.073 C 
BRANCH  19  20
HETATM   20  C12 UNL     1       8.683  32.957  75.423  1.00  0.00     0.159 C 
HETATM   21 CL1  UNL     1       7.311  32.611  74.347  1.00  0.00    -0.125 Cl
ENDBRANCH  19  20
ENDBRANCH  18  19
BRANCH  18  22
HETATM   22  C13 UNL     1       9.897  34.969  77.605  1.00  0.00     0.137 C 
BRANCH  22  23
HETATM   23  C14 UNL     1      10.389  33.982  78.607  1.00  0.00     0.134 C 
HETATM   24 CL2  UNL     1       9.538  34.310  80.144  1.00  0.00    -0.129 Cl
ENDBRANCH  22  23
ENDBRANCH  18  22
ENDBRANCH   4  18
TORSDOF 7
ENDMDL
MODEL 2
REMARK VINA RESULT: -6.400216490      0.100      2.300
REMARK  7 active torsions:
REMARK  status: ('A' for Active; 'I' for Inactive)
REMARK    1  A    between atoms: C6_9  and  N1_10 
REMARK    2  A    between atoms: N1_10  and  C7_12 
REMARK    3  A    between atoms: C10_15  and  N2_16 
REMARK    4  A    between atoms: N2_16  and  C11_17 
REMARK    5  A    between atoms: N2_16  and  C13_20 
REMARK    6  A    between atoms: C11_17  and  C12_18 
REMARK    7  A    between atoms: C13_20  and  C14_21 
ROOT
HETATM    1  C7  UNL     1       5.888  37.876  77.460  1.00  0.00     0.082 C 
HETATM    2  C8  UNL     1       6.880  37.705  78.571  1.00  0.00     0.027 C 
HETATM    3  C9  UNL     1       8.147  36.974  78.088  1.00  0.00     0.027 C 
HETATM    4  C10 UNL     1       7.653  35.792  77.306  1.00  0.00     0.083 C 
HETATM    5  C15 UNL     1       7.016  36.250  76.013  1.00  0.00     0.027 C 
HETATM    6  C16 UNL     1       6.656  37.708  76.137  1.00  0.00     0.027 C 
ENDROOT
BRANCH   1   7
HETATM    7  N1  UNL     1       5.234  39.161  77.471  1.00  0.00    -0.383 N 
ATOM      8  H1  UNL     1       5.536  39.875  76.806  1.00  0.00     0.160 HD
BRANCH   7   9
HETATM    9  C6  UNL     1       4.200  39.462  78.361  1.00  0.00     0.070 A 
HETATM   10  C1  UNL     1       3.890  40.804  78.543  1.00  0.00     0.160 A 
HETATM   11  F1  UNL     1       4.578  41.772  77.884  1.00  0.00    -0.202 F 
HETATM   12  C2  UNL     1       2.880  41.176  79.389  1.00  0.00     0.053 A 
HETATM   13 BR1  UNL     1       2.462  43.038  79.633  1.00  0.00    -0.048 Br
HETATM   14  C3  UNL     1       2.140  40.236  80.088  1.00  0.00     0.041 A 
HETATM   15  C4  UNL     1       2.453  38.912  79.903  1.00  0.00     0.014 A 
HETATM   16 BR2  UNL     1       1.479  37.570  80.841  1.00  0.00    -0.051 Br
HETATM   17  C5  UNL     1       3.477  38.536  79.044  1.00  0.00     0.051 A 
ENDBRANCH   7   9
ENDBRANCH   1   7
BRANCH   4  18
HETATM   18  N2  UNL     1       8.524  34.729  77.219  1.00  0.00    -0.387 N 
BRANCH  18  19
HETATM   19  C11 UNL     1       9.890  34.771  77.426  1.00  0.00     0.073 C 
BRANCH  19  20
HETATM   20  C12 UNL     1      10.474  34.023  78.595  1.00  0.00     0.159 C 
HETATM   21 CL1  UNL     1       9.511  34.236  80.074  1.00  0.00    -0.125 Cl
ENDBRANCH  19  20
ENDBRANCH  18  19
BRANCH  18  22
HETATM   22  C13 UNL     1       7.992  33.487  76.719  1.00  0.00     0.137 C 
BRANCH  22  23
HETATM   23  C14 UNL     1       8.665  32.956  75.500  1.00  0.00     0.134 C 
HETATM   24 CL2  UNL     1       7.390  32.573  74.308  1.00  0.00    -0.129 Cl
ENDBRANCH  22  23
ENDBRANCH  18  22
ENDBRANCH   4  18
TORSDOF 7
ENDMDL
MODEL 3
REMARK VINA RESULT: -6.281148932      1.209      1.394
REMARK  7 active torsions:
REMARK  status: ('A' for Active; 'I' for Inactive)
REMARK    1  A    between atoms: C6_9  and  N1_10 
REMARK    2  A    between atoms: N1_10  and  C7_12 
REMARK    3  A    between atoms: C10_15  and  N2_16 
REMARK    4  A    between atoms: N2_16  and  C11_17 
REMARK    5  A    between atoms: N2_16  and  C13_20 
REMARK    6  A    between atoms: C11_17  and  C12_18 
REMARK    7  A    between atoms: C13_20  and  C14_21 
ROOT
HETATM    1  C7  UNL     1       5.820  37.884  77.505  1.00  0.00     0.082 C 
HETATM    2  C8  UNL     1       6.760  37.660  78.652  1.00  0.00     0.027 C 
HETATM    3  C9  UNL     1       8.011  36.876  78.212  1.00  0.00     0.027 C 
HETATM    4  C10 UNL     1       7.495  35.724  77.399  1.00  0.00     0.083 C 
HETATM    5  C15 UNL     1       6.930  36.221  76.088  1.00  0.00     0.027 C 
HETATM    6  C16 UNL     1       6.632  37.692  76.212  1.00  0.00     0.027 C 
ENDROOT
BRANCH   1   7
HETATM    7  N1  UNL     1       5.225  39.198  77.503  1.00  0.00    -0.383 N 
ATOM      8  H1  UNL     1       5.571  39.896  76.844  1.00  0.00     0.160 HD
BRANCH   7   9
HETATM    9  C6  UNL     1       4.189  39.546  78.375  1.00  0.00     0.070 A 
HETATM   10  C1  UNL     1       3.919  40.900  78.529  1.00  0.00     0.160 A 
HETATM   11  F1  UNL     1       4.645  41.834  77.863  1.00  0.00    -0.202 F 
HETATM   12  C2  UNL     1       2.911  41.319  79.355  1.00  0.00     0.053 A 
HETATM   13 BR1  UNL     1       2.547  43.196  79.561  1.00  0.00    -0.048 Br
HETATM   14  C3  UNL     1       2.133  40.414  80.061  1.00  0.00     0.041 A 
HETATM   15  C4  UNL     1       2.407  39.078  79.902  1.00  0.00     0.014 A 
HETATM   16 BR2  UNL     1       1.379  37.784  80.851  1.00  0.00    -0.051 Br
HETATM   17  C5  UNL     1       3.430  38.655  79.064  1.00  0.00     0.051 A 
ENDBRANCH   7   9
ENDBRANCH   1   7
BRANCH   4  18
HETATM   18  N2  UNL     1       8.320  34.623  77.336  1.00  0.00    -0.387 N 
BRANCH  18  19
HETATM   19  C11 UNL     1       9.192  34.312  76.310  1.00  0.00     0.073 C 
BRANCH  19  20
HETATM   20  C12 UNL     1       9.049  32.989  75.606  1.00  0.00     0.159 C 
HETATM   21 CL1  UNL     1       7.579  32.917  74.611  1.00  0.00    -0.125 Cl
ENDBRANCH  19  20
ENDBRANCH  18  19
BRANCH  18  22
HETATM   22  C13 UNL     1       8.156  33.623  78.360  1.00  0.00     0.137 C 
BRANCH  22  23
HETATM   23  C14 UNL     1       6.768  33.477  78.882  1.00  0.00     0.134 C 
HETATM   24 CL2  UNL     1       5.854  32.490  77.704  1.00  0.00    -0.129 Cl
ENDBRANCH  22  23
ENDBRANCH  18  22
ENDBRANCH   4  18
TORSDOF 7
ENDMDL
MODEL 4
REMARK VINA RESULT: -5.754353141      5.010      8.138
REMARK  7 active torsions:
REMARK  status: ('A' for Active; 'I' for Inactive)
REMARK    1  A    between atoms: C6_9  and  N1_10 
REMARK    2  A    between atoms: N1_10  and  C7_12 
REMARK    3  A    between atoms: C10_15  and  N2_16 
REMARK    4  A    between atoms: N2_16  and  C11_17 
REMARK    5  A    between atoms: N2_16  and  C13_20 
REMARK    6  A    between atoms: C11_17  and  C12_18 
REMARK    7  A    between atoms: C13_20  and  C14_21 
ROOT
HETATM    1  C7  UNL     1       5.820  37.952  77.413  1.00  0.00     0.082 C 
HETATM    2  C8  UNL     1       5.384  39.375  77.226  1.00  0.00     0.027 C 
HETATM    3  C9  UNL     1       4.676  39.917  78.482  1.00  0.00     0.027 C 
HETATM    4  C10 UNL     1       3.693  38.854  78.877  1.00  0.00     0.083 C 
HETATM    5  C15 UNL     1       4.421  37.637  79.401  1.00  0.00     0.027 C 
HETATM    6  C16 UNL     1       5.851  37.683  78.928  1.00  0.00     0.027 C 
ENDROOT
BRANCH   1   7
HETATM    7  N1  UNL     1       7.119  37.674  76.853  1.00  0.00    -0.383 N 
ATOM      8  H1  UNL     1       7.693  38.452  76.527  1.00  0.00     0.160 HD
BRANCH   7   9
HETATM    9  C6  UNL     1       7.618  36.373  76.743  1.00  0.00     0.070 A 
HETATM   10  C1  UNL     1       8.723  36.050  77.522  1.00  0.00     0.160 A 
HETATM   11  F1  UNL     1       9.288  36.972  78.343  1.00  0.00    -0.202 F 
HETATM   12  C2  UNL     1       9.261  34.792  77.479  1.00  0.00     0.053 A 
HETATM   13 BR1  UNL     1      10.790  34.358  78.562  1.00  0.00    -0.048 Br
HETATM   14  C3  UNL     1       8.728  33.807  76.663  1.00  0.00     0.041 A 
HETATM   15  C4  UNL     1       7.637  34.134  75.897  1.00  0.00     0.014 A 
HETATM   16 BR2  UNL     1       6.862  32.827  74.748  1.00  0.00    -0.051 Br
HETATM   17  C5  UNL     1       7.092  35.411  75.942  1.00  0.00     0.051 A 
ENDBRANCH   7   9
ENDBRANCH   1   7
BRANCH   4  18
HETATM   18  N2  UNL     1       2.611  39.287  79.613  1.00  0.00    -0.387 N 
BRANCH  18  19
HETATM   19  C11 UNL     1       1.837  38.519  80.461  1.00  0.00     0.073 C 
BRANCH  19  20
HETATM   20  C12 UNL     1       2.150  38.515  81.934  1.00  0.00     0.159 C 
HETATM   21 CL1  UNL     1       1.361  39.860  82.787  1.00  0.00    -0.125 Cl
ENDBRANCH  19  20
ENDBRANCH  18  19
BRANCH  18  22
HETATM   22  C13 UNL     1       2.148  40.628  79.364  1.00  0.00     0.137 C 
BRANCH  22  23
HETATM   23  C14 UNL     1       0.667  40.788  79.326  1.00  0.00     0.134 C 
HETATM   24 CL2  UNL     1       0.277  42.355  80.092  1.00  0.00    -0.129 Cl
ENDBRANCH  22  23
ENDBRANCH  18  22
ENDBRANCH   4  18
TORSDOF 7
ENDMDL
MODEL 5
REMARK VINA RESULT: -5.717454446      4.730      8.513
REMARK  7 active torsions:
REMARK  status: ('A' for Active; 'I' for Inactive)
REMARK    1  A    between atoms: C6_9  and  N1_10 
REMARK    2  A    between atoms: N1_10  and  C7_12 
REMARK    3  A    between atoms: C10_15  and  N2_16 
REMARK    4  A    between atoms: N2_16  and  C11_17 
REMARK    5  A    between atoms: N2_16  and  C13_20 
REMARK    6  A    between atoms: C11_17  and  C12_18 
REMARK    7  A    between atoms: C13_20  and  C14_21 
ROOT
HETATM    1  C7  UNL     1       4.685  39.620  78.475  1.00  0.00     0.082 C 
HETATM    2  C8  UNL     1       3.384  38.961  78.822  1.00  0.00     0.027 C 
HETATM    3  C9  UNL     1       2.234  39.983  78.888  1.00  0.00     0.027 C 
HETATM    4  C10 UNL     1       2.762  41.127  79.704  1.00  0.00     0.083 C 
HETATM    5  C15 UNL     1       3.829  41.870  78.932  1.00  0.00     0.027 C 
HETATM    6  C16 UNL     1       4.348  40.978  77.835  1.00  0.00     0.027 C 
ENDROOT
BRANCH   1   7
HETATM    7  N1  UNL     1       5.490  38.849  77.559  1.00  0.00    -0.383 N 
ATOM      8  H1  UNL     1       5.589  39.172  76.596  1.00  0.00     0.160 HD
BRANCH   7   9
HETATM    9  C6  UNL     1       6.137  37.673  77.948  1.00  0.00     0.070 A 
HETATM   10  C1  UNL     1       6.340  36.707  76.968  1.00  0.00     0.160 A 
HETATM   11  F1  UNL     1       5.912  36.908  75.696  1.00  0.00    -0.202 F 
HETATM   12  C2  UNL     1       6.979  35.535  77.269  1.00  0.00     0.053 A 
HETATM   13 BR1  UNL     1       7.252  34.206  75.905  1.00  0.00    -0.048 Br
HETATM   14  C3  UNL     1       7.441  35.272  78.549  1.00  0.00     0.041 A 
HETATM   15  C4  UNL     1       7.238  36.231  79.510  1.00  0.00     0.014 A 
HETATM   16 BR2  UNL     1       7.841  35.928  81.292  1.00  0.00    -0.051 Br
HETATM   17  C5  UNL     1       6.589  37.420  79.203  1.00  0.00     0.051 A 
ENDBRANCH   7   9
ENDBRANCH   1   7
BRANCH   4  18
HETATM   18  N2  UNL     1       1.810  41.897  80.335  1.00  0.00    -0.387 N 
BRANCH  18  19
HETATM   19  C11 UNL     1       0.761  41.434  81.105  1.00  0.00     0.073 C 
BRANCH  19  20
HETATM   20  C12 UNL     1       1.045  40.909  82.488  1.00  0.00     0.159 C 
HETATM   21 CL1  UNL     1       1.724  39.268  82.453  1.00  0.00    -0.125 Cl
ENDBRANCH  19  20
ENDBRANCH  18  19
BRANCH  18  22
HETATM   22  C13 UNL     1       1.816  43.309  80.046  1.00  0.00     0.137 C 
BRANCH  22  23
HETATM   23  C14 UNL     1       0.805  44.110  80.792  1.00  0.00     0.134 C 
HETATM   24 CL2  UNL     1      -0.011  45.175  79.611  1.00  0.00    -0.129 Cl
ENDBRANCH  22  23
ENDBRANCH  18  22
ENDBRANCH   4  18
TORSDOF 7
ENDMDL
