MODEL 1
REMARK VINA RESULT: -8.933472616      0.000      0.000
REMARK  7 active torsions:
REMARK  status: ('A' for Active; 'I' for Inactive)
REMARK       I    between atoms: C2_2  and  N1_4 
REMARK    1  A    between atoms: N1_4  and  C3_6 
REMARK    2  A    between atoms: C3_6  and  C4_7 
REMARK    3  A    between atoms: C3_6  and  C13_22 
REMARK    4  A    between atoms: C4_7  and  C5_8 
REMARK    5  A    between atoms: C7_10  and  O2_11 
REMARK    6  A    between atoms: O2_11  and  C8_12 
REMARK    7  A    between atoms: C8_12  and  C9_15 
ROOT
HETATM    1  C3  UNL     1       7.827  35.649  76.396  1.00  0.00     0.093 C 
ENDROOT
BRANCH   1   2
HETATM    2  N1  UNL     1       8.614  36.675  75.813  1.00  0.00    -0.356 N 
HETATM    3  C2  UNL     1       8.086  37.866  75.246  1.00  0.00     0.213 C 
HETATM    4  C1  UNL     1       8.993  38.871  74.663  1.00  0.00     0.117 C 
HETATM    5  O1  UNL     1       6.852  38.085  75.231  1.00  0.00    -0.274 OA
ATOM      6  H1  UNL     1       9.626  36.549  75.798  1.00  0.00     0.162 HD
ENDBRANCH   1   2
BRANCH   1   7
HETATM    7  C4  UNL     1       7.808  35.715  77.883  1.00  0.00     0.067 C 
BRANCH   7   8
HETATM    8  C5  UNL     1       6.552  36.196  78.496  1.00  0.00    -0.015 A 
HETATM    9  C6  UNL     1       6.261  37.552  78.533  1.00  0.00     0.047 A 
HETATM   10  C7  UNL     1       5.115  38.074  79.139  1.00  0.00     0.076 A 
HETATM   11  C10 UNL     1       4.264  37.161  79.714  1.00  0.00     0.040 A 
HETATM   12  C11 UNL     1       4.551  35.810  79.677  1.00  0.00     0.045 A 
HETATM   13  C12 UNL     1       5.696  35.295  79.070  1.00  0.00     0.122 A 
HETATM   14  F5  UNL     1       5.890  33.944  79.044  1.00  0.00    -0.206 F 
BRANCH  10  15
HETATM   15  O2  UNL     1       4.875  39.425  79.153  1.00  0.00    -0.279 OA
BRANCH  15  16
HETATM   16  C8  UNL     1       4.243  40.253  78.267  1.00  0.00     0.418 C 
HETATM   17  F1  UNL     1       4.775  40.342  77.004  1.00  0.00    -0.169 F 
HETATM   18  F2  UNL     1       2.976  39.583  78.024  1.00  0.00    -0.169 F 
BRANCH  16  19
HETATM   19  C9  UNL     1       3.796  41.589  78.783  1.00  0.00     0.455 C 
HETATM   20  F3  UNL     1       4.755  42.418  79.246  1.00  0.00    -0.205 F 
HETATM   21  F4  UNL     1       2.818  41.464  79.761  1.00  0.00    -0.205 F 
ENDBRANCH  16  19
ENDBRANCH  15  16
ENDBRANCH  10  15
ENDBRANCH   7   8
ENDBRANCH   1   7
BRANCH   1  22
HETATM   22  C13 UNL     1       8.209  34.238  75.912  1.00  0.00     0.017 C 
HETATM   23  C14 UNL     1       7.091  33.321  76.001  1.00  0.00    -0.007 C 
HETATM   24  C15 UNL     1       6.953  32.592  74.648  1.00  0.00     0.005 C 
HETATM   25  C25 UNL     1       7.259  32.109  76.935  1.00  0.00     0.015 C 
HETATM   26  C16 UNL     1       8.296  32.014  74.384  1.00  0.00     0.006 C 
HETATM   27  C17 UNL     1       9.213  31.813  75.524  1.00  0.00    -0.002 C 
HETATM   28  C18 UNL     1      10.293  32.889  75.596  1.00  0.00    -0.005 C 
HETATM   29  C24 UNL     1       8.707  31.815  76.894  1.00  0.00    -0.036 C 
HETATM   30  C19 UNL     1      11.483  32.348  76.282  1.00  0.00     0.009 C 
HETATM   31  C27 UNL     1       9.530  33.899  76.491  1.00  0.00    -0.003 C 
HETATM   32  C20 UNL     1      11.531  30.941  76.690  1.00  0.00    -0.018 C 
HETATM   33  C21 UNL     1      12.965  30.753  77.261  1.00  0.00     0.010 C 
HETATM   34  C22 UNL     1      10.607  30.342  77.616  1.00  0.00     0.005 C 
HETATM   35  C23 UNL     1       9.168  30.612  77.639  1.00  0.00     0.010 C 
HETATM   36  C26 UNL     1       9.315  33.008  77.651  1.00  0.00     0.015 C 
ENDBRANCH   1  22
TORSDOF 7
ENDMDL
MODEL 2
REMARK VINA RESULT: -8.883701721      1.877      3.221
REMARK  7 active torsions:
REMARK  status: ('A' for Active; 'I' for Inactive)
REMARK       I    between atoms: C2_2  and  N1_4 
REMARK    1  A    between atoms: N1_4  and  C3_6 
REMARK    2  A    between atoms: C3_6  and  C4_7 
REMARK    3  A    between atoms: C3_6  and  C13_22 
REMARK    4  A    between atoms: C4_7  and  C5_8 
REMARK    5  A    between atoms: C7_10  and  O2_11 
REMARK    6  A    between atoms: O2_11  and  C8_12 
REMARK    7  A    between atoms: C8_12  and  C9_15 
ROOT
HETATM    1  C3  UNL     1       7.369  37.028  77.233  1.00  0.00     0.093 C 
ENDROOT
BRANCH   1   2
HETATM    2  N1  UNL     1       8.350  37.690  76.452  1.00  0.00    -0.356 N 
HETATM    3  C2  UNL     1       8.127  38.195  75.143  1.00  0.00     0.213 C 
HETATM    4  C1  UNL     1       9.218  38.868  74.415  1.00  0.00     0.117 C 
HETATM    5  O1  UNL     1       7.010  38.081  74.587  1.00  0.00    -0.274 OA
ATOM      6  H1  UNL     1       9.279  37.811  76.857  1.00  0.00     0.162 HD
ENDBRANCH   1   2
BRANCH   1   7
HETATM    7  C4  UNL     1       7.088  37.729  78.516  1.00  0.00     0.067 C 
BRANCH   7   8
HETATM    8  C5  UNL     1       5.683  37.703  78.977  1.00  0.00    -0.015 A 
HETATM    9  C6  UNL     1       4.814  38.731  78.641  1.00  0.00     0.047 A 
HETATM   10  C7  UNL     1       3.489  38.790  79.084  1.00  0.00     0.076 A 
HETATM   11  C10 UNL     1       3.073  37.757  79.889  1.00  0.00     0.040 A 
HETATM   12  C11 UNL     1       3.937  36.731  80.224  1.00  0.00     0.045 A 
HETATM   13  C12 UNL     1       5.257  36.678  79.778  1.00  0.00     0.122 A 
HETATM   14  F5  UNL     1       6.037  35.612  80.123  1.00  0.00    -0.206 F 
BRANCH  10  15
HETATM   15  O2  UNL     1       2.670  39.831  78.727  1.00  0.00    -0.279 OA
BRANCH  15  16
HETATM   16  C8  UNL     1       2.315  40.981  79.374  1.00  0.00     0.418 C 
HETATM   17  F1  UNL     1       1.030  41.432  79.190  1.00  0.00    -0.169 F 
HETATM   18  F2  UNL     1       2.309  40.592  80.774  1.00  0.00    -0.169 F 
BRANCH  16  19
HETATM   19  C9  UNL     1       3.310  42.104  79.365  1.00  0.00     0.455 C 
HETATM   20  F3  UNL     1       2.816  43.360  79.337  1.00  0.00    -0.205 F 
HETATM   21  F4  UNL     1       4.227  41.973  78.330  1.00  0.00    -0.205 F 
ENDBRANCH  16  19
ENDBRANCH  15  16
ENDBRANCH  10  15
ENDBRANCH   7   8
ENDBRANCH   1   7
BRANCH   1  22
HETATM   22  C13 UNL     1       7.682  35.540  77.475  1.00  0.00     0.017 C 
HETATM   23  C14 UNL     1       9.062  35.226  77.167  1.00  0.00    -0.007 C 
HETATM   24  C15 UNL     1       9.659  34.449  78.358  1.00  0.00     0.005 C 
HETATM   25  C25 UNL     1       9.308  34.207  76.040  1.00  0.00     0.015 C 
HETATM   26  C16 UNL     1       8.730  33.312  78.581  1.00  0.00     0.006 C 
HETATM   27  C17 UNL     1       7.852  32.892  77.470  1.00  0.00    -0.002 C 
HETATM   28  C18 UNL     1       6.418  33.387  77.647  1.00  0.00    -0.005 C 
HETATM   29  C24 UNL     1       8.137  33.307  76.100  1.00  0.00    -0.036 C 
HETATM   30  C19 UNL     1       5.493  32.482  76.935  1.00  0.00     0.009 C 
HETATM   31  C27 UNL     1       6.567  34.743  76.911  1.00  0.00    -0.003 C 
HETATM   32  C20 UNL     1       5.994  31.269  76.284  1.00  0.00    -0.018 C 
HETATM   33  C21 UNL     1       4.716  30.555  75.760  1.00  0.00     0.010 C 
HETATM   34  C22 UNL     1       6.963  31.270  75.221  1.00  0.00     0.005 C 
HETATM   35  C23 UNL     1       8.139  32.141  75.175  1.00  0.00     0.010 C 
HETATM   36  C26 UNL     1       6.994  34.208  75.601  1.00  0.00     0.015 C 
ENDBRANCH   1  22
TORSDOF 7
ENDMDL
MODEL 3
REMARK VINA RESULT: -8.682354142      2.598      5.068
REMARK  7 active torsions:
REMARK  status: ('A' for Active; 'I' for Inactive)
REMARK       I    between atoms: C2_2  and  N1_4 
REMARK    1  A    between atoms: N1_4  and  C3_6 
REMARK    2  A    between atoms: C3_6  and  C4_7 
REMARK    3  A    between atoms: C3_6  and  C13_22 
REMARK    4  A    between atoms: C4_7  and  C5_8 
REMARK    5  A    between atoms: C7_10  and  O2_11 
REMARK    6  A    between atoms: O2_11  and  C8_12 
REMARK    7  A    between atoms: C8_12  and  C9_15 
ROOT
HETATM    1  C3  UNL     1       5.563  38.142  78.367  1.00  0.00     0.093 C 
ENDROOT
BRANCH   1   2
HETATM    2  N1  UNL     1       4.665  37.077  78.633  1.00  0.00    -0.356 N 
HETATM    3  C2  UNL     1       4.592  36.379  79.868  1.00  0.00     0.213 C 
HETATM    4  C1  UNL     1       3.620  35.285  80.041  1.00  0.00     0.117 C 
HETATM    5  O1  UNL     1       5.344  36.675  80.825  1.00  0.00    -0.274 OA
ATOM      6  H1  UNL     1       4.028  36.794  77.888  1.00  0.00     0.162 HD
ENDBRANCH   1   2
BRANCH   1   7
HETATM    7  C4  UNL     1       4.905  39.296  77.697  1.00  0.00     0.067 C 
BRANCH   7   8
HETATM    8  C5  UNL     1       3.899  40.025  78.497  1.00  0.00    -0.015 A 
HETATM    9  C6  UNL     1       2.793  39.363  79.010  1.00  0.00     0.047 A 
HETATM   10  C7  UNL     1       1.783  40.003  79.734  1.00  0.00     0.076 A 
HETATM   11  C10 UNL     1       1.937  41.356  79.920  1.00  0.00     0.040 A 
HETATM   12  C11 UNL     1       3.037  42.018  79.412  1.00  0.00     0.045 A 
HETATM   13  C12 UNL     1       4.042  41.373  78.691  1.00  0.00     0.122 A 
HETATM   14  F5  UNL     1       5.118  42.091  78.253  1.00  0.00    -0.206 F 
BRANCH  10  15
HETATM   15  O2  UNL     1       0.706  39.304  80.216  1.00  0.00    -0.279 OA
BRANCH  15  16
HETATM   16  C8  UNL     1       0.588  38.376  81.213  1.00  0.00     0.418 C 
HETATM   17  F1  UNL     1      -0.684  38.053  81.620  1.00  0.00    -0.169 F 
HETATM   18  F2  UNL     1       1.034  37.145  80.583  1.00  0.00    -0.169 F 
BRANCH  16  19
HETATM   19  C9  UNL     1       1.533  38.495  82.372  1.00  0.00     0.455 C 
HETATM   20  F3  UNL     1       1.741  39.734  82.868  1.00  0.00    -0.205 F 
HETATM   21  F4  UNL     1       2.768  37.925  82.091  1.00  0.00    -0.205 F 
ENDBRANCH  16  19
ENDBRANCH  15  16
ENDBRANCH  10  15
ENDBRANCH   7   8
ENDBRANCH   1   7
BRANCH   1  22
HETATM   22  C13 UNL     1       6.821  37.700  77.596  1.00  0.00     0.017 C 
HETATM   23  C14 UNL     1       6.519  37.385  76.215  1.00  0.00    -0.007 C 
HETATM   24  C15 UNL     1       7.526  38.131  75.315  1.00  0.00     0.005 C 
HETATM   25  C25 UNL     1       6.783  35.938  75.759  1.00  0.00     0.015 C 
HETATM   26  C16 UNL     1       8.864  37.743  75.832  1.00  0.00     0.006 C 
HETATM   27  C17 UNL     1       8.980  36.502  76.624  1.00  0.00    -0.002 C 
HETATM   28  C18 UNL     1       9.088  36.779  78.122  1.00  0.00    -0.005 C 
HETATM   29  C24 UNL     1       7.922  35.496  76.589  1.00  0.00    -0.036 C 
HETATM   30  C19 UNL     1       9.805  35.669  78.779  1.00  0.00     0.009 C 
HETATM   31  C27 UNL     1       7.574  36.755  78.454  1.00  0.00    -0.003 C 
HETATM   32  C20 UNL     1      10.369  34.575  77.984  1.00  0.00    -0.018 C 
HETATM   33  C21 UNL     1      11.121  33.691  79.019  1.00  0.00     0.010 C 
HETATM   34  C22 UNL     1       9.587  33.702  77.149  1.00  0.00     0.005 C 
HETATM   35  C23 UNL     1       8.476  34.144  76.304  1.00  0.00     0.010 C 
HETATM   36  C26 UNL     1       7.294  35.381  77.989  1.00  0.00     0.015 C 
ENDBRANCH   1  22
TORSDOF 7
ENDMDL
MODEL 4
REMARK VINA RESULT: -8.663323453      3.066      5.014
REMARK  7 active torsions:
REMARK  status: ('A' for Active; 'I' for Inactive)
REMARK       I    between atoms: C2_2  and  N1_4 
REMARK    1  A    between atoms: N1_4  and  C3_6 
REMARK    2  A    between atoms: C3_6  and  C4_7 
REMARK    3  A    between atoms: C3_6  and  C13_22 
REMARK    4  A    between atoms: C4_7  and  C5_8 
REMARK    5  A    between atoms: C7_10  and  O2_11 
REMARK    6  A    between atoms: O2_11  and  C8_12 
REMARK    7  A    between atoms: C8_12  and  C9_15 
ROOT
HETATM    1  C3  UNL     1       4.795  35.391  79.975  1.00  0.00     0.093 C 
ENDROOT
BRANCH   1   2
HETATM    2  N1  UNL     1       5.487  34.770  81.045  1.00  0.00    -0.356 N 
HETATM    3  C2  UNL     1       6.470  35.412  81.845  1.00  0.00     0.213 C 
HETATM    4  C1  UNL     1       7.132  34.674  82.936  1.00  0.00     0.117 C 
HETATM    5  O1  UNL     1       6.790  36.607  81.643  1.00  0.00    -0.274 OA
ATOM      6  H1  UNL     1       5.266  33.796  81.254  1.00  0.00     0.162 HD
ENDBRANCH   1   2
BRANCH   1   7
HETATM    7  C4  UNL     1       3.349  35.041  79.945  1.00  0.00     0.067 C 
BRANCH   7   8
HETATM    8  C5  UNL     1       2.408  36.132  80.275  1.00  0.00    -0.015 A 
HETATM    9  C6  UNL     1       2.820  37.456  80.221  1.00  0.00     0.047 A 
HETATM   10  C7  UNL     1       1.995  38.530  80.567  1.00  0.00     0.076 A 
HETATM   11  C10 UNL     1       0.722  38.209  80.974  1.00  0.00     0.040 A 
HETATM   12  C11 UNL     1       0.309  36.892  81.027  1.00  0.00     0.045 A 
HETATM   13  C12 UNL     1       1.137  35.825  80.680  1.00  0.00     0.122 A 
HETATM   14  F5  UNL     1       0.644  34.552  80.724  1.00  0.00    -0.206 F 
BRANCH  10  15
HETATM   15  O2  UNL     1       2.451  39.822  80.501  1.00  0.00    -0.279 OA
BRANCH  15  16
HETATM   16  C8  UNL     1       2.405  40.761  79.509  1.00  0.00     0.418 C 
HETATM   17  F1  UNL     1       1.271  40.798  78.734  1.00  0.00    -0.169 F 
HETATM   18  F2  UNL     1       2.323  42.016  80.237  1.00  0.00    -0.169 F 
BRANCH  16  19
HETATM   19  C9  UNL     1       3.649  40.953  78.693  1.00  0.00     0.455 C 
HETATM   20  F3  UNL     1       4.492  39.902  78.606  1.00  0.00    -0.205 F 
HETATM   21  F4  UNL     1       4.375  42.061  79.110  1.00  0.00    -0.205 F 
ENDBRANCH  16  19
ENDBRANCH  15  16
ENDBRANCH  10  15
ENDBRANCH   7   8
ENDBRANCH   1   7
BRANCH   1  22
HETATM   22  C13 UNL     1       5.450  35.149  78.602  1.00  0.00     0.017 C 
HETATM   23  C14 UNL     1       6.251  33.943  78.596  1.00  0.00    -0.007 C 
HETATM   24  C15 UNL     1       5.852  33.102  77.366  1.00  0.00     0.005 C 
HETATM   25  C25 UNL     1       7.756  34.111  78.320  1.00  0.00     0.015 C 
HETATM   26  C16 UNL     1       5.989  34.023  76.208  1.00  0.00     0.006 C 
HETATM   27  C17 UNL     1       6.855  35.210  76.353  1.00  0.00    -0.002 C 
HETATM   28  C18 UNL     1       6.053  36.490  76.576  1.00  0.00    -0.005 C 
HETATM   29  C24 UNL     1       7.836  35.288  77.432  1.00  0.00    -0.036 C 
HETATM   30  C19 UNL     1       6.830  37.650  76.097  1.00  0.00     0.009 C 
HETATM   31  C27 UNL     1       5.999  36.440  78.125  1.00  0.00    -0.003 C 
HETATM   32  C20 UNL     1       8.121  37.456  75.432  1.00  0.00    -0.018 C 
HETATM   33  C21 UNL     1       8.549  38.885  74.993  1.00  0.00     0.010 C 
HETATM   34  C22 UNL     1       9.258  36.829  76.051  1.00  0.00     0.005 C 
HETATM   35  C23 UNL     1       9.183  35.644  76.909  1.00  0.00     0.010 C 
HETATM   36  C26 UNL     1       7.456  36.446  78.372  1.00  0.00     0.015 C 
ENDBRANCH   1  22
TORSDOF 7
ENDMDL
MODEL 5
REMARK VINA RESULT: -8.608545811      2.428      4.187
REMARK  7 active torsions:
REMARK  status: ('A' for Active; 'I' for Inactive)
REMARK       I    between atoms: C2_2  and  N1_4 
REMARK    1  A    between atoms: N1_4  and  C3_6 
REMARK    2  A    between atoms: C3_6  and  C4_7 
REMARK    3  A    between atoms: C3_6  and  C13_22 
REMARK    4  A    between atoms: C4_7  and  C5_8 
REMARK    5  A    between atoms: C7_10  and  O2_11 
REMARK    6  A    between atoms: O2_11  and  C8_12 
REMARK    7  A    between atoms: C8_12  and  C9_15 
ROOT
HETATM    1  C3  UNL     1       5.548  37.857  78.390  1.00  0.00     0.093 C 
ENDROOT
BRANCH   1   2
HETATM    2  N1  UNL     1       5.441  39.247  78.651  1.00  0.00    -0.356 N 
HETATM    3  C2  UNL     1       4.287  40.028  78.376  1.00  0.00     0.213 C 
HETATM    4  C1  UNL     1       4.280  41.469  78.685  1.00  0.00     0.117 C 
HETATM    5  O1  UNL     1       3.262  39.514  77.871  1.00  0.00    -0.274 OA
ATOM      6  H1  UNL     1       6.247  39.718  79.063  1.00  0.00     0.162 HD
ENDBRANCH   1   2
BRANCH   1   7
HETATM    7  C4  UNL     1       5.414  37.029  79.620  1.00  0.00     0.067 C 
BRANCH   7   8
HETATM    8  C5  UNL     1       4.068  36.483  79.893  1.00  0.00    -0.015 A 
HETATM    9  C6  UNL     1       3.060  37.303  80.379  1.00  0.00     0.047 A 
HETATM   10  C7  UNL     1       1.782  36.839  80.701  1.00  0.00     0.076 A 
HETATM   11  C10 UNL     1       1.560  35.496  80.511  1.00  0.00     0.040 A 
HETATM   12  C11 UNL     1       2.561  34.677  80.026  1.00  0.00     0.045 A 
HETATM   13  C12 UNL     1       3.834  35.147  79.705  1.00  0.00     0.122 A 
HETATM   14  F5  UNL     1       4.759  34.281  79.196  1.00  0.00    -0.206 F 
BRANCH  10  15
HETATM   15  O2  UNL     1       0.821  37.690  81.183  1.00  0.00    -0.279 OA
BRANCH  15  16
HETATM   16  C8  UNL     1       0.609  39.029  81.005  1.00  0.00     0.418 C 
HETATM   17  F1  UNL     1       0.882  39.546  79.762  1.00  0.00    -0.169 F 
HETATM   18  F2  UNL     1      -0.837  39.154  81.082  1.00  0.00    -0.169 F 
BRANCH  16  19
HETATM   19  C9  UNL     1       1.062  39.944  82.105  1.00  0.00     0.455 C 
HETATM   20  F3  UNL     1       1.394  41.204  81.755  1.00  0.00    -0.205 F 
HETATM   21  F4  UNL     1       2.115  39.400  82.828  1.00  0.00    -0.205 F 
ENDBRANCH  16  19
ENDBRANCH  15  16
ENDBRANCH  10  15
ENDBRANCH   7   8
ENDBRANCH   1   7
BRANCH   1  22
HETATM   22  C13 UNL     1       6.819  37.479  77.607  1.00  0.00     0.017 C 
HETATM   23  C14 UNL     1       6.531  37.222  76.211  1.00  0.00    -0.007 C 
HETATM   24  C15 UNL     1       7.527  38.030  75.354  1.00  0.00     0.005 C 
HETATM   25  C25 UNL     1       6.829  35.804  75.690  1.00  0.00     0.015 C 
HETATM   26  C16 UNL     1       8.870  37.647  75.860  1.00  0.00     0.006 C 
HETATM   27  C17 UNL     1       9.009  36.374  76.595  1.00  0.00    -0.002 C 
HETATM   28  C18 UNL     1       9.103  36.583  78.105  1.00  0.00    -0.005 C 
HETATM   29  C24 UNL     1       7.973  35.348  76.507  1.00  0.00    -0.036 C 
HETATM   30  C19 UNL     1       9.840  35.459  78.714  1.00  0.00     0.009 C 
HETATM   31  C27 UNL     1       7.588  36.511  78.425  1.00  0.00    -0.003 C 
HETATM   32  C20 UNL     1      10.432  34.415  77.872  1.00  0.00    -0.018 C 
HETATM   33  C21 UNL     1      11.197  33.501  78.871  1.00  0.00     0.010 C 
HETATM   34  C22 UNL     1       9.673  33.566  76.993  1.00  0.00     0.005 C 
HETATM   35  C23 UNL     1       8.557  34.023  76.162  1.00  0.00     0.010 C 
HETATM   36  C26 UNL     1       7.340  35.154  77.896  1.00  0.00     0.015 C 
ENDBRANCH   1  22
TORSDOF 7
ENDMDL
