MODEL 1
REMARK VINA RESULT: -8.107927429      0.000      0.000
REMARK  9 active torsions:
REMARK  status: ('A' for Active; 'I' for Inactive)
REMARK    1  A    between atoms: O1_1  and  C1_3 
REMARK    2  A    between atoms: C1_3  and  N2_23 
REMARK    3  A    between atoms: C2_4  and  S1_5 
REMARK    4  A    between atoms: S1_5  and  C3_6 
REMARK    5  A    between atoms: C6_11  and  C7_12 
REMARK       I    between atoms: C7_12  and  N1_14 
REMARK    6  A    between atoms: N1_14  and  C8_16 
REMARK    7  A    between atoms: C8_16  and  C9_17 
REMARK    8  A    between atoms: C9_17  and  C10_18 
REMARK    9  A    between atoms: N2_23  and  C14_25 
ROOT
HETATM    1  C3  UNL     1      38.681  43.041  33.743  1.00  0.00     0.049 A 
HETATM    2  C4  UNL     1      39.738  43.652  34.308  1.00  0.00     0.059 A 
HETATM    3 CL1  UNL     1      40.305  45.320  33.934  1.00  0.00    -0.082 Cl
HETATM    4  C5  UNL     1      40.511  42.925  35.181  1.00  0.00     0.075 A 
HETATM    5  S2  UNL     1      39.761  41.420  35.193  1.00  0.00    -0.093 SA
HETATM    6  C6  UNL     1      38.448  41.728  34.073  1.00  0.00     0.091 A 
ENDROOT
BRANCH   1   7
HETATM    7  S1  UNL     1      37.533  43.893  32.619  1.00  0.00    -0.095 SA
BRANCH   7   8
HETATM    8  C2  UNL     1      38.323  45.028  31.550  1.00  0.00     0.105 C 
HETATM    9  C1  UNL     1      38.066  46.436  31.525  1.00  0.00     0.142 C 
BRANCH   9  10
HETATM   10  O1  UNL     1      38.500  47.053  30.449  1.00  0.00    -0.346 OA
ATOM     11  H1  UNL     1      37.819  47.450  29.919  1.00  0.00     0.219 HD
ENDBRANCH   9  10
BRANCH   9  12
HETATM   12  N2  UNL     1      37.448  47.306  32.426  1.00  0.00    -0.364 N 
ATOM     13  H2  UNL     1      36.460  47.146  32.617  1.00  0.00     0.162 HD
BRANCH  12  14
HETATM   14  C14 UNL     1      38.078  48.417  33.116  1.00  0.00     0.116 C 
HETATM   15  C15 UNL     1      37.398  49.738  32.770  1.00  0.00     0.297 C 
HETATM   16  N3  UNL     1      37.531  50.607  33.919  1.00  0.00     0.090 N 
HETATM   17  C16 UNL     1      38.828  50.521  34.564  1.00  0.00     0.273 C 
HETATM   18  C20 UNL     1      36.543  50.262  34.938  1.00  0.00     0.273 C 
HETATM   19  C17 UNL     1      39.003  49.157  35.238  1.00  0.00     0.037 C 
HETATM   20  C18 UNL     1      37.971  48.253  34.613  1.00  0.00     0.013 C 
HETATM   21  C19 UNL     1      36.606  48.766  35.104  1.00  0.00     0.037 C 
ENDBRANCH  12  14
ENDBRANCH   9  12
ENDBRANCH   7   8
ENDBRANCH   1   7
BRANCH   6  22
HETATM   22  C7  UNL     1      37.484  40.717  33.682  1.00  0.00     0.259 C 
HETATM   23  O2  UNL     1      36.966  40.019  34.616  1.00  0.00    -0.267 OA
HETATM   24  N1  UNL     1      37.068  40.430  32.399  1.00  0.00    -0.356 N 
ATOM     25  H1  UNL     1      37.453  40.969  31.623  1.00  0.00     0.162 HD
BRANCH  24  26
HETATM   26  C8  UNL     1      36.082  39.366  32.113  1.00  0.00     0.128 C 
BRANCH  26  27
HETATM   27  C9  UNL     1      34.865  39.941  31.446  1.00  0.00     0.066 C 
BRANCH  27  28
HETATM   28  C10 UNL     1      33.704  39.904  32.400  1.00  0.00    -0.016 A 
HETATM   29  C11 UNL     1      33.703  40.257  33.727  1.00  0.00     0.015 A 
HETATM   30  C12 UNL     1      32.547  40.152  34.391  1.00  0.00     0.008 A 
HETATM   31  C13 UNL     1      31.457  39.702  33.692  1.00  0.00     0.050 A 
HETATM   32  S3  UNL     1      32.089  39.441  32.131  1.00  0.00    -0.106 SA
ENDBRANCH  27  28
ENDBRANCH  26  27
ENDBRANCH  24  26
ENDBRANCH   6  22
TORSDOF 9
ENDMDL
MODEL 2
REMARK VINA RESULT: -7.922310932      3.770      8.022
REMARK  9 active torsions:
REMARK  status: ('A' for Active; 'I' for Inactive)
REMARK    1  A    between atoms: O1_1  and  C1_3 
REMARK    2  A    between atoms: C1_3  and  N2_23 
REMARK    3  A    between atoms: C2_4  and  S1_5 
REMARK    4  A    between atoms: S1_5  and  C3_6 
REMARK    5  A    between atoms: C6_11  and  C7_12 
REMARK       I    between atoms: C7_12  and  N1_14 
REMARK    6  A    between atoms: N1_14  and  C8_16 
REMARK    7  A    between atoms: C8_16  and  C9_17 
REMARK    8  A    between atoms: C9_17  and  C10_18 
REMARK    9  A    between atoms: N2_23  and  C14_25 
ROOT
HETATM    1  C3  UNL     1      39.025  42.907  34.040  1.00  0.00     0.049 A 
HETATM    2  C4  UNL     1      39.447  44.170  33.849  1.00  0.00     0.059 A 
HETATM    3 CL1  UNL     1      40.757  44.987  34.778  1.00  0.00    -0.082 Cl
HETATM    4  C5  UNL     1      38.774  44.942  32.932  1.00  0.00     0.075 A 
HETATM    5  S2  UNL     1      37.578  43.906  32.364  1.00  0.00    -0.093 SA
HETATM    6  C6  UNL     1      37.945  42.475  33.307  1.00  0.00     0.091 A 
ENDROOT
BRANCH   1   7
HETATM    7  S1  UNL     1      39.855  41.750  35.171  1.00  0.00    -0.095 SA
BRANCH   7   8
HETATM    8  C2  UNL     1      38.948  41.439  36.633  1.00  0.00     0.105 C 
HETATM    9  C1  UNL     1      39.130  40.295  37.474  1.00  0.00     0.142 C 
BRANCH   9  10
HETATM   10  O1  UNL     1      38.147  40.076  38.319  1.00  0.00    -0.346 OA
ATOM     11  H1  UNL     1      38.404  40.078  39.233  1.00  0.00     0.219 HD
ENDBRANCH   9  10
BRANCH   9  12
HETATM   12  N2  UNL     1      40.154  39.354  37.592  1.00  0.00    -0.364 N 
ATOM     13  H2  UNL     1      40.973  39.630  38.133  1.00  0.00     0.162 HD
BRANCH  12  14
HETATM   14  C14 UNL     1      40.166  38.020  37.019  1.00  0.00     0.116 C 
HETATM   15  C15 UNL     1      41.224  37.897  35.927  1.00  0.00     0.297 C 
HETATM   16  N3  UNL     1      41.679  36.525  35.918  1.00  0.00     0.090 N 
HETATM   17  C16 UNL     1      40.614  35.559  36.109  1.00  0.00     0.273 C 
HETATM   18  C20 UNL     1      42.637  36.297  36.996  1.00  0.00     0.273 C 
HETATM   19  C17 UNL     1      40.059  35.647  37.534  1.00  0.00     0.037 C 
HETATM   20  C18 UNL     1      40.503  36.986  38.067  1.00  0.00     0.013 C 
HETATM   21  C19 UNL     1      42.028  36.887  38.241  1.00  0.00     0.037 C 
ENDBRANCH  12  14
ENDBRANCH   9  12
ENDBRANCH   7   8
ENDBRANCH   1   7
BRANCH   6  22
HETATM   22  C7  UNL     1      37.169  41.252  33.232  1.00  0.00     0.259 C 
HETATM   23  O2  UNL     1      36.801  40.730  34.337  1.00  0.00    -0.267 OA
HETATM   24  N1  UNL     1      36.787  40.590  32.084  1.00  0.00    -0.356 N 
ATOM     25  H1  UNL     1      37.056  40.975  31.179  1.00  0.00     0.162 HD
BRANCH  24  26
HETATM   26  C8  UNL     1      36.002  39.337  32.125  1.00  0.00     0.128 C 
BRANCH  26  27
HETATM   27  C9  UNL     1      34.702  39.507  31.390  1.00  0.00     0.066 C 
BRANCH  27  28
HETATM   28  C10 UNL     1      33.582  39.661  32.380  1.00  0.00    -0.016 A 
HETATM   29  C11 UNL     1      33.671  40.090  33.682  1.00  0.00     0.015 A 
HETATM   30  C12 UNL     1      32.537  40.160  34.386  1.00  0.00     0.008 A 
HETATM   31  C13 UNL     1      31.377  39.799  33.750  1.00  0.00     0.050 A 
HETATM   32  S3  UNL     1      31.915  39.375  32.190  1.00  0.00    -0.106 SA
ENDBRANCH  27  28
ENDBRANCH  26  27
ENDBRANCH  24  26
ENDBRANCH   6  22
TORSDOF 9
ENDMDL
MODEL 3
REMARK VINA RESULT: -7.589685038      3.966      8.138
REMARK  9 active torsions:
REMARK  status: ('A' for Active; 'I' for Inactive)
REMARK    1  A    between atoms: O1_1  and  C1_3 
REMARK    2  A    between atoms: C1_3  and  N2_23 
REMARK    3  A    between atoms: C2_4  and  S1_5 
REMARK    4  A    between atoms: S1_5  and  C3_6 
REMARK    5  A    between atoms: C6_11  and  C7_12 
REMARK       I    between atoms: C7_12  and  N1_14 
REMARK    6  A    between atoms: N1_14  and  C8_16 
REMARK    7  A    between atoms: C8_16  and  C9_17 
REMARK    8  A    between atoms: C9_17  and  C10_18 
REMARK    9  A    between atoms: N2_23  and  C14_25 
ROOT
HETATM    1  C3  UNL     1      39.385  43.180  34.295  1.00  0.00     0.049 A 
HETATM    2  C4  UNL     1      40.303  44.044  34.764  1.00  0.00     0.059 A 
HETATM    3 CL1  UNL     1      41.461  43.716  36.104  1.00  0.00    -0.082 Cl
HETATM    4  C5  UNL     1      40.311  45.318  34.247  1.00  0.00     0.075 A 
HETATM    5  S2  UNL     1      39.052  45.287  33.134  1.00  0.00    -0.093 SA
HETATM    6  C6  UNL     1      38.514  43.631  33.333  1.00  0.00     0.091 A 
ENDROOT
BRANCH   1   7
HETATM    7  S1  UNL     1      39.294  41.447  34.838  1.00  0.00    -0.095 SA
BRANCH   7   8
HETATM    8  C2  UNL     1      38.664  41.259  36.457  1.00  0.00     0.105 C 
HETATM    9  C1  UNL     1      39.061  40.229  37.369  1.00  0.00     0.142 C 
BRANCH   9  10
HETATM   10  O1  UNL     1      38.247  40.058  38.388  1.00  0.00    -0.346 OA
ATOM     11  H1  UNL     1      38.490  39.350  38.972  1.00  0.00     0.219 HD
ENDBRANCH   9  10
BRANCH   9  12
HETATM   12  N2  UNL     1      40.154  39.362  37.408  1.00  0.00    -0.364 N 
ATOM     13  H2  UNL     1      41.017  39.727  37.810  1.00  0.00     0.162 HD
BRANCH  12  14
HETATM   14  C14 UNL     1      40.181  37.992  36.932  1.00  0.00     0.116 C 
HETATM   15  C15 UNL     1      41.216  37.811  35.827  1.00  0.00     0.297 C 
HETATM   16  N3  UNL     1      41.700  36.450  35.904  1.00  0.00     0.090 N 
HETATM   17  C16 UNL     1      40.659  35.480  36.189  1.00  0.00     0.273 C 
HETATM   18  C20 UNL     1      42.686  36.318  36.973  1.00  0.00     0.273 C 
HETATM   19  C17 UNL     1      40.134  35.660  37.616  1.00  0.00     0.037 C 
HETATM   20  C18 UNL     1      40.562  37.041  38.042  1.00  0.00     0.013 C 
HETATM   21  C19 UNL     1      42.092  36.984  38.187  1.00  0.00     0.037 C 
ENDBRANCH  12  14
ENDBRANCH   9  12
ENDBRANCH   7   8
ENDBRANCH   1   7
BRANCH   6  22
HETATM   22  C7  UNL     1      37.389  43.068  32.610  1.00  0.00     0.259 C 
HETATM   23  O2  UNL     1      36.570  43.891  32.081  1.00  0.00    -0.267 OA
HETATM   24  N1  UNL     1      37.111  41.729  32.435  1.00  0.00    -0.356 N 
ATOM     25  H1  UNL     1      37.743  41.037  32.836  1.00  0.00     0.162 HD
BRANCH  24  26
HETATM   26  C8  UNL     1      35.924  41.265  31.685  1.00  0.00     0.128 C 
BRANCH  26  27
HETATM   27  C9  UNL     1      35.583  39.851  32.059  1.00  0.00     0.066 C 
BRANCH  27  28
HETATM   28  C10 UNL     1      34.154  39.783  32.522  1.00  0.00    -0.016 A 
HETATM   29  C11 UNL     1      33.050  39.450  31.777  1.00  0.00     0.015 A 
HETATM   30  C12 UNL     1      31.866  39.447  32.398  1.00  0.00     0.008 A 
HETATM   31  C13 UNL     1      31.852  39.775  33.729  1.00  0.00     0.050 A 
HETATM   32  S3  UNL     1      33.496  40.077  34.064  1.00  0.00    -0.106 SA
ENDBRANCH  27  28
ENDBRANCH  26  27
ENDBRANCH  24  26
ENDBRANCH   6  22
TORSDOF 9
ENDMDL
MODEL 4
REMARK VINA RESULT: -7.553599311      3.642      7.492
REMARK  9 active torsions:
REMARK  status: ('A' for Active; 'I' for Inactive)
REMARK    1  A    between atoms: O1_1  and  C1_3 
REMARK    2  A    between atoms: C1_3  and  N2_23 
REMARK    3  A    between atoms: C2_4  and  S1_5 
REMARK    4  A    between atoms: S1_5  and  C3_6 
REMARK    5  A    between atoms: C6_11  and  C7_12 
REMARK       I    between atoms: C7_12  and  N1_14 
REMARK    6  A    between atoms: N1_14  and  C8_16 
REMARK    7  A    between atoms: C8_16  and  C9_17 
REMARK    8  A    between atoms: C9_17  and  C10_18 
REMARK    9  A    between atoms: N2_23  and  C14_25 
ROOT
HETATM    1  C3  UNL     1      38.994  44.016  33.733  1.00  0.00     0.049 A 
HETATM    2  C4  UNL     1      39.697  45.162  33.762  1.00  0.00     0.059 A 
HETATM    3 CL1  UNL     1      40.854  45.647  35.055  1.00  0.00    -0.082 Cl
HETATM    4  C5  UNL     1      39.460  46.089  32.775  1.00  0.00     0.075 A 
HETATM    5  S2  UNL     1      38.271  45.354  31.840  1.00  0.00    -0.093 SA
HETATM    6  C6  UNL     1      38.080  43.851  32.720  1.00  0.00     0.091 A 
ENDROOT
BRANCH   1   7
HETATM    7  S1  UNL     1      39.245  42.673  34.933  1.00  0.00    -0.095 SA
BRANCH   7   8
HETATM    8  C2  UNL     1      40.917  42.186  35.090  1.00  0.00     0.105 C 
HETATM    9  C1  UNL     1      41.453  41.472  36.209  1.00  0.00     0.142 C 
BRANCH   9  10
HETATM   10  O1  UNL     1      42.765  41.496  36.294  1.00  0.00    -0.346 OA
ATOM     11  H1  UNL     1      43.211  40.947  35.661  1.00  0.00     0.219 HD
ENDBRANCH   9  10
BRANCH   9  12
HETATM   12  N2  UNL     1      40.865  40.737  37.239  1.00  0.00    -0.364 N 
ATOM     13  H2  UNL     1      40.848  41.169  38.162  1.00  0.00     0.162 HD
BRANCH  12  14
HETATM   14  C14 UNL     1      40.275  39.415  37.123  1.00  0.00     0.116 C 
HETATM   15  C15 UNL     1      40.926  38.617  35.998  1.00  0.00     0.297 C 
HETATM   16  N3  UNL     1      40.862  37.220  36.366  1.00  0.00     0.090 N 
HETATM   17  C16 UNL     1      39.608  36.841  36.990  1.00  0.00     0.273 C 
HETATM   18  C20 UNL     1      41.913  36.895  37.326  1.00  0.00     0.273 C 
HETATM   19  C17 UNL     1      39.481  37.488  38.373  1.00  0.00     0.037 C 
HETATM   20  C18 UNL     1      40.476  38.621  38.391  1.00  0.00     0.013 C 
HETATM   21  C19 UNL     1      41.866  37.963  38.388  1.00  0.00     0.037 C 
ENDBRANCH  12  14
ENDBRANCH   9  12
ENDBRANCH   7   8
ENDBRANCH   1   7
BRANCH   6  22
HETATM   22  C7  UNL     1      37.120  42.829  32.349  1.00  0.00     0.259 C 
HETATM   23  O2  UNL     1      35.946  43.222  32.039  1.00  0.00    -0.267 OA
HETATM   24  N1  UNL     1      37.345  41.469  32.297  1.00  0.00    -0.356 N 
ATOM     25  H1  UNL     1      38.271  41.113  32.531  1.00  0.00     0.162 HD
BRANCH  24  26
HETATM   26  C8  UNL     1      36.284  40.512  31.913  1.00  0.00     0.128 C 
BRANCH  26  27
HETATM   27  C9  UNL     1      35.699  39.858  33.133  1.00  0.00     0.066 C 
BRANCH  27  28
HETATM   28  C10 UNL     1      34.205  39.774  32.990  1.00  0.00    -0.016 A 
HETATM   29  C11 UNL     1      33.490  39.486  31.854  1.00  0.00     0.015 A 
HETATM   30  C12 UNL     1      32.157  39.456  31.957  1.00  0.00     0.008 A 
HETATM   31  C13 UNL     1      31.614  39.714  33.188  1.00  0.00     0.050 A 
HETATM   32  S3  UNL     1      32.987  39.990  34.159  1.00  0.00    -0.106 SA
ENDBRANCH  27  28
ENDBRANCH  26  27
ENDBRANCH  24  26
ENDBRANCH   6  22
TORSDOF 9
ENDMDL
MODEL 5
REMARK VINA RESULT: -7.549339215      3.617      7.611
REMARK  9 active torsions:
REMARK  status: ('A' for Active; 'I' for Inactive)
REMARK    1  A    between atoms: O1_1  and  C1_3 
REMARK    2  A    between atoms: C1_3  and  N2_23 
REMARK    3  A    between atoms: C2_4  and  S1_5 
REMARK    4  A    between atoms: S1_5  and  C3_6 
REMARK    5  A    between atoms: C6_11  and  C7_12 
REMARK       I    between atoms: C7_12  and  N1_14 
REMARK    6  A    between atoms: N1_14  and  C8_16 
REMARK    7  A    between atoms: C8_16  and  C9_17 
REMARK    8  A    between atoms: C9_17  and  C10_18 
REMARK    9  A    between atoms: N2_23  and  C14_25 
ROOT
HETATM    1  C3  UNL     1      39.054  43.073  33.955  1.00  0.00     0.049 A 
HETATM    2  C4  UNL     1      39.429  44.347  33.746  1.00  0.00     0.059 A 
HETATM    3 CL1  UNL     1      40.742  45.210  34.627  1.00  0.00    -0.082 Cl
HETATM    4  C5  UNL     1      38.704  45.093  32.847  1.00  0.00     0.075 A 
HETATM    5  S2  UNL     1      37.523  44.017  32.323  1.00  0.00    -0.093 SA
HETATM    6  C6  UNL     1      37.965  42.603  33.260  1.00  0.00     0.091 A 
ENDROOT
BRANCH   1   7
HETATM    7  S1  UNL     1      39.955  41.948  35.065  1.00  0.00    -0.095 SA
BRANCH   7   8
HETATM    8  C2  UNL     1      39.417  42.034  36.726  1.00  0.00     0.105 C 
HETATM    9  C1  UNL     1      39.060  40.900  37.524  1.00  0.00     0.142 C 
BRANCH   9  10
HETATM   10  O1  UNL     1      38.375  41.189  38.608  1.00  0.00    -0.346 OA
ATOM     11  H1  UNL     1      37.740  40.530  38.861  1.00  0.00     0.219 HD
ENDBRANCH   9  10
BRANCH   9  12
HETATM   12  N2  UNL     1      39.300  39.531  37.393  1.00  0.00    -0.364 N 
ATOM     13  H2  UNL     1      38.591  38.984  36.906  1.00  0.00     0.162 HD
BRANCH  12  14
HETATM   14  C14 UNL     1      40.461  38.812  37.883  1.00  0.00     0.116 C 
HETATM   15  C15 UNL     1      40.198  37.311  37.940  1.00  0.00     0.297 C 
HETATM   16  N3  UNL     1      41.461  36.641  37.721  1.00  0.00     0.090 N 
HETATM   17  C16 UNL     1      42.580  37.280  38.387  1.00  0.00     0.273 C 
HETATM   18  C20 UNL     1      41.788  36.620  36.299  1.00  0.00     0.273 C 
HETATM   19  C17 UNL     1      42.881  38.638  37.745  1.00  0.00     0.037 C 
HETATM   20  C18 UNL     1      41.645  39.010  36.967  1.00  0.00     0.013 C 
HETATM   21  C19 UNL     1      41.573  38.021  35.790  1.00  0.00     0.037 C 
ENDBRANCH  12  14
ENDBRANCH   9  12
ENDBRANCH   7   8
ENDBRANCH   1   7
BRANCH   6  22
HETATM   22  C7  UNL     1      37.225  41.356  33.215  1.00  0.00     0.259 C 
HETATM   23  O2  UNL     1      37.005  40.773  34.329  1.00  0.00    -0.267 OA
HETATM   24  N1  UNL     1      36.734  40.732  32.089  1.00  0.00    -0.356 N 
ATOM     25  H1  UNL     1      36.882  41.167  31.178  1.00  0.00     0.162 HD
BRANCH  24  26
HETATM   26  C8  UNL     1      35.999  39.450  32.159  1.00  0.00     0.128 C 
BRANCH  26  27
HETATM   27  C9  UNL     1      34.682  39.557  31.443  1.00  0.00     0.066 C 
BRANCH  27  28
HETATM   28  C10 UNL     1      33.574  39.702  32.448  1.00  0.00    -0.016 A 
HETATM   29  C11 UNL     1      33.676  40.141  33.745  1.00  0.00     0.015 A 
HETATM   30  C12 UNL     1      32.551  40.198  34.465  1.00  0.00     0.008 A 
HETATM   31  C13 UNL     1      31.388  39.814  33.849  1.00  0.00     0.050 A 
HETATM   32  S3  UNL     1      31.910  39.387  32.285  1.00  0.00    -0.106 SA
ENDBRANCH  27  28
ENDBRANCH  26  27
ENDBRANCH  24  26
ENDBRANCH   6  22
TORSDOF 9
ENDMDL
