MODEL 1
REMARK VINA RESULT: -10.252803753      0.000      0.000
REMARK  9 active torsions:
REMARK  status: ('A' for Active; 'I' for Inactive)
REMARK    1  A    between atoms: C3_3  and  N1_4 
REMARK    2  A    between atoms: N1_4  and  C4_5 
REMARK    3  A    between atoms: N1_4  and  C16_22 
REMARK    4  A    between atoms: C5_8  and  C6_9 
REMARK    5  A    between atoms: C19_25  and  N5_26 
REMARK       I    between atoms: N5_26  and  C20_27 
REMARK    6  A    between atoms: C20_27  and  C21_29 
REMARK    7  A    between atoms: C21_29  and  N6_30 
REMARK    8  A    between atoms: C21_29  and  C22_34 
REMARK    9  A    between atoms: C22_34  and  C23_35 
ROOT
HETATM    1  C1  UNL     1      40.566  44.957  36.046  1.00  0.00     0.014 C 
HETATM    2  C2  UNL     1      40.545  43.906  35.458  1.00  0.00    -0.098 C 
HETATM    3  C3  UNL     1      40.519  42.630  34.791  1.00  0.00     0.218 C 
ENDROOT
BRANCH   3   4
HETATM    4  N1  UNL     1      39.195  41.955  34.797  1.00  0.00    -0.351 N 
BRANCH   4   5
HETATM    5  C4  UNL     1      38.282  42.486  33.864  1.00  0.00     0.118 A 
HETATM    6  N2  UNL     1      38.578  43.659  33.212  1.00  0.00    -0.331 N 
HETATM    7  C5  UNL     1      37.807  44.113  32.218  1.00  0.00     0.087 A 
ATOM      8  H2  UNL     1      39.400  44.193  33.492  1.00  0.00     0.168 HD
HETATM    9  N3  UNL     1      36.719  43.453  31.821  1.00  0.00    -0.345 N 
HETATM   10  C9  UNL     1      36.354  42.308  32.404  1.00  0.00     0.049 A 
ATOM     11  H3  UNL     1      36.154  43.828  31.059  1.00  0.00     0.167 HD
HETATM   12  C10 UNL     1      35.232  41.635  31.998  1.00  0.00     0.053 A 
HETATM   13  C15 UNL     1      37.162  41.827  33.447  1.00  0.00     0.035 A 
HETATM   14  C11 UNL     1      34.835  40.455  32.584  1.00  0.00     0.046 A 
HETATM   15  C12 UNL     1      33.647  39.748  32.127  1.00  0.00     0.099 C 
HETATM   16  C13 UNL     1      35.616  39.965  33.612  1.00  0.00     0.024 A 
HETATM   17  N4  UNL     1      32.712  39.170  31.774  1.00  0.00    -0.191 NA
HETATM   18  C14 UNL     1      36.734  40.647  34.011  1.00  0.00     0.019 A 
BRANCH   7  19
HETATM   19  C6  UNL     1      38.139  45.394  31.484  1.00  0.00     0.053 A 
HETATM   20  C7  UNL     1      39.395  46.100  31.766  1.00  0.00     0.013 A 
HETATM   21  C8  UNL     1      38.084  46.646  32.317  1.00  0.00     0.013 A 
ENDBRANCH   7  19
ENDBRANCH   4   5
BRANCH   4  22
HETATM   22  C16 UNL     1      39.009  40.904  35.739  1.00  0.00     0.087 C 
HETATM   23  C17 UNL     1      40.089  39.853  35.512  1.00  0.00     0.032 C 
HETATM   24  C18 UNL     1      39.864  38.645  36.333  1.00  0.00     0.070 C 
HETATM   25  C19 UNL     1      39.630  38.906  37.823  1.00  0.00     0.066 C 
HETATM   26  C24 UNL     1      39.059  40.210  38.180  1.00  0.00     0.070 C 
HETATM   27  C25 UNL     1      38.840  41.257  37.159  1.00  0.00     0.032 C 
BRANCH  25  28
HETATM   28  N5  UNL     1      39.145  37.737  38.413  1.00  0.00    -0.378 NA
HETATM   29  C20 UNL     1      38.682  36.620  39.006  1.00  0.00     0.322 C 
HETATM   30  O1  UNL     1      38.563  36.382  40.267  1.00  0.00    -0.255 OA
BRANCH  29  31
HETATM   31  C21 UNL     1      38.215  35.433  38.197  1.00  0.00     0.290 C 
BRANCH  31  32
HETATM   32  N6  UNL     1      37.212  34.699  38.989  1.00  0.00    -0.065 N 
ATOM     33  H63 UNL     1      37.614  33.914  39.502  1.00  0.00     0.275 HD
ATOM     34  H62 UNL     1      36.879  35.232  39.792  1.00  0.00     0.275 HD
ATOM     35  H61 UNL     1      36.457  34.415  38.365  1.00  0.00     0.275 HD
ENDBRANCH  31  32
BRANCH  31  36
HETATM   36  C22 UNL     1      39.309  34.514  37.835  1.00  0.00     0.059 C 
BRANCH  36  37
HETATM   37  C23 UNL     1      40.164  34.780  36.663  1.00  0.00     0.117 C 
HETATM   38 CL1  UNL     1      41.776  35.391  36.985  1.00  0.00    -0.130 Cl
ENDBRANCH  36  37
ENDBRANCH  31  36
ENDBRANCH  29  31
ENDBRANCH  25  28
ENDBRANCH   4  22
ENDBRANCH   3   4
TORSDOF 9
ENDMDL
MODEL 2
REMARK VINA RESULT: -9.908458588      2.097      2.487
REMARK  9 active torsions:
REMARK  status: ('A' for Active; 'I' for Inactive)
REMARK    1  A    between atoms: C3_3  and  N1_4 
REMARK    2  A    between atoms: N1_4  and  C4_5 
REMARK    3  A    between atoms: N1_4  and  C16_22 
REMARK    4  A    between atoms: C5_8  and  C6_9 
REMARK    5  A    between atoms: C19_25  and  N5_26 
REMARK       I    between atoms: N5_26  and  C20_27 
REMARK    6  A    between atoms: C20_27  and  C21_29 
REMARK    7  A    between atoms: C21_29  and  N6_30 
REMARK    8  A    between atoms: C21_29  and  C22_34 
REMARK    9  A    between atoms: C22_34  and  C23_35 
ROOT
HETATM    1  C1  UNL     1      39.025  43.348  38.729  1.00  0.00     0.014 C 
HETATM    2  C2  UNL     1      39.727  42.917  37.851  1.00  0.00    -0.098 C 
HETATM    3  C3  UNL     1      40.564  42.363  36.818  1.00  0.00     0.218 C 
ENDROOT
BRANCH   3   4
HETATM    4  N1  UNL     1      39.846  41.530  35.818  1.00  0.00    -0.351 N 
BRANCH   4   5
HETATM    5  C4  UNL     1      39.172  42.280  34.834  1.00  0.00     0.118 A 
HETATM    6  N2  UNL     1      39.609  43.544  34.521  1.00  0.00    -0.331 N 
HETATM    7  C5  UNL     1      39.086  44.224  33.495  1.00  0.00     0.087 A 
ATOM      8  H2  UNL     1      40.345  43.972  35.082  1.00  0.00     0.168 HD
HETATM    9  N3  UNL     1      38.118  43.709  32.737  1.00  0.00    -0.345 N 
HETATM   10  C9  UNL     1      37.629  42.489  32.974  1.00  0.00     0.049 A 
ATOM     11  H3  UNL     1      37.743  44.256  31.961  1.00  0.00     0.167 HD
HETATM   12  C10 UNL     1      36.631  41.964  32.197  1.00  0.00     0.053 A 
HETATM   13  C15 UNL     1      38.176  41.771  34.050  1.00  0.00     0.035 A 
HETATM   14  C11 UNL     1      36.110  40.712  32.423  1.00  0.00     0.046 A 
HETATM   15  C12 UNL     1      35.058  40.167  31.576  1.00  0.00     0.099 C 
HETATM   16  C13 UNL     1      36.634  39.989  33.477  1.00  0.00     0.024 A 
HETATM   17  N4  UNL     1      34.229  39.716  30.910  1.00  0.00    -0.191 NA
HETATM   18  C14 UNL     1      37.631  40.523  34.248  1.00  0.00     0.019 A 
BRANCH   7  19
HETATM   19  C6  UNL     1      39.577  45.609  33.135  1.00  0.00     0.053 A 
HETATM   20  C7  UNL     1      38.622  46.712  32.975  1.00  0.00     0.013 A 
HETATM   21  C8  UNL     1      39.242  46.070  31.742  1.00  0.00     0.013 A 
ENDBRANCH   7  19
ENDBRANCH   4   5
BRANCH   4  22
HETATM   22  C16 UNL     1      39.904  40.119  35.992  1.00  0.00     0.087 C 
HETATM   23  C17 UNL     1      41.286  39.634  35.572  1.00  0.00     0.032 C 
HETATM   24  C18 UNL     1      41.373  38.159  35.556  1.00  0.00     0.070 C 
HETATM   25  C19 UNL     1      40.891  37.466  36.833  1.00  0.00     0.066 C 
HETATM   26  C24 UNL     1      39.887  38.179  37.630  1.00  0.00     0.070 C 
HETATM   27  C25 UNL     1      39.461  39.551  37.277  1.00  0.00     0.032 C 
BRANCH  25  28
HETATM   28  N5  UNL     1      40.748  36.100  36.576  1.00  0.00    -0.378 NA
HETATM   29  C20 UNL     1      40.633  34.784  36.312  1.00  0.00     0.322 C 
HETATM   30  O1  UNL     1      41.430  34.039  35.628  1.00  0.00    -0.255 OA
BRANCH  29  31
HETATM   31  C21 UNL     1      39.466  33.976  36.829  1.00  0.00     0.290 C 
BRANCH  31  32
HETATM   32  N6  UNL     1      39.107  32.977  35.807  1.00  0.00    -0.065 N 
ATOM     33  H63 UNL     1      39.911  32.437  35.487  1.00  0.00     0.275 HD
ATOM     34  H62 UNL     1      38.564  32.203  36.189  1.00  0.00     0.275 HD
ATOM     35  H61 UNL     1      38.627  33.457  35.046  1.00  0.00     0.275 HD
ENDBRANCH  31  32
BRANCH  31  36
HETATM   36  C22 UNL     1      38.282  34.800  37.135  1.00  0.00     0.059 C 
BRANCH  36  37
HETATM   37  C23 UNL     1      37.854  35.021  38.529  1.00  0.00     0.117 C 
HETATM   38 CL1  UNL     1      36.576  33.982  39.134  1.00  0.00    -0.130 Cl
ENDBRANCH  36  37
ENDBRANCH  31  36
ENDBRANCH  29  31
ENDBRANCH  25  28
ENDBRANCH   4  22
ENDBRANCH   3   4
TORSDOF 9
ENDMDL
MODEL 3
REMARK VINA RESULT: -9.686526174      1.849      2.123
REMARK  9 active torsions:
REMARK  status: ('A' for Active; 'I' for Inactive)
REMARK    1  A    between atoms: C3_3  and  N1_4 
REMARK    2  A    between atoms: N1_4  and  C4_5 
REMARK    3  A    between atoms: N1_4  and  C16_22 
REMARK    4  A    between atoms: C5_8  and  C6_9 
REMARK    5  A    between atoms: C19_25  and  N5_26 
REMARK       I    between atoms: N5_26  and  C20_27 
REMARK    6  A    between atoms: C20_27  and  C21_29 
REMARK    7  A    between atoms: C21_29  and  N6_30 
REMARK    8  A    between atoms: C21_29  and  C22_34 
REMARK    9  A    between atoms: C22_34  and  C23_35 
ROOT
HETATM    1  C1  UNL     1      39.083  43.869  38.671  1.00  0.00     0.014 C 
HETATM    2  C2  UNL     1      39.768  43.446  37.776  1.00  0.00    -0.098 C 
HETATM    3  C3  UNL     1      40.589  42.903  36.724  1.00  0.00     0.218 C 
ENDROOT
BRANCH   3   4
HETATM    4  N1  UNL     1      39.882  41.979  35.801  1.00  0.00    -0.351 N 
BRANCH   4   5
HETATM    5  C4  UNL     1      39.184  42.633  34.767  1.00  0.00     0.118 A 
HETATM    6  N2  UNL     1      39.561  43.898  34.384  1.00  0.00    -0.331 N 
HETATM    7  C5  UNL     1      39.018  44.488  33.313  1.00  0.00     0.087 A 
ATOM      8  H2  UNL     1      40.266  44.395  34.926  1.00  0.00     0.168 HD
HETATM    9  N3  UNL     1      38.088  43.879  32.576  1.00  0.00    -0.345 N 
HETATM   10  C9  UNL     1      37.660  42.652  32.881  1.00  0.00     0.049 A 
ATOM     11  H3  UNL     1      37.698  44.359  31.765  1.00  0.00     0.167 HD
HETATM   12  C10 UNL     1      36.700  42.031  32.126  1.00  0.00     0.053 A 
HETATM   13  C15 UNL     1      38.227  42.028  34.004  1.00  0.00     0.035 A 
HETATM   14  C11 UNL     1      36.240  40.769  32.421  1.00  0.00     0.046 A 
HETATM   15  C12 UNL     1      35.230  40.121  31.596  1.00  0.00     0.099 C 
HETATM   16  C13 UNL     1      36.786  40.138  33.521  1.00  0.00     0.024 A 
HETATM   17  N4  UNL     1      34.434  39.590  30.949  1.00  0.00    -0.191 NA
HETATM   18  C14 UNL     1      37.744  40.768  34.270  1.00  0.00     0.019 A 
BRANCH   7  19
HETATM   19  C6  UNL     1      39.444  45.873  32.875  1.00  0.00     0.053 A 
HETATM   20  C7  UNL     1      38.498  46.993  32.952  1.00  0.00     0.013 A 
HETATM   21  C8  UNL     1      38.816  46.367  31.600  1.00  0.00     0.013 A 
ENDBRANCH   7  19
ENDBRANCH   4   5
BRANCH   4  22
HETATM   22  C16 UNL     1      39.972  40.587  36.086  1.00  0.00     0.087 C 
HETATM   23  C17 UNL     1      41.418  40.145  35.896  1.00  0.00     0.032 C 
HETATM   24  C18 UNL     1      41.565  38.678  36.003  1.00  0.00     0.070 C 
HETATM   25  C19 UNL     1      40.938  38.051  37.250  1.00  0.00     0.066 C 
HETATM   26  C24 UNL     1      39.805  38.766  37.847  1.00  0.00     0.070 C 
HETATM   27  C25 UNL     1      39.378  40.088  37.337  1.00  0.00     0.032 C 
BRANCH  25  28
HETATM   28  N5  UNL     1      40.887  36.666  37.079  1.00  0.00    -0.378 NA
HETATM   29  C20 UNL     1      40.865  35.330  36.910  1.00  0.00     0.322 C 
HETATM   30  O1  UNL     1      41.863  34.537  36.720  1.00  0.00    -0.255 OA
BRANCH  29  31
HETATM   31  C21 UNL     1      39.569  34.554  36.925  1.00  0.00     0.290 C 
BRANCH  31  32
HETATM   32  N6  UNL     1      39.041  34.565  38.301  1.00  0.00    -0.065 N 
ATOM     33  H63 UNL     1      39.644  35.073  38.949  1.00  0.00     0.275 HD
ATOM     34  H62 UNL     1      38.211  35.149  38.398  1.00  0.00     0.275 HD
ATOM     35  H61 UNL     1      38.879  33.600  38.589  1.00  0.00     0.275 HD
ENDBRANCH  31  32
BRANCH  31  36
HETATM   36  C22 UNL     1      39.726  33.158  36.480  1.00  0.00     0.059 C 
BRANCH  36  37
HETATM   37  C23 UNL     1      39.418  32.767  35.092  1.00  0.00     0.117 C 
HETATM   38 CL1  UNL     1      40.666  33.060  33.895  1.00  0.00    -0.130 Cl
ENDBRANCH  36  37
ENDBRANCH  31  36
ENDBRANCH  29  31
ENDBRANCH  25  28
ENDBRANCH   4  22
ENDBRANCH   3   4
TORSDOF 9
ENDMDL
MODEL 4
REMARK VINA RESULT: -9.488825152      1.649      1.973
REMARK  9 active torsions:
REMARK  status: ('A' for Active; 'I' for Inactive)
REMARK    1  A    between atoms: C3_3  and  N1_4 
REMARK    2  A    between atoms: N1_4  and  C4_5 
REMARK    3  A    between atoms: N1_4  and  C16_22 
REMARK    4  A    between atoms: C5_8  and  C6_9 
REMARK    5  A    between atoms: C19_25  and  N5_26 
REMARK       I    between atoms: N5_26  and  C20_27 
REMARK    6  A    between atoms: C20_27  and  C21_29 
REMARK    7  A    between atoms: C21_29  and  N6_30 
REMARK    8  A    between atoms: C21_29  and  C22_34 
REMARK    9  A    between atoms: C22_34  and  C23_35 
ROOT
HETATM    1  C1  UNL     1      39.131  43.930  38.629  1.00  0.00     0.014 C 
HETATM    2  C2  UNL     1      39.743  43.452  37.709  1.00  0.00    -0.098 C 
HETATM    3  C3  UNL     1      40.475  42.844  36.627  1.00  0.00     0.218 C 
ENDROOT
BRANCH   3   4
HETATM    4  N1  UNL     1      39.670  41.941  35.765  1.00  0.00    -0.351 N 
BRANCH   4   5
HETATM    5  C4  UNL     1      39.019  42.600  34.704  1.00  0.00     0.118 A 
HETATM    6  N2  UNL     1      39.448  43.844  34.308  1.00  0.00    -0.331 N 
HETATM    7  C5  UNL     1      38.951  44.433  33.215  1.00  0.00     0.087 A 
ATOM      8  H2  UNL     1      40.159  44.326  34.857  1.00  0.00     0.168 HD
HETATM    9  N3  UNL     1      38.017  43.844  32.468  1.00  0.00    -0.345 N 
HETATM   10  C9  UNL     1      37.538  42.639  32.783  1.00  0.00     0.049 A 
ATOM     11  H3  UNL     1      37.661  44.323  31.640  1.00  0.00     0.167 HD
HETATM   12  C10 UNL     1      36.573  42.039  32.018  1.00  0.00     0.053 A 
HETATM   13  C15 UNL     1      38.058  42.015  33.930  1.00  0.00     0.035 A 
HETATM   14  C11 UNL     1      36.063  40.799  32.324  1.00  0.00     0.046 A 
HETATM   15  C12 UNL     1      35.048  40.172  31.487  1.00  0.00     0.099 C 
HETATM   16  C13 UNL     1      36.561  40.169  33.448  1.00  0.00     0.024 A 
HETATM   17  N4  UNL     1      34.249  39.658  30.833  1.00  0.00    -0.191 NA
HETATM   18  C14 UNL     1      37.524  40.778  34.206  1.00  0.00     0.019 A 
BRANCH   7  19
HETATM   19  C6  UNL     1      39.435  45.794  32.763  1.00  0.00     0.053 A 
HETATM   20  C7  UNL     1      38.669  46.999  33.103  1.00  0.00     0.013 A 
HETATM   21  C8  UNL     1      38.612  46.446  31.685  1.00  0.00     0.013 A 
ENDBRANCH   7  19
ENDBRANCH   4   5
BRANCH   4  22
HETATM   22  C16 UNL     1      39.634  40.564  36.126  1.00  0.00     0.087 C 
HETATM   23  C17 UNL     1      40.935  39.911  35.676  1.00  0.00     0.032 C 
HETATM   24  C18 UNL     1      40.908  38.444  35.857  1.00  0.00     0.070 C 
HETATM   25  C19 UNL     1      40.485  37.968  37.249  1.00  0.00     0.066 C 
HETATM   26  C24 UNL     1      39.608  38.865  38.012  1.00  0.00     0.070 C 
HETATM   27  C25 UNL     1      39.260  40.210  37.506  1.00  0.00     0.032 C 
BRANCH  25  28
HETATM   28  N5  UNL     1      40.217  36.599  37.192  1.00  0.00    -0.378 NA
HETATM   29  C20 UNL     1      39.949  35.279  37.164  1.00  0.00     0.322 C 
HETATM   30  O1  UNL     1      39.424  34.555  38.091  1.00  0.00    -0.255 OA
BRANCH  29  31
HETATM   31  C21 UNL     1      40.260  34.438  35.948  1.00  0.00     0.290 C 
BRANCH  31  32
HETATM   32  N6  UNL     1      40.162  33.018  36.331  1.00  0.00    -0.065 N 
ATOM     33  H63 UNL     1      40.873  32.441  35.881  1.00  0.00     0.275 HD
ATOM     34  H62 UNL     1      40.440  32.852  37.298  1.00  0.00     0.275 HD
ATOM     35  H61 UNL     1      39.213  32.698  36.135  1.00  0.00     0.275 HD
ENDBRANCH  31  32
BRANCH  31  36
HETATM   36  C22 UNL     1      41.601  34.697  35.393  1.00  0.00     0.059 C 
BRANCH  36  37
HETATM   37  C23 UNL     1      42.815  34.347  36.152  1.00  0.00     0.117 C 
HETATM   38 CL1  UNL     1      43.638  35.661  36.972  1.00  0.00    -0.130 Cl
ENDBRANCH  36  37
ENDBRANCH  31  36
ENDBRANCH  29  31
ENDBRANCH  25  28
ENDBRANCH   4  22
ENDBRANCH   3   4
TORSDOF 9
ENDMDL
MODEL 5
REMARK VINA RESULT: -9.341874939      2.357      2.987
REMARK  9 active torsions:
REMARK  status: ('A' for Active; 'I' for Inactive)
REMARK    1  A    between atoms: C3_3  and  N1_4 
REMARK    2  A    between atoms: N1_4  and  C4_5 
REMARK    3  A    between atoms: N1_4  and  C16_22 
REMARK    4  A    between atoms: C5_8  and  C6_9 
REMARK    5  A    between atoms: C19_25  and  N5_26 
REMARK       I    between atoms: N5_26  and  C20_27 
REMARK    6  A    between atoms: C20_27  and  C21_29 
REMARK    7  A    between atoms: C21_29  and  N6_30 
REMARK    8  A    between atoms: C21_29  and  C22_34 
REMARK    9  A    between atoms: C22_34  and  C23_35 
ROOT
HETATM    1  C1  UNL     1      41.022  43.696  38.799  1.00  0.00     0.014 C 
HETATM    2  C2  UNL     1      40.150  43.096  38.225  1.00  0.00    -0.098 C 
HETATM    3  C3  UNL     1      39.104  42.410  37.510  1.00  0.00     0.218 C 
ENDROOT
BRANCH   3   4
HETATM    4  N1  UNL     1      39.530  41.798  36.225  1.00  0.00    -0.351 N 
BRANCH   4   5
HETATM    5  C4  UNL     1      39.003  42.439  35.088  1.00  0.00     0.118 A 
HETATM    6  N2  UNL     1      39.518  43.648  34.686  1.00  0.00    -0.331 N 
HETATM    7  C5  UNL     1      39.144  44.213  33.533  1.00  0.00     0.087 A 
ATOM      8  H2  UNL     1      40.198  44.124  35.278  1.00  0.00     0.168 HD
HETATM    9  N3  UNL     1      38.254  43.632  32.728  1.00  0.00    -0.345 N 
HETATM   10  C9  UNL     1      37.698  42.461  33.043  1.00  0.00     0.049 A 
ATOM     11  H3  UNL     1      37.993  44.092  31.855  1.00  0.00     0.167 HD
HETATM   12  C10 UNL     1      36.779  41.869  32.217  1.00  0.00     0.053 A 
HETATM   13  C15 UNL     1      38.089  41.863  34.253  1.00  0.00     0.035 A 
HETATM   14  C11 UNL     1      36.191  40.663  32.522  1.00  0.00     0.046 A 
HETATM   15  C12 UNL     1      35.227  40.045  31.622  1.00  0.00     0.099 C 
HETATM   16  C13 UNL     1      36.562  40.060  33.707  1.00  0.00     0.024 A 
HETATM   17  N4  UNL     1      34.466  39.537  30.918  1.00  0.00    -0.191 NA
HETATM   18  C14 UNL     1      37.480  40.660  34.526  1.00  0.00     0.019 A 
BRANCH   7  19
HETATM   19  C6  UNL     1      39.724  45.534  33.077  1.00  0.00     0.053 A 
HETATM   20  C7  UNL     1      38.905  46.752  33.120  1.00  0.00     0.013 A 
HETATM   21  C8  UNL     1      39.169  46.070  31.785  1.00  0.00     0.013 A 
ENDBRANCH   7  19
ENDBRANCH   4   5
BRANCH   4  22
HETATM   22  C16 UNL     1      40.371  40.652  36.303  1.00  0.00     0.087 C 
HETATM   23  C17 UNL     1      39.653  39.576  37.108  1.00  0.00     0.032 C 
HETATM   24  C18 UNL     1      40.527  38.417  37.385  1.00  0.00     0.070 C 
HETATM   25  C19 UNL     1      41.238  37.832  36.161  1.00  0.00     0.066 C 
HETATM   26  C24 UNL     1      41.491  38.752  35.046  1.00  0.00     0.070 C 
HETATM   27  C25 UNL     1      40.971  40.137  35.061  1.00  0.00     0.032 C 
BRANCH  25  28
HETATM   28  N5  UNL     1      42.237  36.960  36.598  1.00  0.00    -0.378 NA
HETATM   29  C20 UNL     1      43.215  36.140  37.030  1.00  0.00     0.322 C 
HETATM   30  O1  UNL     1      44.252  36.442  37.730  1.00  0.00    -0.255 OA
BRANCH  29  31
HETATM   31  C21 UNL     1      43.200  34.662  36.717  1.00  0.00     0.290 C 
BRANCH  31  32
HETATM   32  N6  UNL     1      44.543  34.275  36.252  1.00  0.00    -0.065 N 
ATOM     33  H63 UNL     1      44.522  33.770  35.365  1.00  0.00     0.275 HD
ATOM     34  H62 UNL     1      45.098  35.073  35.944  1.00  0.00     0.275 HD
ATOM     35  H61 UNL     1      44.998  33.744  36.996  1.00  0.00     0.275 HD
ENDBRANCH  31  32
BRANCH  31  36
HETATM   36  C22 UNL     1      42.210  34.300  35.686  1.00  0.00     0.059 C 
BRANCH  36  37
HETATM   37  C23 UNL     1      40.950  33.626  36.050  1.00  0.00     0.117 C 
HETATM   38 CL1  UNL     1      39.852  34.516  37.089  1.00  0.00    -0.130 Cl
ENDBRANCH  36  37
ENDBRANCH  31  36
ENDBRANCH  29  31
ENDBRANCH  25  28
ENDBRANCH   4  22
ENDBRANCH   3   4
TORSDOF 9
ENDMDL
