MODEL 1
REMARK VINA RESULT: -7.517463700      0.000      0.000
REMARK  9 active torsions:
REMARK  status: ('A' for Active; 'I' for Inactive)
REMARK    1  A    between atoms: C3_3  and  C4_4 
REMARK    2  A    between atoms: C9_10  and  S1_11 
REMARK    3  A    between atoms: S1_11  and  N1_13 
REMARK    4  A    between atoms: S1_11  and  C14_20 
REMARK       I    between atoms: N1_13  and  C10_15 
REMARK    5  A    between atoms: C10_15  and  C11_17 
REMARK    6  A    between atoms: C14_20  and  C16_22 
REMARK    7  A    between atoms: C16_22  and  O3_24 
REMARK    8  A    between atoms: C16_22  and  C18_26 
REMARK    9  A    between atoms: C18_26  and  N2_27 
ROOT
HETATM    1  C1  UNL     1      40.877  45.143  34.350  1.00  0.00     0.112 C 
HETATM    2  C2  UNL     1      39.862  44.131  34.121  1.00  0.00    -0.105 C 
HETATM    3  C3  UNL     1      39.030  43.292  33.908  1.00  0.00    -0.066 C 
ENDROOT
BRANCH   3   4
HETATM    4  C4  UNL     1      38.014  42.316  33.644  1.00  0.00     0.037 A 
HETATM    5  C5  UNL     1      36.994  42.711  32.825  1.00  0.00     0.024 A 
HETATM    6  C6  UNL     1      35.992  41.842  32.483  1.00  0.00     0.025 A 
HETATM    7  C7  UNL     1      36.043  40.572  32.984  1.00  0.00     0.035 A 
HETATM    8 CL1  UNL     1      34.784  39.398  32.589  1.00  0.00    -0.084 Cl
HETATM    9  C8  UNL     1      37.074  40.197  33.804  1.00  0.00     0.047 A 
HETATM   10  C9  UNL     1      38.062  41.011  34.160  1.00  0.00     0.059 A 
BRANCH  10  11
HETATM   11  S1  UNL     1      39.592  40.662  35.276  1.00  0.00     0.067 S 
HETATM   12  O1  UNL     1      40.371  40.072  34.001  1.00  0.00    -0.244 OA
BRANCH  11  13
HETATM   13  N1  UNL     1      39.719  39.100  36.231  1.00  0.00    -0.282 N 
HETATM   14  C10 UNL     1      40.426  37.919  36.258  1.00  0.00     0.232 C 
HETATM   15  O2  UNL     1      41.312  37.623  35.458  1.00  0.00    -0.272 OA
ATOM     16  H1  UNL     1      39.042  39.111  36.995  1.00  0.00     0.178 HD
BRANCH  14  17
HETATM   17  C11 UNL     1      40.181  36.843  37.290  1.00  0.00     0.070 C 
HETATM   18  C12 UNL     1      41.502  36.228  37.639  1.00  0.00     0.019 C 
HETATM   19  C13 UNL     1      39.437  37.323  38.471  1.00  0.00     0.019 C 
ENDBRANCH  14  17
ENDBRANCH  11  13
BRANCH  11  20
HETATM   20  C14 UNL     1      38.880  41.613  36.693  1.00  0.00     0.124 C 
HETATM   21  C15 UNL     1      38.095  40.720  37.677  1.00  0.00     0.028 C 
BRANCH  20  22
HETATM   22  C16 UNL     1      39.868  42.339  37.656  1.00  0.00     0.096 C 
HETATM   23  C17 UNL     1      39.019  43.344  38.472  1.00  0.00     0.049 C 
BRANCH  22  24
HETATM   24  O3  UNL     1      40.781  43.064  36.988  1.00  0.00    -0.387 OA
ATOM     25  H3  UNL     1      41.120  43.779  37.513  1.00  0.00     0.210 HD
ENDBRANCH  22  24
BRANCH  22  26
HETATM   26  C18 UNL     1      40.430  41.399  38.622  1.00  0.00     0.310 C 
BRANCH  26  27
HETATM   27  N2  UNL     1      41.854  41.514  38.807  1.00  0.00     0.092 N 
HETATM   28  C19 UNL     1      42.107  41.758  40.253  1.00  0.00     0.282 C 
HETATM   29  C20 UNL     1      43.569  41.556  40.602  1.00  0.00     0.104 C 
HETATM   30  S2  UNL     1      43.721  39.710  40.729  1.00  0.00    -0.166 SA
HETATM   31  C21 UNL     1      42.476  39.202  39.454  1.00  0.00     0.104 C 
HETATM   32  C22 UNL     1      42.590  40.335  38.417  1.00  0.00     0.282 C 
ENDBRANCH  26  27
ENDBRANCH  22  26
ENDBRANCH  20  22
ENDBRANCH  11  20
ENDBRANCH  10  11
ENDBRANCH   3   4
TORSDOF 9
ENDMDL
MODEL 2
REMARK VINA RESULT: -7.451317751      1.903      2.529
REMARK  9 active torsions:
REMARK  status: ('A' for Active; 'I' for Inactive)
REMARK    1  A    between atoms: C3_3  and  C4_4 
REMARK    2  A    between atoms: C9_10  and  S1_11 
REMARK    3  A    between atoms: S1_11  and  N1_13 
REMARK    4  A    between atoms: S1_11  and  C14_20 
REMARK       I    between atoms: N1_13  and  C10_15 
REMARK    5  A    between atoms: C10_15  and  C11_17 
REMARK    6  A    between atoms: C14_20  and  C16_22 
REMARK    7  A    between atoms: C16_22  and  O3_24 
REMARK    8  A    between atoms: C16_22  and  C18_26 
REMARK    9  A    between atoms: C18_26  and  N2_27 
ROOT
HETATM    1  C1  UNL     1      41.362  44.920  34.767  1.00  0.00     0.112 C 
HETATM    2  C2  UNL     1      40.291  43.987  34.471  1.00  0.00    -0.105 C 
HETATM    3  C3  UNL     1      39.416  43.208  34.205  1.00  0.00    -0.066 C 
ENDROOT
BRANCH   3   4
HETATM    4  C4  UNL     1      38.353  42.307  33.870  1.00  0.00     0.037 A 
HETATM    5  C5  UNL     1      37.369  42.804  33.063  1.00  0.00     0.024 A 
HETATM    6  C6  UNL     1      36.327  42.012  32.657  1.00  0.00     0.025 A 
HETATM    7  C7  UNL     1      36.302  40.715  33.083  1.00  0.00     0.035 A 
HETATM    8 CL1  UNL     1      34.988  39.637  32.603  1.00  0.00    -0.084 Cl
HETATM    9  C8  UNL     1      37.298  40.237  33.892  1.00  0.00     0.047 A 
HETATM   10  C9  UNL     1      38.322  40.974  34.308  1.00  0.00     0.059 A 
BRANCH  10  11
HETATM   11  S1  UNL     1      39.814  40.477  35.422  1.00  0.00     0.067 S 
HETATM   12  O1  UNL     1      40.524  39.804  34.147  1.00  0.00    -0.244 OA
BRANCH  11  13
HETATM   13  N1  UNL     1      39.784  38.916  36.386  1.00  0.00    -0.282 N 
HETATM   14  C10 UNL     1      40.360  37.665  36.411  1.00  0.00     0.232 C 
HETATM   15  O2  UNL     1      41.196  37.270  35.600  1.00  0.00    -0.272 OA
ATOM     16  H1  UNL     1      39.124  39.003  37.159  1.00  0.00     0.178 HD
BRANCH  14  17
HETATM   17  C11 UNL     1      40.015  36.627  37.454  1.00  0.00     0.070 C 
HETATM   18  C12 UNL     1      39.274  37.311  38.560  1.00  0.00     0.019 C 
HETATM   19  C13 UNL     1      39.291  35.464  36.904  1.00  0.00     0.019 C 
ENDBRANCH  14  17
ENDBRANCH  11  13
BRANCH  11  20
HETATM   20  C14 UNL     1      39.207  41.503  36.835  1.00  0.00     0.124 C 
HETATM   21  C15 UNL     1      38.030  40.847  37.588  1.00  0.00     0.028 C 
BRANCH  20  22
HETATM   22  C16 UNL     1      40.197  41.795  38.004  1.00  0.00     0.096 C 
HETATM   23  C17 UNL     1      41.560  42.125  37.347  1.00  0.00     0.049 C 
BRANCH  22  24
HETATM   24  O3  UNL     1      40.397  40.713  38.775  1.00  0.00    -0.387 OA
ATOM     25  H3  UNL     1      41.286  40.674  39.108  1.00  0.00     0.210 HD
ENDBRANCH  22  24
BRANCH  22  26
HETATM   26  C18 UNL     1      39.794  42.994  38.733  1.00  0.00     0.310 C 
BRANCH  26  27
HETATM   27  N2  UNL     1      40.122  42.976  40.136  1.00  0.00     0.092 N 
HETATM   28  C19 UNL     1      41.049  44.111  40.400  1.00  0.00     0.282 C 
HETATM   29  C20 UNL     1      41.182  44.383  41.887  1.00  0.00     0.104 C 
HETATM   30  S2  UNL     1      39.645  45.347  42.278  1.00  0.00    -0.166 SA
HETATM   31  C21 UNL     1      38.471  44.574  41.069  1.00  0.00     0.104 C 
HETATM   32  C22 UNL     1      38.978  43.121  41.005  1.00  0.00     0.282 C 
ENDBRANCH  26  27
ENDBRANCH  22  26
ENDBRANCH  20  22
ENDBRANCH  11  20
ENDBRANCH  10  11
ENDBRANCH   3   4
TORSDOF 9
ENDMDL
MODEL 3
REMARK VINA RESULT: -7.433883241      0.729      1.058
REMARK  9 active torsions:
REMARK  status: ('A' for Active; 'I' for Inactive)
REMARK    1  A    between atoms: C3_3  and  C4_4 
REMARK    2  A    between atoms: C9_10  and  S1_11 
REMARK    3  A    between atoms: S1_11  and  N1_13 
REMARK    4  A    between atoms: S1_11  and  C14_20 
REMARK       I    between atoms: N1_13  and  C10_15 
REMARK    5  A    between atoms: C10_15  and  C11_17 
REMARK    6  A    between atoms: C14_20  and  C16_22 
REMARK    7  A    between atoms: C16_22  and  O3_24 
REMARK    8  A    between atoms: C16_22  and  C18_26 
REMARK    9  A    between atoms: C18_26  and  N2_27 
ROOT
HETATM    1  C1  UNL     1      40.901  45.055  34.502  1.00  0.00     0.112 C 
HETATM    2  C2  UNL     1      39.892  44.057  34.199  1.00  0.00    -0.105 C 
HETATM    3  C3  UNL     1      39.045  43.247  33.935  1.00  0.00    -0.066 C 
ENDROOT
BRANCH   3   4
HETATM    4  C4  UNL     1      38.015  42.292  33.649  1.00  0.00     0.037 A 
HETATM    5  C5  UNL     1      37.027  42.704  32.800  1.00  0.00     0.024 A 
HETATM    6  C6  UNL     1      36.016  41.855  32.436  1.00  0.00     0.025 A 
HETATM    7  C7  UNL     1      36.025  40.587  32.945  1.00  0.00     0.035 A 
HETATM    8 CL1  UNL     1      34.752  39.439  32.523  1.00  0.00    -0.084 Cl
HETATM    9  C8  UNL     1      37.026  40.196  33.794  1.00  0.00     0.047 A 
HETATM   10  C9  UNL     1      38.021  40.990  34.173  1.00  0.00     0.059 A 
BRANCH  10  11
HETATM   11  S1  UNL     1      39.513  40.615  35.332  1.00  0.00     0.067 S 
HETATM   12  O1  UNL     1      40.321  40.021  34.077  1.00  0.00    -0.244 OA
BRANCH  11  13
HETATM   13  N1  UNL     1      39.590  39.046  36.282  1.00  0.00    -0.282 N 
HETATM   14  C10 UNL     1      40.295  37.864  36.337  1.00  0.00     0.232 C 
HETATM   15  O2  UNL     1      41.220  37.573  35.580  1.00  0.00    -0.272 OA
ATOM     16  H1  UNL     1      38.876  39.052  37.010  1.00  0.00     0.178 HD
BRANCH  14  17
HETATM   17  C11 UNL     1      39.998  36.781  37.348  1.00  0.00     0.070 C 
HETATM   18  C12 UNL     1      41.276  36.059  37.641  1.00  0.00     0.019 C 
HETATM   19  C13 UNL     1      39.325  37.283  38.562  1.00  0.00     0.019 C 
ENDBRANCH  14  17
ENDBRANCH  11  13
BRANCH  11  20
HETATM   20  C14 UNL     1      38.772  41.568  36.732  1.00  0.00     0.124 C 
HETATM   21  C15 UNL     1      38.015  40.668  37.733  1.00  0.00     0.028 C 
BRANCH  20  22
HETATM   22  C16 UNL     1      39.737  42.341  37.681  1.00  0.00     0.096 C 
HETATM   23  C17 UNL     1      39.251  42.054  39.123  1.00  0.00     0.049 C 
BRANCH  22  24
HETATM   24  O3  UNL     1      39.653  43.671  37.509  1.00  0.00    -0.387 OA
ATOM     25  H3  UNL     1      40.510  44.079  37.473  1.00  0.00     0.210 HD
ENDBRANCH  22  24
BRANCH  22  26
HETATM   26  C18 UNL     1      41.091  41.802  37.591  1.00  0.00     0.310 C 
BRANCH  26  27
HETATM   27  N2  UNL     1      41.657  41.399  38.852  1.00  0.00     0.092 N 
HETATM   28  C19 UNL     1      42.064  39.972  38.733  1.00  0.00     0.282 C 
HETATM   29  C20 UNL     1      42.970  39.557  39.877  1.00  0.00     0.104 C 
HETATM   30  S2  UNL     1      44.624  40.231  39.372  1.00  0.00    -0.166 SA
HETATM   31  C21 UNL     1      44.081  41.753  38.464  1.00  0.00     0.104 C 
HETATM   32  C22 UNL     1      42.817  42.164  39.243  1.00  0.00     0.282 C 
ENDBRANCH  26  27
ENDBRANCH  22  26
ENDBRANCH  20  22
ENDBRANCH  11  20
ENDBRANCH  10  11
ENDBRANCH   3   4
TORSDOF 9
ENDMDL
MODEL 4
REMARK VINA RESULT: -7.364985326      2.111      2.933
REMARK  9 active torsions:
REMARK  status: ('A' for Active; 'I' for Inactive)
REMARK    1  A    between atoms: C3_3  and  C4_4 
REMARK    2  A    between atoms: C9_10  and  S1_11 
REMARK    3  A    between atoms: S1_11  and  N1_13 
REMARK    4  A    between atoms: S1_11  and  C14_20 
REMARK       I    between atoms: N1_13  and  C10_15 
REMARK    5  A    between atoms: C10_15  and  C11_17 
REMARK    6  A    between atoms: C14_20  and  C16_22 
REMARK    7  A    between atoms: C16_22  and  O3_24 
REMARK    8  A    between atoms: C16_22  and  C18_26 
REMARK    9  A    between atoms: C18_26  and  N2_27 
ROOT
HETATM    1  C1  UNL     1      41.137  45.307  34.992  1.00  0.00     0.112 C 
HETATM    2  C2  UNL     1      40.208  44.262  34.603  1.00  0.00    -0.105 C 
HETATM    3  C3  UNL     1      39.433  43.410  34.261  1.00  0.00    -0.066 C 
ENDROOT
BRANCH   3   4
HETATM    4  C4  UNL     1      38.482  42.411  33.870  1.00  0.00     0.037 A 
HETATM    5  C5  UNL     1      37.515  42.808  32.990  1.00  0.00     0.024 A 
HETATM    6  C6  UNL     1      36.581  41.919  32.528  1.00  0.00     0.025 A 
HETATM    7  C7  UNL     1      36.644  40.629  32.971  1.00  0.00     0.035 A 
HETATM    8 CL1  UNL     1      35.470  39.430  32.421  1.00  0.00    -0.084 Cl
HETATM    9  C8  UNL     1      37.621  40.254  33.854  1.00  0.00     0.047 A 
HETATM   10  C9  UNL     1      38.543  41.085  34.327  1.00  0.00     0.059 A 
BRANCH  10  11
HETATM   11  S1  UNL     1      39.993  40.739  35.547  1.00  0.00     0.067 S 
HETATM   12  O1  UNL     1      40.885  40.217  34.317  1.00  0.00    -0.244 OA
BRANCH  11  13
HETATM   13  N1  UNL     1      40.093  39.148  36.456  1.00  0.00    -0.282 N 
HETATM   14  C10 UNL     1      40.627  37.884  36.342  1.00  0.00     0.232 C 
HETATM   15  O2  UNL     1      41.293  37.497  35.382  1.00  0.00    -0.272 OA
ATOM     16  H1  UNL     1      39.585  39.226  37.338  1.00  0.00     0.178 HD
BRANCH  14  17
HETATM   17  C11 UNL     1      40.446  36.821  37.400  1.00  0.00     0.070 C 
HETATM   18  C12 UNL     1      39.432  37.316  38.384  1.00  0.00     0.019 C 
HETATM   19  C13 UNL     1      40.115  35.494  36.846  1.00  0.00     0.019 C 
ENDBRANCH  14  17
ENDBRANCH  11  13
BRANCH  11  20
HETATM   20  C14 UNL     1      39.145  41.618  36.935  1.00  0.00     0.124 C 
HETATM   21  C15 UNL     1      37.934  40.836  37.486  1.00  0.00     0.028 C 
BRANCH  20  22
HETATM   22  C16 UNL     1      39.960  41.885  38.237  1.00  0.00     0.096 C 
HETATM   23  C17 UNL     1      40.950  43.027  37.904  1.00  0.00     0.049 C 
BRANCH  22  24
HETATM   24  O3  UNL     1      40.705  40.824  38.590  1.00  0.00    -0.387 OA
ATOM     25  H3  UNL     1      40.880  40.807  39.524  1.00  0.00     0.210 HD
ENDBRANCH  22  24
BRANCH  22  26
HETATM   26  C18 UNL     1      39.090  42.393  39.294  1.00  0.00     0.310 C 
BRANCH  26  27
HETATM   27  N2  UNL     1      39.427  43.713  39.760  1.00  0.00     0.092 N 
HETATM   28  C19 UNL     1      38.305  44.623  39.399  1.00  0.00     0.282 C 
HETATM   29  C20 UNL     1      38.406  45.946  40.135  1.00  0.00     0.104 C 
HETATM   30  S2  UNL     1      37.740  45.543  41.820  1.00  0.00    -0.166 SA
HETATM   31  C21 UNL     1      38.299  43.782  41.968  1.00  0.00     0.104 C 
HETATM   32  C22 UNL     1      39.627  43.795  41.188  1.00  0.00     0.282 C 
ENDBRANCH  26  27
ENDBRANCH  22  26
ENDBRANCH  20  22
ENDBRANCH  11  20
ENDBRANCH  10  11
ENDBRANCH   3   4
TORSDOF 9
ENDMDL
MODEL 5
REMARK VINA RESULT: -7.102398069      2.146      3.069
REMARK  9 active torsions:
REMARK  status: ('A' for Active; 'I' for Inactive)
REMARK    1  A    between atoms: C3_3  and  C4_4 
REMARK    2  A    between atoms: C9_10  and  S1_11 
REMARK    3  A    between atoms: S1_11  and  N1_13 
REMARK    4  A    between atoms: S1_11  and  C14_20 
REMARK       I    between atoms: N1_13  and  C10_15 
REMARK    5  A    between atoms: C10_15  and  C11_17 
REMARK    6  A    between atoms: C14_20  and  C16_22 
REMARK    7  A    between atoms: C16_22  and  O3_24 
REMARK    8  A    between atoms: C16_22  and  C18_26 
REMARK    9  A    between atoms: C18_26  and  N2_27 
ROOT
HETATM    1  C1  UNL     1      40.984  45.429  34.831  1.00  0.00     0.112 C 
HETATM    2  C2  UNL     1      40.070  44.362  34.468  1.00  0.00    -0.105 C 
HETATM    3  C3  UNL     1      39.308  43.491  34.146  1.00  0.00    -0.066 C 
ENDROOT
BRANCH   3   4
HETATM    4  C4  UNL     1      38.373  42.469  33.778  1.00  0.00     0.037 A 
HETATM    5  C5  UNL     1      37.403  42.831  32.886  1.00  0.00     0.024 A 
HETATM    6  C6  UNL     1      36.482  41.918  32.444  1.00  0.00     0.025 A 
HETATM    7  C7  UNL     1      36.561  40.640  32.919  1.00  0.00     0.035 A 
HETATM    8 CL1  UNL     1      35.406  39.412  32.396  1.00  0.00    -0.084 Cl
HETATM    9  C8  UNL     1      37.542  40.300  33.813  1.00  0.00     0.047 A 
HETATM   10  C9  UNL     1      38.451  41.156  34.267  1.00  0.00     0.059 A 
BRANCH  10  11
HETATM   11  S1  UNL     1      39.902  40.860  35.499  1.00  0.00     0.067 S 
HETATM   12  O1  UNL     1      40.813  40.345  34.280  1.00  0.00    -0.244 OA
BRANCH  11  13
HETATM   13  N1  UNL     1      40.036  39.283  36.428  1.00  0.00    -0.282 N 
HETATM   14  C10 UNL     1      40.589  38.026  36.325  1.00  0.00     0.232 C 
HETATM   15  O2  UNL     1      41.251  37.637  35.365  1.00  0.00    -0.272 OA
ATOM     16  H1  UNL     1      39.536  39.365  37.314  1.00  0.00     0.178 HD
BRANCH  14  17
HETATM   17  C11 UNL     1      40.435  36.975  37.400  1.00  0.00     0.070 C 
HETATM   18  C12 UNL     1      41.782  36.733  38.007  1.00  0.00     0.019 C 
HETATM   19  C13 UNL     1      39.401  37.307  38.399  1.00  0.00     0.019 C 
ENDBRANCH  14  17
ENDBRANCH  11  13
BRANCH  11  20
HETATM   20  C14 UNL     1      39.026  41.735  36.871  1.00  0.00     0.124 C 
HETATM   21  C15 UNL     1      38.166  40.786  37.733  1.00  0.00     0.028 C 
BRANCH  20  22
HETATM   22  C16 UNL     1      39.892  42.440  37.960  1.00  0.00     0.096 C 
HETATM   23  C17 UNL     1      41.352  42.402  37.444  1.00  0.00     0.049 C 
BRANCH  22  24
HETATM   24  O3  UNL     1      39.881  41.769  39.123  1.00  0.00    -0.387 OA
ATOM     25  H3  UNL     1      40.306  42.257  39.819  1.00  0.00     0.210 HD
ENDBRANCH  22  24
BRANCH  22  26
HETATM   26  C18 UNL     1      39.533  43.851  38.070  1.00  0.00     0.310 C 
BRANCH  26  27
HETATM   27  N2  UNL     1      39.447  44.340  39.422  1.00  0.00     0.092 N 
HETATM   28  C19 UNL     1      40.523  45.351  39.611  1.00  0.00     0.282 C 
HETATM   29  C20 UNL     1      40.306  46.162  40.874  1.00  0.00     0.104 C 
HETATM   30  S2  UNL     1      39.020  47.400  40.365  1.00  0.00    -0.166 SA
HETATM   31  C21 UNL     1      38.068  46.383  39.143  1.00  0.00     0.104 C 
HETATM   32  C22 UNL     1      38.184  44.966  39.737  1.00  0.00     0.282 C 
ENDBRANCH  26  27
ENDBRANCH  22  26
ENDBRANCH  20  22
ENDBRANCH  11  20
ENDBRANCH  10  11
ENDBRANCH   3   4
TORSDOF 9
ENDMDL
