MODEL 1
REMARK VINA RESULT: -10.582580630      0.000      0.000
REMARK  4 active torsions:
REMARK  status: ('A' for Active; 'I' for Inactive)
REMARK    1  A    between atoms: O1_2  and  C2_3 
REMARK    2  A    between atoms: C8_11  and  C9_12 
REMARK    3  A    between atoms: C9_12  and  C10_13 
REMARK    4  A    between atoms: N4_29  and  C21_30 
ROOT
HETATM    1  C2  UNL     1      -2.045   9.599  -2.116  1.00  0.00     0.069 A 
HETATM    2  C3  UNL     1      -2.425  10.918  -2.305  1.00  0.00     0.039 A 
HETATM    3  C4  UNL     1      -2.313  11.764  -1.239  1.00  0.00     0.033 A 
HETATM    4  C5  UNL     1      -1.844  11.320  -0.036  1.00  0.00     0.045 A 
HETATM    5  N1  UNL     1      -1.749  12.176   0.984  1.00  0.00    -0.339 N 
ATOM      6  H1  UNL     1      -2.032  13.145   0.833  1.00  0.00     0.167 HD
HETATM    7  C6  UNL     1      -1.306  11.829   2.179  1.00  0.00     0.143 A 
HETATM    8  C7  UNL     1      -0.915  10.544   2.431  1.00  0.00     0.090 A 
HETATM    9  C8  UNL     1      -0.985   9.606   1.431  1.00  0.00     0.008 A 
HETATM   10  C18 UNL     1      -1.457  10.004   0.180  1.00  0.00     0.006 A 
HETATM   11  C19 UNL     1      -1.566   9.154  -0.880  1.00  0.00     0.051 A 
HETATM   12  N3  UNL     1      -0.525  10.471   3.663  1.00  0.00    -0.329 N 
ATOM     13  H3  UNL     1      -0.183   9.616   4.103  1.00  0.00     0.168 HD
HETATM   14  C20 UNL     1      -0.629  11.717   4.329  1.00  0.00     0.185 A 
HETATM   15  S1  UNL     1      -0.250  12.048   5.890  1.00  0.00    -0.040 SA
HETATM   16  N4  UNL     1      -1.139  12.619   3.369  1.00  0.00    -0.272 N 
ENDROOT
BRANCH   9  17
HETATM   17  C9  UNL     1      -0.622   8.379   1.639  1.00  0.00     0.028 C 
BRANCH  17  18
HETATM   18  C10 UNL     1       0.776   7.961   1.806  1.00  0.00    -0.007 A 
HETATM   19  C11 UNL     1       1.396   7.667   2.998  1.00  0.00     0.100 A 
HETATM   20  N2  UNL     1       2.678   7.296   2.726  1.00  0.00    -0.364 N 
HETATM   21  C12 UNL     1       2.910   7.337   1.402  1.00  0.00     0.043 A 
ATOM     22  H2  UNL     1       3.365   7.025   3.429  1.00  0.00     0.165 HD
HETATM   23  C13 UNL     1       4.020   7.061   0.633  1.00  0.00     0.030 A 
HETATM   24  C17 UNL     1       1.711   7.757   0.821  1.00  0.00     0.002 A 
HETATM   25  C14 UNL     1       3.963   7.195  -0.737  1.00  0.00     0.002 A 
HETATM   26  C15 UNL     1       2.789   7.609  -1.327  1.00  0.00     0.001 A 
HETATM   27  C16 UNL     1       1.686   7.884  -0.557  1.00  0.00     0.014 A 
ENDBRANCH  17  18
ENDBRANCH   9  17
BRANCH  16  28
HETATM   28  C21 UNL     1      -1.460  13.997   3.502  1.00  0.00     0.043 A 
HETATM   29  C22 UNL     1      -2.755  14.451   3.618  1.00  0.00     0.030 A 
HETATM   30  C23 UNL     1      -3.061  15.796   3.725  1.00  0.00     0.002 A 
HETATM   31  C24 UNL     1      -2.061  16.739   3.720  1.00  0.00     0.000 A 
HETATM   32  C25 UNL     1      -0.754  16.330   3.606  1.00  0.00     0.002 A 
HETATM   33  C26 UNL     1      -0.469  14.969   3.499  1.00  0.00     0.030 A 
ENDBRANCH  16  28
BRANCH   1  34
HETATM   34  O1  UNL     1      -2.122   8.672  -3.132  1.00  0.00    -0.356 OA
HETATM   35  C1  UNL     1      -2.921   8.804  -4.270  1.00  0.00     0.210 C 
ENDBRANCH   1  34
TORSDOF 4
ENDMDL
MODEL 2
REMARK VINA RESULT: -9.900268425      1.037      1.324
REMARK  4 active torsions:
REMARK  status: ('A' for Active; 'I' for Inactive)
REMARK    1  A    between atoms: O1_2  and  C2_3 
REMARK    2  A    between atoms: C8_11  and  C9_12 
REMARK    3  A    between atoms: C9_12  and  C10_13 
REMARK    4  A    between atoms: N4_29  and  C21_30 
ROOT
HETATM    1  C2  UNL     1      -3.254   8.489  -0.956  1.00  0.00     0.069 A 
HETATM    2  C3  UNL     1      -3.811   9.733  -1.202  1.00  0.00     0.039 A 
HETATM    3  C4  UNL     1      -3.467  10.755  -0.363  1.00  0.00     0.033 A 
HETATM    4  C5  UNL     1      -2.607  10.551   0.676  1.00  0.00     0.045 A 
HETATM    5  N1  UNL     1      -2.294  11.573   1.475  1.00  0.00    -0.339 N 
ATOM      6  H1  UNL     1      -2.711  12.485   1.284  1.00  0.00     0.167 HD
HETATM    7  C6  UNL     1      -1.470  11.461   2.502  1.00  0.00     0.143 A 
HETATM    8  C7  UNL     1      -0.886  10.262   2.800  1.00  0.00     0.090 A 
HETATM    9  C8  UNL     1      -1.160   9.164   2.023  1.00  0.00     0.008 A 
HETATM   10  C18 UNL     1      -2.034   9.314   0.945  1.00  0.00     0.006 A 
HETATM   11  C19 UNL     1      -2.373   8.291   0.113  1.00  0.00     0.051 A 
HETATM   12  N3  UNL     1      -0.130  10.424   3.837  1.00  0.00    -0.329 N 
ATOM     13  H3  UNL     1       0.420   9.677   4.263  1.00  0.00     0.168 HD
HETATM   14  C20 UNL     1      -0.156  11.758   4.313  1.00  0.00     0.185 A 
HETATM   15  S1  UNL     1       0.647  12.373   5.604  1.00  0.00    -0.040 SA
HETATM   16  N4  UNL     1      -1.031  12.452   3.447  1.00  0.00    -0.272 N 
ENDROOT
BRANCH   9  17
HETATM   17  C9  UNL     1      -0.622   8.013   2.279  1.00  0.00     0.028 C 
BRANCH  17  18
HETATM   18  C10 UNL     1       0.823   7.758   2.215  1.00  0.00    -0.007 A 
HETATM   19  C11 UNL     1       1.647   7.497   3.285  1.00  0.00     0.100 A 
HETATM   20  N2  UNL     1       2.905   7.290   2.808  1.00  0.00    -0.364 N 
HETATM   21  C12 UNL     1       2.927   7.405   1.468  1.00  0.00     0.043 A 
ATOM     22  H2  UNL     1       3.718   7.077   3.385  1.00  0.00     0.165 HD
HETATM   23  C13 UNL     1       3.930   7.290   0.530  1.00  0.00     0.030 A 
HETATM   24  C17 UNL     1       1.613   7.701   1.094  1.00  0.00     0.002 A 
HETATM   25  C14 UNL     1       3.649   7.466  -0.808  1.00  0.00     0.002 A 
HETATM   26  C15 UNL     1       2.360   7.758  -1.196  1.00  0.00     0.001 A 
HETATM   27  C16 UNL     1       1.364   7.873  -0.258  1.00  0.00     0.014 A 
ENDBRANCH  17  18
ENDBRANCH   9  17
BRANCH  16  28
HETATM   28  C21 UNL     1      -1.439  13.813   3.474  1.00  0.00     0.043 A 
HETATM   29  C22 UNL     1      -0.583  14.852   3.180  1.00  0.00     0.030 A 
HETATM   30  C23 UNL     1      -0.982  16.175   3.229  1.00  0.00     0.002 A 
HETATM   31  C24 UNL     1      -2.272  16.500   3.577  1.00  0.00     0.000 A 
HETATM   32  C25 UNL     1      -3.159  15.495   3.878  1.00  0.00     0.002 A 
HETATM   33  C26 UNL     1      -2.735  14.167   3.823  1.00  0.00     0.030 A 
ENDBRANCH  16  28
BRANCH   1  34
HETATM   34  O1  UNL     1      -3.540   7.399  -1.746  1.00  0.00    -0.356 OA
HETATM   35  C1  UNL     1      -4.347   7.434  -2.886  1.00  0.00     0.210 C 
ENDBRANCH   1  34
TORSDOF 4
ENDMDL
MODEL 3
REMARK VINA RESULT: -9.374310104      3.313      8.400
REMARK  4 active torsions:
REMARK  status: ('A' for Active; 'I' for Inactive)
REMARK    1  A    between atoms: O1_2  and  C2_3 
REMARK    2  A    between atoms: C8_11  and  C9_12 
REMARK    3  A    between atoms: C9_12  and  C10_13 
REMARK    4  A    between atoms: N4_29  and  C21_30 
ROOT
HETATM    1  C2  UNL     1      -2.386  11.470   7.432  1.00  0.00     0.069 A 
HETATM    2  C3  UNL     1      -1.295  10.618   7.495  1.00  0.00     0.039 A 
HETATM    3  C4  UNL     1      -0.842  10.087   6.321  1.00  0.00     0.033 A 
HETATM    4  C5  UNL     1      -1.446  10.389   5.134  1.00  0.00     0.045 A 
HETATM    5  N1  UNL     1      -0.975   9.850   4.007  1.00  0.00    -0.339 N 
ATOM      6  H1  UNL     1      -0.172   9.224   4.066  1.00  0.00     0.167 HD
HETATM    7  C6  UNL     1      -1.501  10.090   2.818  1.00  0.00     0.143 A 
HETATM    8  C7  UNL     1      -2.577  10.921   2.687  1.00  0.00     0.090 A 
HETATM    9  C8  UNL     1      -3.117  11.511   3.802  1.00  0.00     0.008 A 
HETATM   10  C18 UNL     1      -2.541  11.239   5.043  1.00  0.00     0.006 A 
HETATM   11  C19 UNL     1      -2.998  11.772   6.210  1.00  0.00     0.051 A 
HETATM   12  N3  UNL     1      -2.890  10.988   1.433  1.00  0.00    -0.329 N 
ATOM     13  H3  UNL     1      -3.662  11.545   1.067  1.00  0.00     0.168 HD
HETATM   14  C20 UNL     1      -2.034  10.196   0.628  1.00  0.00     0.185 A 
HETATM   15  S1  UNL     1      -2.097   9.996  -0.999  1.00  0.00    -0.040 SA
HETATM   16  N4  UNL     1      -1.116   9.600   1.522  1.00  0.00    -0.272 N 
ENDROOT
BRANCH   9  17
HETATM   17  C9  UNL     1      -4.139  12.304   3.710  1.00  0.00     0.028 C 
BRANCH  17  18
HETATM   18  C10 UNL     1      -4.029  13.747   3.457  1.00  0.00    -0.007 A 
HETATM   19  C11 UNL     1      -5.040  14.572   3.021  1.00  0.00     0.100 A 
HETATM   20  N2  UNL     1      -4.545  15.837   2.937  1.00  0.00    -0.364 N 
HETATM   21  C12 UNL     1      -3.251  15.864   3.304  1.00  0.00     0.043 A 
ATOM     22  H2  UNL     1      -5.080  16.652   2.637  1.00  0.00     0.165 HD
HETATM   23  C13 UNL     1      -2.318  16.874   3.391  1.00  0.00     0.030 A 
HETATM   24  C17 UNL     1      -2.925  14.545   3.631  1.00  0.00     0.002 A 
HETATM   25  C14 UNL     1      -1.035  16.597   3.807  1.00  0.00     0.002 A 
HETATM   26  C15 UNL     1      -0.695  15.302   4.135  1.00  0.00     0.001 A 
HETATM   27  C16 UNL     1      -1.627  14.299   4.046  1.00  0.00     0.014 A 
ENDBRANCH  17  18
ENDBRANCH   9  17
BRANCH  16  28
HETATM   28  C21 UNL     1      -0.053   8.695   1.258  1.00  0.00     0.043 A 
HETATM   29  C22 UNL     1       0.239   7.631   2.084  1.00  0.00     0.030 A 
HETATM   30  C23 UNL     1       1.289   6.767   1.833  1.00  0.00     0.002 A 
HETATM   31  C24 UNL     1       2.089   6.946   0.729  1.00  0.00     0.000 A 
HETATM   32  C25 UNL     1       1.834   7.995  -0.121  1.00  0.00     0.002 A 
HETATM   33  C26 UNL     1       0.769   8.854   0.152  1.00  0.00     0.030 A 
ENDBRANCH  16  28
BRANCH   1  34
HETATM   34  O1  UNL     1      -2.915  12.054   8.561  1.00  0.00    -0.356 OA
HETATM   35  C1  UNL     1      -3.265  11.362   9.723  1.00  0.00     0.210 C 
ENDBRANCH   1  34
TORSDOF 4
ENDMDL
MODEL 4
REMARK VINA RESULT: -8.583047575      3.371      4.579
REMARK  4 active torsions:
REMARK  status: ('A' for Active; 'I' for Inactive)
REMARK    1  A    between atoms: O1_2  and  C2_3 
REMARK    2  A    between atoms: C8_11  and  C9_12 
REMARK    3  A    between atoms: C9_12  and  C10_13 
REMARK    4  A    between atoms: N4_29  and  C21_30 
ROOT
HETATM    1  C2  UNL     1      -3.237   9.413  -1.348  1.00  0.00     0.069 A 
HETATM    2  C3  UNL     1      -2.594  10.595  -1.681  1.00  0.00     0.039 A 
HETATM    3  C4  UNL     1      -2.302  11.460  -0.665  1.00  0.00     0.033 A 
HETATM    4  C5  UNL     1      -2.634  11.166   0.626  1.00  0.00     0.045 A 
HETATM    5  N1  UNL     1      -2.333  12.037   1.592  1.00  0.00    -0.339 N 
ATOM      6  H1  UNL     1      -1.860  12.903   1.335  1.00  0.00     0.167 HD
HETATM    7  C6  UNL     1      -2.619  11.829   2.865  1.00  0.00     0.143 A 
HETATM    8  C7  UNL     1      -3.252  10.684   3.260  1.00  0.00     0.090 A 
HETATM    9  C8  UNL     1      -3.594   9.742   2.322  1.00  0.00     0.008 A 
HETATM   10  C18 UNL     1      -3.279   9.989   0.986  1.00  0.00     0.006 A 
HETATM   11  C19 UNL     1      -3.573   9.122  -0.022  1.00  0.00     0.051 A 
HETATM   12  N3  UNL     1      -3.409  10.727   4.544  1.00  0.00    -0.329 N 
ATOM     13  H3  UNL     1      -3.857   9.990   5.088  1.00  0.00     0.168 HD
HETATM   14  C20 UNL     1      -2.886  11.919   5.104  1.00  0.00     0.185 A 
HETATM   15  S1  UNL     1      -2.893  12.366   6.682  1.00  0.00    -0.040 SA
HETATM   16  N4  UNL     1      -2.363  12.653   4.016  1.00  0.00    -0.272 N 
ENDROOT
BRANCH   9  17
HETATM   17  C9  UNL     1      -4.195   8.645   2.665  1.00  0.00     0.028 C 
BRANCH  17  18
HETATM   18  C10 UNL     1      -3.611   7.645   3.568  1.00  0.00    -0.007 A 
HETATM   19  C11 UNL     1      -2.358   7.699   4.133  1.00  0.00     0.100 A 
HETATM   20  N2  UNL     1      -2.206   6.602   4.926  1.00  0.00    -0.364 N 
HETATM   21  C12 UNL     1      -3.315   5.842   4.897  1.00  0.00     0.043 A 
ATOM     22  H2  UNL     1      -1.368   6.388   5.466  1.00  0.00     0.165 HD
HETATM   23  C13 UNL     1      -3.659   4.657   5.512  1.00  0.00     0.030 A 
HETATM   24  C17 UNL     1      -4.201   6.499   4.040  1.00  0.00     0.002 A 
HETATM   25  C14 UNL     1      -4.897   4.096   5.289  1.00  0.00     0.002 A 
HETATM   26  C15 UNL     1      -5.785   4.730   4.447  1.00  0.00     0.001 A 
HETATM   27  C16 UNL     1      -5.437   5.909   3.836  1.00  0.00     0.014 A 
ENDBRANCH  17  18
ENDBRANCH   9  17
BRANCH  16  28
HETATM   28  C21 UNL     1      -1.740  13.930   4.000  1.00  0.00     0.043 A 
HETATM   29  C22 UNL     1      -0.388  14.099   4.201  1.00  0.00     0.030 A 
HETATM   30  C23 UNL     1       0.209  15.347   4.206  1.00  0.00     0.002 A 
HETATM   31  C24 UNL     1      -0.546  16.479   4.006  1.00  0.00     0.000 A 
HETATM   32  C25 UNL     1      -1.899  16.356   3.803  1.00  0.00     0.002 A 
HETATM   33  C26 UNL     1      -2.479  15.087   3.802  1.00  0.00     0.030 A 
ENDBRANCH  16  28
BRANCH   1  34
HETATM   34  O1  UNL     1      -3.572   8.479  -2.302  1.00  0.00    -0.356 OA
HETATM   35  C1  UNL     1      -4.818   8.395  -2.929  1.00  0.00     0.210 C 
ENDBRANCH   1  34
TORSDOF 4
ENDMDL
MODEL 5
REMARK VINA RESULT: -8.091112455      2.775      3.920
REMARK  4 active torsions:
REMARK  status: ('A' for Active; 'I' for Inactive)
REMARK    1  A    between atoms: O1_2  and  C2_3 
REMARK    2  A    between atoms: C8_11  and  C9_12 
REMARK    3  A    between atoms: C9_12  and  C10_13 
REMARK    4  A    between atoms: N4_29  and  C21_30 
ROOT
HETATM    1  C2  UNL     1      -3.629   6.810   4.023  1.00  0.00     0.069 A 
HETATM    2  C3  UNL     1      -4.794   7.510   3.756  1.00  0.00     0.039 A 
HETATM    3  C4  UNL     1      -4.707   8.871   3.678  1.00  0.00     0.033 A 
HETATM    4  C5  UNL     1      -3.514   9.510   3.858  1.00  0.00     0.045 A 
HETATM    5  N1  UNL     1      -3.468  10.842   3.775  1.00  0.00    -0.339 N 
ATOM      6  H1  UNL     1      -4.332  11.347   3.578  1.00  0.00     0.167 HD
HETATM    7  C6  UNL     1      -2.356  11.537   3.936  1.00  0.00     0.143 A 
HETATM    8  C7  UNL     1      -1.172  10.907   4.202  1.00  0.00     0.090 A 
HETATM    9  C8  UNL     1      -1.141   9.538   4.303  1.00  0.00     0.008 A 
HETATM   10  C18 UNL     1      -2.332   8.832   4.128  1.00  0.00     0.006 A 
HETATM   11  C19 UNL     1      -2.412   7.475   4.207  1.00  0.00     0.051 A 
HETATM   12  N3  UNL     1      -0.248  11.806   4.310  1.00  0.00    -0.329 N 
ATOM     13  H3  UNL     1       0.731  11.596   4.507  1.00  0.00     0.168 HD
HETATM   14  C20 UNL     1      -0.754  13.115   4.122  1.00  0.00     0.185 A 
HETATM   15  S1  UNL     1       0.080  14.527   4.188  1.00  0.00    -0.040 SA
HETATM   16  N4  UNL     1      -2.136  12.957   3.875  1.00  0.00    -0.272 N 
ENDROOT
BRANCH   9  17
HETATM   17  C9  UNL     1      -0.035   8.911   4.554  1.00  0.00     0.028 C 
BRANCH  17  18
HETATM   18  C10 UNL     1       0.889   8.442   3.513  1.00  0.00    -0.007 A 
HETATM   19  C11 UNL     1       2.127   7.880   3.724  1.00  0.00     0.100 A 
HETATM   20  N2  UNL     1       2.654   7.555   2.511  1.00  0.00    -0.364 N 
HETATM   21  C12 UNL     1       1.802   7.884   1.523  1.00  0.00     0.043 A 
ATOM     22  H2  UNL     1       3.567   7.123   2.371  1.00  0.00     0.165 HD
HETATM   23  C13 UNL     1       1.862   7.765   0.151  1.00  0.00     0.030 A 
HETATM   24  C17 UNL     1       0.689   8.444   2.155  1.00  0.00     0.002 A 
HETATM   25  C14 UNL     1       0.812   8.201  -0.627  1.00  0.00     0.002 A 
HETATM   26  C15 UNL     1      -0.294   8.756  -0.021  1.00  0.00     0.001 A 
HETATM   27  C16 UNL     1      -0.349   8.873   1.345  1.00  0.00     0.014 A 
ENDBRANCH  17  18
ENDBRANCH   9  17
BRANCH  16  28
HETATM   28  C21 UNL     1      -3.133  13.941   3.640  1.00  0.00     0.043 A 
HETATM   29  C22 UNL     1      -4.343  13.647   3.052  1.00  0.00     0.030 A 
HETATM   30  C23 UNL     1      -5.301  14.615   2.806  1.00  0.00     0.002 A 
HETATM   31  C24 UNL     1      -5.070  15.926   3.151  1.00  0.00     0.000 A 
HETATM   32  C25 UNL     1      -3.875  16.263   3.740  1.00  0.00     0.002 A 
HETATM   33  C26 UNL     1      -2.924  15.271   3.978  1.00  0.00     0.030 A 
ENDBRANCH  16  28
BRANCH   1  34
HETATM   34  O1  UNL     1      -3.616   5.436   4.121  1.00  0.00    -0.356 OA
HETATM   35  C1  UNL     1      -4.456   4.581   3.402  1.00  0.00     0.210 C 
ENDBRANCH   1  34
TORSDOF 4
ENDMDL
