MODEL 1
REMARK VINA RESULT: -10.607731809      0.000      0.000
REMARK  3 active torsions:
REMARK  status: ('A' for Active; 'I' for Inactive)
REMARK       I    between atoms: C1_2  and  N1_3 
REMARK    1  A    between atoms: C1_2  and  C19_27 
REMARK    2  A    between atoms: N1_3  and  C2_5 
REMARK    3  A    between atoms: C9_17  and  C10_18 
ROOT
HETATM    1  C2  UNL     1      -0.791  10.780   4.162  1.00  0.00     0.145 A 
HETATM    2  N2  UNL     1      -1.059   9.686   4.914  1.00  0.00    -0.336 N 
ATOM      3  H2  UNL     1      -0.791   9.697   5.898  1.00  0.00     0.168 HD
HETATM    4  C3  UNL     1      -1.662   8.586   4.427  1.00  0.00     0.182 A 
HETATM    5  N3  UNL     1      -2.013   8.595   3.111  1.00  0.00    -0.349 N 
ATOM      6  H3  UNL     1      -2.473   7.775   2.715  1.00  0.00     0.166 HD
HETATM    7  C4  UNL     1      -1.772   9.651   2.322  1.00  0.00     0.081 A 
HETATM    8  C5  UNL     1      -1.150  10.780   2.832  1.00  0.00     0.141 A 
HETATM    9  O2  UNL     1      -0.900  11.866   2.025  1.00  0.00    -0.341 OA
HETATM   10  C6  UNL     1      -1.223  11.979   0.671  1.00  0.00     0.215 A 
HETATM   11  C7  UNL     1      -1.886  10.792   0.090  1.00  0.00    -0.021 A 
HETATM   12  C8  UNL     1      -2.259  10.768  -1.257  1.00  0.00     0.022 A 
HETATM   13  C9  UNL     1      -2.878   9.673  -1.811  1.00  0.00    -0.025 A 
HETATM   14  C16 UNL     1      -3.120   8.590  -0.993  1.00  0.00     0.013 A 
HETATM   15  C17 UNL     1      -2.757   8.602   0.338  1.00  0.00     0.015 A 
HETATM   16  C18 UNL     1      -2.129   9.711   0.906  1.00  0.00     0.002 A 
ENDROOT
BRANCH   1  17
HETATM   17  N1  UNL     1      -0.213  11.835   4.631  1.00  0.00    -0.306 N 
HETATM   18  C1  UNL     1      -1.100  12.820   5.257  1.00  0.00     0.258 C 
HETATM   19  O1  UNL     1      -1.452  12.504   6.401  1.00  0.00    -0.267 OA
ATOM     20  H1  UNL     1       0.795  11.975   4.568  1.00  0.00     0.170 HD
BRANCH  18  21
HETATM   21  C19 UNL     1      -1.459  14.002   4.517  1.00  0.00     0.043 A 
HETATM   22  C20 UNL     1      -0.517  15.033   4.398  1.00  0.00     0.018 A 
HETATM   23  C21 UNL     1      -0.805  16.197   3.732  1.00  0.00     0.002 A 
HETATM   24  C22 UNL     1      -2.020  16.398   3.159  1.00  0.00     0.012 A 
HETATM   25  C23 UNL     1      -2.973  15.406   3.256  1.00  0.00    -0.025 A 
HETATM   26  C24 UNL     1      -4.205  15.621   2.659  1.00  0.00     0.012 A 
HETATM   27  C28 UNL     1      -2.673  14.218   3.937  1.00  0.00    -0.010 A 
HETATM   28  C25 UNL     1      -5.187  14.679   2.709  1.00  0.00     0.001 A 
HETATM   29  C26 UNL     1      -4.902  13.507   3.375  1.00  0.00     0.001 A 
HETATM   30  C27 UNL     1      -3.665  13.276   3.981  1.00  0.00     0.013 A 
ENDBRANCH  18  21
ENDBRANCH   1  17
BRANCH  13  31
HETATM   31  C10 UNL     1      -3.270   9.654  -3.235  1.00  0.00    -0.026 A 
HETATM   32  C11 UNL     1      -4.286   8.844  -3.698  1.00  0.00     0.012 A 
HETATM   33  C12 UNL     1      -4.629   8.851  -5.036  1.00  0.00     0.001 A 
HETATM   34  C13 UNL     1      -3.983   9.651  -5.956  1.00  0.00     0.000 A 
HETATM   35  C14 UNL     1      -2.965  10.462  -5.497  1.00  0.00     0.001 A 
HETATM   36  C15 UNL     1      -2.628  10.453  -4.161  1.00  0.00     0.012 A 
ENDBRANCH  13  31
TORSDOF 3
ENDMDL
MODEL 2
REMARK VINA RESULT: -10.577173167      1.130      2.421
REMARK  3 active torsions:
REMARK  status: ('A' for Active; 'I' for Inactive)
REMARK       I    between atoms: C1_2  and  N1_3 
REMARK    1  A    between atoms: C1_2  and  C19_27 
REMARK    2  A    between atoms: N1_3  and  C2_5 
REMARK    3  A    between atoms: C9_17  and  C10_18 
ROOT
HETATM    1  C2  UNL     1      -2.223  10.280   3.363  1.00  0.00     0.145 A 
HETATM    2  N2  UNL     1      -2.573   9.075   3.872  1.00  0.00    -0.336 N 
ATOM      3  H2  UNL     1      -2.570   8.958   4.886  1.00  0.00     0.168 HD
HETATM    4  C3  UNL     1      -2.924   8.024   3.109  1.00  0.00     0.182 A 
HETATM    5  N3  UNL     1      -2.923   8.204   1.758  1.00  0.00    -0.349 N 
ATOM      6  H3  UNL     1      -3.187   7.425   1.154  1.00  0.00     0.166 HD
HETATM    7  C4  UNL     1      -2.585   9.375   1.201  1.00  0.00     0.081 A 
HETATM    8  C5  UNL     1      -2.224  10.452   1.996  1.00  0.00     0.141 A 
HETATM    9  O2  UNL     1      -1.876  11.656   1.428  1.00  0.00    -0.341 OA
HETATM   10  C6  UNL     1      -1.847  11.945   0.062  1.00  0.00     0.215 A 
HETATM   11  C7  UNL     1      -2.224  10.819  -0.820  1.00  0.00    -0.021 A 
HETATM   12  C8  UNL     1      -2.233  10.969  -2.209  1.00  0.00     0.022 A 
HETATM   13  C9  UNL     1      -2.583   9.932  -3.041  1.00  0.00    -0.025 A 
HETATM   14  C16 UNL     1      -2.927   8.730  -2.459  1.00  0.00     0.013 A 
HETATM   15  C17 UNL     1      -2.922   8.571  -1.089  1.00  0.00     0.015 A 
HETATM   16  C18 UNL     1      -2.568   9.619  -0.240  1.00  0.00     0.002 A 
ENDROOT
BRANCH   1  17
HETATM   17  N1  UNL     1      -1.886  11.287   4.097  1.00  0.00    -0.306 N 
HETATM   18  C1  UNL     1      -2.996  12.049   4.676  1.00  0.00     0.258 C 
HETATM   19  O1  UNL     1      -3.506  11.500   5.661  1.00  0.00    -0.267 OA
ATOM     20  H1  UNL     1      -0.911  11.536   4.263  1.00  0.00     0.170 HD
BRANCH  18  21
HETATM   21  C19 UNL     1      -3.368  13.302   4.071  1.00  0.00     0.043 A 
HETATM   22  C20 UNL     1      -4.640  13.418   3.492  1.00  0.00     0.018 A 
HETATM   23  C21 UNL     1      -5.046  14.573   2.874  1.00  0.00     0.002 A 
HETATM   24  C22 UNL     1      -4.229  15.655   2.798  1.00  0.00     0.012 A 
HETATM   25  C23 UNL     1      -2.971  15.579   3.355  1.00  0.00    -0.025 A 
HETATM   26  C24 UNL     1      -2.150  16.693   3.278  1.00  0.00     0.012 A 
HETATM   27  C28 UNL     1      -2.560  14.396   3.987  1.00  0.00    -0.010 A 
HETATM   28  C25 UNL     1      -0.900  16.688   3.816  1.00  0.00     0.001 A 
HETATM   29  C26 UNL     1      -0.488  15.531   4.440  1.00  0.00     0.001 A 
HETATM   30  C27 UNL     1      -1.303  14.400   4.526  1.00  0.00     0.013 A 
ENDBRANCH  18  21
ENDBRANCH   1  17
BRANCH  13  31
HETATM   31  C10 UNL     1      -2.590  10.097  -4.509  1.00  0.00    -0.026 A 
HETATM   32  C11 UNL     1      -1.423  10.231  -5.231  1.00  0.00     0.012 A 
HETATM   33  C12 UNL     1      -1.466  10.383  -6.603  1.00  0.00     0.001 A 
HETATM   34  C13 UNL     1      -2.655  10.410  -7.304  1.00  0.00     0.000 A 
HETATM   35  C14 UNL     1      -3.825  10.277  -6.585  1.00  0.00     0.001 A 
HETATM   36  C15 UNL     1      -3.778  10.125  -5.216  1.00  0.00     0.012 A 
ENDBRANCH  13  31
TORSDOF 3
ENDMDL
MODEL 3
REMARK VINA RESULT: -10.554143795      1.282      1.612
REMARK  3 active torsions:
REMARK  status: ('A' for Active; 'I' for Inactive)
REMARK       I    between atoms: C1_2  and  N1_3 
REMARK    1  A    between atoms: C1_2  and  C19_27 
REMARK    2  A    between atoms: N1_3  and  C2_5 
REMARK    3  A    between atoms: C9_17  and  C10_18 
ROOT
HETATM    1  C2  UNL     1      -2.420  10.131   4.112  1.00  0.00     0.145 A 
HETATM    2  N2  UNL     1      -3.501   9.475   4.595  1.00  0.00    -0.336 N 
ATOM      3  H2  UNL     1      -3.613   9.403   5.606  1.00  0.00     0.168 HD
HETATM    4  C3  UNL     1      -4.436   8.913   3.807  1.00  0.00     0.182 A 
HETATM    5  N3  UNL     1      -4.269   9.023   2.459  1.00  0.00    -0.349 N 
ATOM      6  H3  UNL     1      -4.963   8.608   1.838  1.00  0.00     0.166 HD
HETATM    7  C4  UNL     1      -3.218   9.661   1.928  1.00  0.00     0.081 A 
HETATM    8  C5  UNL     1      -2.258  10.237   2.748  1.00  0.00     0.141 A 
HETATM    9  O2  UNL     1      -1.178  10.893   2.206  1.00  0.00    -0.341 OA
HETATM   10  C6  UNL     1      -0.915  11.066   0.844  1.00  0.00     0.215 A 
HETATM   11  C7  UNL     1      -1.916  10.464  -0.062  1.00  0.00    -0.021 A 
HETATM   12  C8  UNL     1      -1.773  10.558  -1.450  1.00  0.00     0.022 A 
HETATM   13  C9  UNL     1      -2.696  10.003  -2.305  1.00  0.00    -0.025 A 
HETATM   14  C16 UNL     1      -3.774   9.346  -1.749  1.00  0.00     0.013 A 
HETATM   15  C17 UNL     1      -3.925   9.248  -0.382  1.00  0.00     0.015 A 
HETATM   16  C18 UNL     1      -2.992   9.808   0.491  1.00  0.00     0.002 A 
ENDROOT
BRANCH   1  17
HETATM   17  N1  UNL     1      -1.524  10.670   4.868  1.00  0.00    -0.306 N 
HETATM   18  C1  UNL     1      -1.912  11.925   5.517  1.00  0.00     0.258 C 
HETATM   19  O1  UNL     1      -2.646  11.762   6.501  1.00  0.00    -0.267 OA
ATOM     20  H1  UNL     1      -0.605  10.249   5.006  1.00  0.00     0.170 HD
BRANCH  18  21
HETATM   21  C19 UNL     1      -1.427  13.168   4.973  1.00  0.00     0.043 A 
HETATM   22  C20 UNL     1      -0.049  13.423   5.006  1.00  0.00     0.018 A 
HETATM   23  C21 UNL     1       0.475  14.599   4.532  1.00  0.00     0.002 A 
HETATM   24  C22 UNL     1      -0.323  15.566   4.010  1.00  0.00     0.012 A 
HETATM   25  C23 UNL     1      -1.683  15.351   3.962  1.00  0.00    -0.025 A 
HETATM   26  C24 UNL     1      -2.486  16.342   3.420  1.00  0.00     0.012 A 
HETATM   27  C28 UNL     1      -2.215  14.147   4.447  1.00  0.00    -0.010 A 
HETATM   28  C25 UNL     1      -3.836  16.190   3.333  1.00  0.00     0.001 A 
HETATM   29  C26 UNL     1      -4.367  15.010   3.807  1.00  0.00     0.001 A 
HETATM   30  C27 UNL     1      -3.572  14.002   4.356  1.00  0.00     0.013 A 
ENDBRANCH  18  21
ENDBRANCH   1  17
BRANCH  13  31
HETATM   31  C10 UNL     1      -2.541  10.107  -3.770  1.00  0.00    -0.026 A 
HETATM   32  C11 UNL     1      -3.616   9.988  -4.625  1.00  0.00     0.012 A 
HETATM   33  C12 UNL     1      -3.436  10.090  -5.990  1.00  0.00     0.001 A 
HETATM   34  C13 UNL     1      -2.196  10.310  -6.554  1.00  0.00     0.000 A 
HETATM   35  C14 UNL     1      -1.117  10.430  -5.703  1.00  0.00     0.001 A 
HETATM   36  C15 UNL     1      -1.301  10.328  -4.341  1.00  0.00     0.012 A 
ENDBRANCH  13  31
TORSDOF 3
ENDMDL
MODEL 4
REMARK VINA RESULT: -10.380723662      1.010      2.207
REMARK  3 active torsions:
REMARK  status: ('A' for Active; 'I' for Inactive)
REMARK       I    between atoms: C1_2  and  N1_3 
REMARK    1  A    between atoms: C1_2  and  C19_27 
REMARK    2  A    between atoms: N1_3  and  C2_5 
REMARK    3  A    between atoms: C9_17  and  C10_18 
ROOT
HETATM    1  C2  UNL     1      -1.716  10.098   3.142  1.00  0.00     0.145 A 
HETATM    2  N2  UNL     1      -1.889   8.896   3.741  1.00  0.00    -0.336 N 
ATOM      3  H2  UNL     1      -1.685   8.818   4.738  1.00  0.00     0.168 HD
HETATM    4  C3  UNL     1      -2.315   7.800   3.088  1.00  0.00     0.182 A 
HETATM    5  N3  UNL     1      -2.584   7.928   1.758  1.00  0.00    -0.349 N 
ATOM      6  H3  UNL     1      -2.911   7.115   1.237  1.00  0.00     0.166 HD
HETATM    7  C4  UNL     1      -2.431   9.094   1.116  1.00  0.00     0.081 A 
HETATM    8  C5  UNL     1      -1.989  10.219   1.797  1.00  0.00     0.141 A 
HETATM    9  O2  UNL     1      -1.830  11.417   1.141  1.00  0.00    -0.341 OA
HETATM   10  C6  UNL     1      -2.080  11.656  -0.213  1.00  0.00     0.215 A 
HETATM   11  C7  UNL     1      -2.551  10.479  -0.974  1.00  0.00    -0.021 A 
HETATM   12  C8  UNL     1      -2.834  10.576  -2.340  1.00  0.00     0.022 A 
HETATM   13  C9  UNL     1      -3.274   9.491  -3.060  1.00  0.00    -0.025 A 
HETATM   14  C16 UNL     1      -3.427   8.295  -2.391  1.00  0.00     0.013 A 
HETATM   15  C17 UNL     1      -3.150   8.187  -1.044  1.00  0.00     0.015 A 
HETATM   16  C18 UNL     1      -2.704   9.285  -0.308  1.00  0.00     0.002 A 
ENDROOT
BRANCH   1  17
HETATM   17  N1  UNL     1      -1.306  11.149   3.770  1.00  0.00    -0.306 N 
HETATM   18  C1  UNL     1      -2.319  11.845   4.570  1.00  0.00     0.258 C 
HETATM   19  O1  UNL     1      -2.556  11.290   5.650  1.00  0.00    -0.267 OA
ATOM     20  H1  UNL     1      -0.341  11.473   3.714  1.00  0.00     0.170 HD
BRANCH  18  21
HETATM   21  C19 UNL     1      -2.911  13.049   4.045  1.00  0.00     0.043 A 
HETATM   22  C20 UNL     1      -4.229  12.997   3.569  1.00  0.00     0.018 A 
HETATM   23  C21 UNL     1      -4.842  14.099   3.030  1.00  0.00     0.002 A 
HETATM   24  C22 UNL     1      -4.195  15.289   2.936  1.00  0.00     0.012 A 
HETATM   25  C23 UNL     1      -2.897  15.378   3.393  1.00  0.00    -0.025 A 
HETATM   26  C24 UNL     1      -2.251  16.601   3.298  1.00  0.00     0.012 A 
HETATM   27  C28 UNL     1      -2.274  14.249   3.943  1.00  0.00    -0.010 A 
HETATM   28  C25 UNL     1      -0.973  16.760   3.739  1.00  0.00     0.001 A 
HETATM   29  C26 UNL     1      -0.353  15.655   4.283  1.00  0.00     0.001 A 
HETATM   30  C27 UNL     1      -0.991  14.418   4.385  1.00  0.00     0.013 A 
ENDBRANCH  18  21
ENDBRANCH   1  17
BRANCH  13  31
HETATM   31  C10 UNL     1      -3.572   9.600  -4.503  1.00  0.00    -0.026 A 
HETATM   32  C11 UNL     1      -4.535   8.818  -5.106  1.00  0.00     0.012 A 
HETATM   33  C12 UNL     1      -4.790   8.946  -6.458  1.00  0.00     0.001 A 
HETATM   34  C13 UNL     1      -4.106   9.843  -7.254  1.00  0.00     0.000 A 
HETATM   35  C14 UNL     1      -3.142  10.627  -6.654  1.00  0.00     0.001 A 
HETATM   36  C15 UNL     1      -2.892  10.497  -5.305  1.00  0.00     0.012 A 
ENDBRANCH  13  31
TORSDOF 3
ENDMDL
MODEL 5
REMARK VINA RESULT: -9.945947748      0.815      2.032
REMARK  3 active torsions:
REMARK  status: ('A' for Active; 'I' for Inactive)
REMARK       I    between atoms: C1_2  and  N1_3 
REMARK    1  A    between atoms: C1_2  and  C19_27 
REMARK    2  A    between atoms: N1_3  and  C2_5 
REMARK    3  A    between atoms: C9_17  and  C10_18 
ROOT
HETATM    1  C2  UNL     1      -1.075  10.028   4.163  1.00  0.00     0.145 A 
HETATM    2  N2  UNL     1      -1.207   8.830   4.778  1.00  0.00    -0.336 N 
ATOM      3  H2  UNL     1      -0.971   8.764   5.768  1.00  0.00     0.168 HD
HETATM    4  C3  UNL     1      -1.636   7.720   4.149  1.00  0.00     0.182 A 
HETATM    5  N3  UNL     1      -1.950   7.832   2.827  1.00  0.00    -0.349 N 
ATOM      6  H3  UNL     1      -2.279   7.008   2.324  1.00  0.00     0.166 HD
HETATM    7  C4  UNL     1      -1.837   8.994   2.170  1.00  0.00     0.081 A 
HETATM    8  C5  UNL     1      -1.393  10.132   2.827  1.00  0.00     0.141 A 
HETATM    9  O2  UNL     1      -1.276  11.327   2.155  1.00  0.00    -0.341 OA
HETATM   10  C6  UNL     1      -1.573  11.549   0.808  1.00  0.00     0.215 A 
HETATM   11  C7  UNL     1      -2.048  10.357   0.073  1.00  0.00    -0.021 A 
HETATM   12  C8  UNL     1      -2.377  10.437  -1.283  1.00  0.00     0.022 A 
HETATM   13  C9  UNL     1      -2.821   9.338  -1.980  1.00  0.00    -0.025 A 
HETATM   14  C16 UNL     1      -2.932   8.146  -1.296  1.00  0.00     0.013 A 
HETATM   15  C17 UNL     1      -2.611   8.055   0.042  1.00  0.00     0.015 A 
HETATM   16  C18 UNL     1      -2.160   9.167   0.754  1.00  0.00     0.002 A 
ENDROOT
BRANCH   1  17
HETATM   17  N1  UNL     1      -0.663  11.092   4.769  1.00  0.00    -0.306 N 
HETATM   18  C1  UNL     1      -1.682  11.826   5.524  1.00  0.00     0.258 C 
HETATM   19  O1  UNL     1      -1.951  11.308   6.616  1.00  0.00    -0.267 OA
ATOM     20  H1  UNL     1       0.308  11.400   4.724  1.00  0.00     0.170 HD
BRANCH  18  21
HETATM   21  C19 UNL     1      -2.244  13.022   4.951  1.00  0.00     0.043 A 
HETATM   22  C20 UNL     1      -3.628  13.075   4.733  1.00  0.00     0.018 A 
HETATM   23  C21 UNL     1      -4.224  14.172   4.164  1.00  0.00     0.002 A 
HETATM   24  C22 UNL     1      -3.495  15.254   3.788  1.00  0.00     0.012 A 
HETATM   25  C23 UNL     1      -2.131  15.237   3.986  1.00  0.00    -0.025 A 
HETATM   26  C24 UNL     1      -1.399  16.351   3.605  1.00  0.00     0.012 A 
HETATM   27  C28 UNL     1      -1.526  14.114   4.569  1.00  0.00    -0.010 A 
HETATM   28  C25 UNL     1      -0.050  16.404   3.782  1.00  0.00     0.001 A 
HETATM   29  C26 UNL     1       0.553  15.305   4.355  1.00  0.00     0.001 A 
HETATM   30  C27 UNL     1      -0.171  14.176   4.744  1.00  0.00     0.013 A 
ENDBRANCH  18  21
ENDBRANCH   1  17
BRANCH  13  31
HETATM   31  C10 UNL     1      -3.168   9.429  -3.413  1.00  0.00    -0.026 A 
HETATM   32  C11 UNL     1      -4.051   8.550  -4.003  1.00  0.00     0.012 A 
HETATM   33  C12 UNL     1      -4.354   8.663  -5.346  1.00  0.00     0.001 A 
HETATM   34  C13 UNL     1      -3.797   9.640  -6.146  1.00  0.00     0.000 A 
HETATM   35  C14 UNL     1      -2.912  10.521  -5.559  1.00  0.00     0.001 A 
HETATM   36  C15 UNL     1      -2.613  10.405  -4.219  1.00  0.00     0.012 A 
ENDBRANCH  13  31
TORSDOF 3
ENDMDL
