MODEL 1
REMARK VINA RESULT: -7.002818904      0.000      0.000
REMARK  6 active torsions:
REMARK  status: ('A' for Active; 'I' for Inactive)
REMARK    1  A    between atoms: C2_2  and  S1_3 
REMARK    2  A    between atoms: C2_2  and  C8_23 
REMARK    3  A    between atoms: S1_3  and  C3_4 
REMARK    4  A    between atoms: C4_7  and  N2_8 
REMARK    5  A    between atoms: C6_15  and  C7_16 
REMARK       I    between atoms: C7_16  and  N4_18 
REMARK    6  A    between atoms: N4_18  and  N5_20 
ROOT
HETATM    1  C3  UNL     1      14.947  47.513 -50.855  1.00  0.00     0.108 A 
HETATM    2  N1  UNL     1      14.458  47.688 -49.610  1.00  0.00    -0.185 N 
ATOM      3  H1  UNL     1      14.695  48.545 -49.109  1.00  0.00     0.185 HD
HETATM    4  C4  UNL     1      13.675  46.789 -49.003  1.00  0.00     0.679 A 
HETATM    5  N3  UNL     1      13.385  45.678 -49.697  1.00  0.00    -0.155 N 
ATOM      6  H3  UNL     1      12.789  44.981 -49.252  1.00  0.00     0.187 HD
HETATM    7  C5  UNL     1      13.824  45.422 -50.932  1.00  0.00     0.278 A 
HETATM    8  O1  UNL     1      13.519  44.354 -51.540  1.00  0.00    -0.266 OA
HETATM    9  C6  UNL     1      14.648  46.370 -51.565  1.00  0.00     0.136 A 
ENDROOT
BRANCH   1  10
HETATM   10  S1  UNL     1      15.934  48.792 -51.525  1.00  0.00    -0.098 SA
BRANCH  10  11
HETATM   11  C2  UNL     1      17.694  48.659 -51.233  1.00  0.00     0.120 C 
HETATM   12  C1  UNL     1      18.409  49.986 -51.345  1.00  0.00     0.030 C 
BRANCH  11  13
HETATM   13  C8  UNL     1      18.377  47.606 -52.022  1.00  0.00     0.127 A 
HETATM   14  N6  UNL     1      18.522  47.765 -53.348  1.00  0.00    -0.271 N 
HETATM   15  N7  UNL     1      19.127  46.838 -54.077  1.00  0.00    -0.226 N 
ATOM     16  H6  UNL     1      18.165  48.607 -53.798  1.00  0.00     0.190 HD
HETATM   17  N8  UNL     1      19.611  45.723 -53.534  1.00  0.00    -0.213 N 
ATOM     18  H7  UNL     1      19.223  46.982 -55.082  1.00  0.00     0.210 HD
HETATM   19  N9  UNL     1      19.476  45.558 -52.246  1.00  0.00    -0.226 N 
ATOM     20  H8  UNL     1      20.075  45.019 -54.108  1.00  0.00     0.211 HD
HETATM   21  N10 UNL     1      18.872  46.478 -51.489  1.00  0.00    -0.271 N 
ATOM     22  H9  UNL     1      19.839  44.711 -51.809  1.00  0.00     0.210 HD
ATOM     23  H10 UNL     1      18.784  46.320 -50.485  1.00  0.00     0.190 HD
ENDBRANCH  11  13
ENDBRANCH  10  11
ENDBRANCH   1  10
BRANCH   9  24
HETATM   24  C7  UNL     1      15.146  46.018 -52.861  1.00  0.00     0.278 C 
HETATM   25  O2  UNL     1      16.384  45.646 -52.916  1.00  0.00    -0.266 OA
HETATM   26  N4  UNL     1      14.508  46.010 -54.108  1.00  0.00    -0.272 N 
ATOM     27  H4  UNL     1      13.531  46.295 -54.165  1.00  0.00     0.189 HD
BRANCH  26  28
HETATM   28  N5  UNL     1      15.178  45.619 -55.289  1.00  0.00    -0.342 N 
ATOM     29  H52 UNL     1      15.390  44.629 -55.413  1.00  0.00     0.176 HD
ATOM     30  H51 UNL     1      15.448  46.293 -56.006  1.00  0.00     0.176 HD
ENDBRANCH  26  28
ENDBRANCH   9  24
BRANCH   4  31
HETATM   31  N2  UNL     1      13.223  46.982 -47.812  1.00  0.00    -0.234 N 
ATOM     32  H22 UNL     1      13.302  47.886 -47.347  1.00  0.00     0.174 HD
ATOM     33  H21 UNL     1      12.768  46.236 -47.286  1.00  0.00     0.174 HD
ENDBRANCH   4  31
TORSDOF 6
ENDMDL
MODEL 2
REMARK VINA RESULT: -6.817096108      2.697      4.859
REMARK  6 active torsions:
REMARK  status: ('A' for Active; 'I' for Inactive)
REMARK    1  A    between atoms: C2_2  and  S1_3 
REMARK    2  A    between atoms: C2_2  and  C8_23 
REMARK    3  A    between atoms: S1_3  and  C3_4 
REMARK    4  A    between atoms: C4_7  and  N2_8 
REMARK    5  A    between atoms: C6_15  and  C7_16 
REMARK       I    between atoms: C7_16  and  N4_18 
REMARK    6  A    between atoms: N4_18  and  N5_20 
ROOT
HETATM    1  C3  UNL     1      17.496  48.135 -54.259  1.00  0.00     0.108 A 
HETATM    2  N1  UNL     1      16.588  48.645 -55.116  1.00  0.00    -0.185 N 
ATOM      3  H1  UNL     1      16.449  49.656 -55.136  1.00  0.00     0.185 HD
HETATM    4  C4  UNL     1      15.860  47.884 -55.942  1.00  0.00     0.679 A 
HETATM    5  N3  UNL     1      16.075  46.562 -55.886  1.00  0.00    -0.155 N 
ATOM      6  H3  UNL     1      15.531  45.965 -56.510  1.00  0.00     0.187 HD
HETATM    7  C5  UNL     1      16.952  45.971 -55.071  1.00  0.00     0.278 A 
HETATM    8  O1  UNL     1      17.112  44.715 -55.061  1.00  0.00    -0.266 OA
HETATM    9  C6  UNL     1      17.713  46.775 -54.203  1.00  0.00     0.136 A 
ENDROOT
BRANCH   1  10
HETATM   10  S1  UNL     1      18.389  49.260 -53.261  1.00  0.00    -0.098 SA
BRANCH  10  11
HETATM   11  C2  UNL     1      17.700  49.594 -51.645  1.00  0.00     0.120 C 
HETATM   12  C1  UNL     1      18.555  50.533 -50.825  1.00  0.00     0.030 C 
BRANCH  11  13
HETATM   13  C8  UNL     1      17.321  48.389 -50.869  1.00  0.00     0.127 A 
HETATM   14  N6  UNL     1      18.203  47.853 -50.009  1.00  0.00    -0.271 N 
HETATM   15  N7  UNL     1      17.890  46.774 -49.306  1.00  0.00    -0.226 N 
ATOM     16  H6  UNL     1      19.122  48.282 -49.895  1.00  0.00     0.190 HD
HETATM   17  N8  UNL     1      16.704  46.182 -49.419  1.00  0.00    -0.213 N 
ATOM     18  H7  UNL     1      18.578  46.387 -48.660  1.00  0.00     0.210 HD
HETATM   19  N9  UNL     1      15.839  46.694 -50.252  1.00  0.00    -0.226 N 
ATOM     20  H8  UNL     1      16.477  45.352 -48.871  1.00  0.00     0.211 HD
HETATM   21  N10 UNL     1      16.128  47.781 -50.972  1.00  0.00    -0.271 N 
ATOM     22  H9  UNL     1      14.923  46.255 -50.356  1.00  0.00     0.210 HD
ATOM     23  H10 UNL     1      15.430  48.157 -51.613  1.00  0.00     0.190 HD
ENDBRANCH  11  13
ENDBRANCH  10  11
ENDBRANCH   1  10
BRANCH   9  24
HETATM   24  C7  UNL     1      18.591  46.089 -53.303  1.00  0.00     0.278 C 
HETATM   25  O2  UNL     1      18.082  45.736 -52.167  1.00  0.00    -0.266 OA
HETATM   26  N4  UNL     1      19.936  45.729 -53.444  1.00  0.00    -0.272 N 
ATOM     27  H4  UNL     1      20.426  45.971 -54.306  1.00  0.00     0.189 HD
BRANCH  26  28
HETATM   28  N5  UNL     1      20.637  45.039 -52.430  1.00  0.00    -0.342 N 
ATOM     29  H52 UNL     1      20.180  44.925 -51.526  1.00  0.00     0.176 HD
ATOM     30  H51 UNL     1      21.573  44.661 -52.581  1.00  0.00     0.176 HD
ENDBRANCH  26  28
ENDBRANCH   9  24
BRANCH   4  31
HETATM   31  N2  UNL     1      14.998  48.399 -56.750  1.00  0.00    -0.234 N 
ATOM     32  H22 UNL     1      15.268  48.765 -57.663  1.00  0.00     0.174 HD
ATOM     33  H21 UNL     1      14.010  48.461 -56.506  1.00  0.00     0.174 HD
ENDBRANCH   4  31
TORSDOF 6
ENDMDL
MODEL 3
REMARK VINA RESULT: -6.761393059      2.276      5.688
REMARK  6 active torsions:
REMARK  status: ('A' for Active; 'I' for Inactive)
REMARK    1  A    between atoms: C2_2  and  S1_3 
REMARK    2  A    between atoms: C2_2  and  C8_23 
REMARK    3  A    between atoms: S1_3  and  C3_4 
REMARK    4  A    between atoms: C4_7  and  N2_8 
REMARK    5  A    between atoms: C6_15  and  C7_16 
REMARK       I    between atoms: C7_16  and  N4_18 
REMARK    6  A    between atoms: N4_18  and  N5_20 
ROOT
HETATM    1  C3  UNL     1      17.095  46.262 -53.218  1.00  0.00     0.108 A 
HETATM    2  N1  UNL     1      18.092  45.653 -52.542  1.00  0.00    -0.185 N 
ATOM      3  H1  UNL     1      17.859  45.124 -51.702  1.00  0.00     0.185 HD
HETATM    4  C4  UNL     1      19.372  45.714 -52.926  1.00  0.00     0.679 A 
HETATM    5  N3  UNL     1      19.634  46.418 -54.036  1.00  0.00    -0.155 N 
ATOM      6  H3  UNL     1      20.605  46.474 -54.345  1.00  0.00     0.187 HD
HETATM    7  C5  UNL     1      18.713  47.052 -54.766  1.00  0.00     0.278 A 
HETATM    8  O1  UNL     1      19.019  47.704 -55.807  1.00  0.00    -0.266 OA
HETATM    9  C6  UNL     1      17.369  46.987 -54.358  1.00  0.00     0.136 A 
ENDROOT
BRANCH   1  10
HETATM   10  S1  UNL     1      15.468  46.069 -52.607  1.00  0.00    -0.098 SA
BRANCH  10  11
HETATM   11  C2  UNL     1      14.914  47.308 -51.441  1.00  0.00     0.120 C 
HETATM   12  C1  UNL     1      15.985  48.323 -51.110  1.00  0.00     0.030 C 
BRANCH  11  13
HETATM   13  C8  UNL     1      14.282  46.768 -50.214  1.00  0.00     0.127 A 
HETATM   14  N6  UNL     1      13.278  45.882 -50.324  1.00  0.00    -0.271 N 
HETATM   15  N7  UNL     1      12.694  45.385 -49.243  1.00  0.00    -0.226 N 
ATOM     16  H6  UNL     1      12.963  45.588 -51.249  1.00  0.00     0.190 HD
HETATM   17  N8  UNL     1      13.072  45.737 -48.017  1.00  0.00    -0.213 N 
ATOM     18  H7  UNL     1      11.933  44.715 -49.355  1.00  0.00     0.210 HD
HETATM   19  N9  UNL     1      14.047  46.597 -47.897  1.00  0.00    -0.226 N 
ATOM     20  H8  UNL     1      12.614  45.346 -47.194  1.00  0.00     0.211 HD
HETATM   21  N10 UNL     1      14.653  47.112 -48.970  1.00  0.00    -0.271 N 
ATOM     22  H9  UNL     1      14.353  46.881 -46.966  1.00  0.00     0.210 HD
ATOM     23  H10 UNL     1      15.413  47.780 -48.843  1.00  0.00     0.190 HD
ENDBRANCH  11  13
ENDBRANCH  10  11
ENDBRANCH   1  10
BRANCH   9  24
HETATM   24  C7  UNL     1      16.429  47.737 -55.136  1.00  0.00     0.278 C 
HETATM   25  O2  UNL     1      16.069  48.881 -54.650  1.00  0.00    -0.266 OA
HETATM   26  N4  UNL     1      15.816  47.436 -56.359  1.00  0.00    -0.272 N 
ATOM     27  H4  UNL     1      16.033  46.551 -56.816  1.00  0.00     0.189 HD
BRANCH  26  28
HETATM   28  N5  UNL     1      14.907  48.322 -56.979  1.00  0.00    -0.342 N 
ATOM     29  H52 UNL     1      13.977  47.971 -57.205  1.00  0.00     0.176 HD
ATOM     30  H51 UNL     1      15.158  49.286 -57.200  1.00  0.00     0.176 HD
ENDBRANCH  26  28
ENDBRANCH   9  24
BRANCH   4  31
HETATM   31  N2  UNL     1      20.304  45.123 -52.260  1.00  0.00    -0.234 N 
ATOM     32  H22 UNL     1      20.562  44.153 -52.440  1.00  0.00     0.174 HD
ATOM     33  H21 UNL     1      20.821  45.605 -51.525  1.00  0.00     0.174 HD
ENDBRANCH   4  31
TORSDOF 6
ENDMDL
MODEL 4
REMARK VINA RESULT: -6.638190208      1.969      2.770
REMARK  6 active torsions:
REMARK  status: ('A' for Active; 'I' for Inactive)
REMARK    1  A    between atoms: C2_2  and  S1_3 
REMARK    2  A    between atoms: C2_2  and  C8_23 
REMARK    3  A    between atoms: S1_3  and  C3_4 
REMARK    4  A    between atoms: C4_7  and  N2_8 
REMARK    5  A    between atoms: C6_15  and  C7_16 
REMARK       I    between atoms: C7_16  and  N4_18 
REMARK    6  A    between atoms: N4_18  and  N5_20 
ROOT
HETATM    1  C3  UNL     1      16.116  47.144 -52.110  1.00  0.00     0.108 A 
HETATM    2  N1  UNL     1      15.083  47.001 -51.254  1.00  0.00    -0.185 N 
ATOM      3  H1  UNL     1      15.144  47.445 -50.337  1.00  0.00     0.185 HD
HETATM    4  C4  UNL     1      13.982  46.302 -51.554  1.00  0.00     0.679 A 
HETATM    5  N3  UNL     1      13.941  45.737 -52.769  1.00  0.00    -0.155 N 
ATOM      6  H3  UNL     1      13.109  45.201 -53.016  1.00  0.00     0.187 HD
HETATM    7  C5  UNL     1      14.915  45.826 -53.678  1.00  0.00     0.278 A 
HETATM    8  O1  UNL     1      14.822  45.270 -54.812  1.00  0.00    -0.266 OA
HETATM    9  C6  UNL     1      16.071  46.560 -53.358  1.00  0.00     0.136 A 
ENDROOT
BRANCH   1  10
HETATM   10  S1  UNL     1      17.475  48.110 -51.584  1.00  0.00    -0.098 SA
BRANCH  10  11
HETATM   11  C2  UNL     1      18.612  47.317 -50.453  1.00  0.00     0.120 C 
HETATM   12  C1  UNL     1      19.393  48.304 -49.616  1.00  0.00     0.030 C 
BRANCH  11  13
HETATM   13  C8  UNL     1      19.502  46.306 -51.073  1.00  0.00     0.127 A 
HETATM   14  N6  UNL     1      20.119  45.403 -50.294  1.00  0.00    -0.271 N 
HETATM   15  N7  UNL     1      20.922  44.491 -50.822  1.00  0.00    -0.226 N 
ATOM     16  H6  UNL     1      19.967  45.419 -49.285  1.00  0.00     0.190 HD
HETATM   17  N8  UNL     1      21.149  44.431 -52.132  1.00  0.00    -0.213 N 
ATOM     18  H7  UNL     1      21.379  43.817 -50.208  1.00  0.00     0.210 HD
HETATM   19  N9  UNL     1      20.555  45.304 -52.900  1.00  0.00    -0.226 N 
ATOM     20  H8  UNL     1      21.769  43.722 -52.525  1.00  0.00     0.211 HD
HETATM   21  N10 UNL     1      19.740  46.232 -52.392  1.00  0.00    -0.271 N 
ATOM     22  H9  UNL     1      20.715  45.276 -53.907  1.00  0.00     0.210 HD
ATOM     23  H10 UNL     1      19.289  46.899 -53.019  1.00  0.00     0.190 HD
ENDBRANCH  11  13
ENDBRANCH  10  11
ENDBRANCH   1  10
BRANCH   9  24
HETATM   24  C7  UNL     1      17.113  46.570 -54.341  1.00  0.00     0.278 C 
HETATM   25  O2  UNL     1      17.846  45.506 -54.407  1.00  0.00    -0.266 OA
HETATM   26  N4  UNL     1      17.484  47.558 -55.261  1.00  0.00    -0.272 N 
ATOM     27  H4  UNL     1      16.967  48.438 -55.278  1.00  0.00     0.189 HD
BRANCH  26  28
HETATM   28  N5  UNL     1      18.553  47.375 -56.166  1.00  0.00    -0.342 N 
ATOM     29  H52 UNL     1      19.500  47.543 -55.828  1.00  0.00     0.176 HD
ATOM     30  H51 UNL     1      18.400  47.083 -57.131  1.00  0.00     0.176 HD
ENDBRANCH  26  28
ENDBRANCH   9  24
BRANCH   4  31
HETATM   31  N2  UNL     1      13.011  46.181 -50.715  1.00  0.00    -0.234 N 
ATOM     32  H22 UNL     1      12.036  46.248 -51.007  1.00  0.00     0.174 HD
ATOM     33  H21 UNL     1      13.181  46.013 -49.724  1.00  0.00     0.174 HD
ENDBRANCH   4  31
TORSDOF 6
ENDMDL
MODEL 5
REMARK VINA RESULT: -6.570036256      5.856      8.183
REMARK  6 active torsions:
REMARK  status: ('A' for Active; 'I' for Inactive)
REMARK    1  A    between atoms: C2_2  and  S1_3 
REMARK    2  A    between atoms: C2_2  and  C8_23 
REMARK    3  A    between atoms: S1_3  and  C3_4 
REMARK    4  A    between atoms: C4_7  and  N2_8 
REMARK    5  A    between atoms: C6_15  and  C7_16 
REMARK       I    between atoms: C7_16  and  N4_18 
REMARK    6  A    between atoms: N4_18  and  N5_20 
ROOT
HETATM    1  C3  UNL     1      15.846  49.644 -47.346  1.00  0.00     0.108 A 
HETATM    2  N1  UNL     1      17.109  49.877 -46.934  1.00  0.00    -0.185 N 
ATOM      3  H1  UNL     1      17.553  49.199 -46.315  1.00  0.00     0.185 HD
HETATM    4  C4  UNL     1      17.806  50.959 -47.303  1.00  0.00     0.679 A 
HETATM    5  N3  UNL     1      17.186  51.824 -48.119  1.00  0.00    -0.155 N 
ATOM      6  H3  UNL     1      17.701  52.654 -48.412  1.00  0.00     0.187 HD
HETATM    7  C5  UNL     1      15.939  51.674 -48.575  1.00  0.00     0.278 A 
HETATM    8  O1  UNL     1      15.404  52.524 -49.345  1.00  0.00    -0.266 OA
HETATM    9  C6  UNL     1      15.211  50.536 -48.184  1.00  0.00     0.136 A 
ENDROOT
BRANCH   1  10
HETATM   10  S1  UNL     1      15.075  48.172 -46.801  1.00  0.00    -0.098 SA
BRANCH  10  11
HETATM   11  C2  UNL     1      14.531  48.155 -45.097  1.00  0.00     0.120 C 
HETATM   12  C1  UNL     1      15.191  47.066 -44.281  1.00  0.00     0.030 C 
BRANCH  11  13
HETATM   13  C8  UNL     1      13.060  48.153 -44.914  1.00  0.00     0.127 A 
HETATM   14  N6  UNL     1      12.324  49.122 -45.483  1.00  0.00    -0.271 N 
HETATM   15  N7  UNL     1      11.007  49.146 -45.333  1.00  0.00    -0.226 N 
ATOM     16  H6  UNL     1      12.782  49.847 -46.035  1.00  0.00     0.190 HD
HETATM   17  N8  UNL     1      10.365  48.221 -44.623  1.00  0.00    -0.213 N 
ATOM     18  H7  UNL     1      10.471  49.893 -45.774  1.00  0.00     0.210 HD
HETATM   19  N9  UNL     1      11.070  47.274 -44.066  1.00  0.00    -0.226 N 
ATOM     20  H8  UNL     1       9.351  48.252 -44.517  1.00  0.00     0.211 HD
HETATM   21  N10 UNL     1      12.398  47.228 -44.202  1.00  0.00    -0.271 N 
ATOM     22  H9  UNL     1      10.598  46.556 -43.516  1.00  0.00     0.210 HD
ATOM     23  H10 UNL     1      12.921  46.473 -43.756  1.00  0.00     0.190 HD
ENDBRANCH  11  13
ENDBRANCH  10  11
ENDBRANCH   1  10
BRANCH   9  24
HETATM   24  C7  UNL     1      13.858  50.454 -48.647  1.00  0.00     0.278 C 
HETATM   25  O2  UNL     1      12.938  50.637 -47.756  1.00  0.00    -0.266 OA
HETATM   26  N4  UNL     1      13.349  50.203 -49.927  1.00  0.00    -0.272 N 
ATOM     27  H4  UNL     1      14.000  50.039 -50.695  1.00  0.00     0.189 HD
BRANCH  26  28
HETATM   28  N5  UNL     1      11.961  50.169 -50.187  1.00  0.00    -0.342 N 
ATOM     29  H52 UNL     1      11.531  49.262 -50.369  1.00  0.00     0.176 HD
ATOM     30  H51 UNL     1      11.392  51.015 -50.196  1.00  0.00     0.176 HD
ENDBRANCH  26  28
ENDBRANCH   9  24
BRANCH   4  31
HETATM   31  N2  UNL     1      19.011  51.157 -46.893  1.00  0.00    -0.234 N 
ATOM     32  H22 UNL     1      19.321  50.857 -45.968  1.00  0.00     0.174 HD
ATOM     33  H21 UNL     1      19.704  51.623 -47.478  1.00  0.00     0.174 HD
ENDBRANCH   4  31
TORSDOF 6
ENDMDL
