MODEL 1
REMARK VINA RESULT: -8.020231817      0.000      0.000
REMARK  5 active torsions:
REMARK  status: ('A' for Active; 'I' for Inactive)
REMARK    1  A    between atoms: N1_1  and  C1_4 
REMARK    2  A    between atoms: C2_10  and  S1_11 
REMARK    3  A    between atoms: S1_11  and  C3_14 
REMARK    4  A    between atoms: C4_19  and  N6_20 
REMARK    5  A    between atoms: C5_23  and  N7_24 
REMARK       I    between atoms: N7_24  and  C6_26 
ROOT
HETATM    1  C3  UNL     1      16.689  46.638 -54.038  1.00  0.00     0.181 A 
HETATM    2  N4  UNL     1      15.874  46.031 -54.911  1.00  0.00    -0.286 N 
ATOM      3  H4  UNL     1      16.056  45.921 -55.909  1.00  0.00     0.188 HD
HETATM    4  N5  UNL     1      14.796  45.595 -54.276  1.00  0.00    -0.278 N 
ATOM      5  H5  UNL     1      14.024  45.098 -54.720  1.00  0.00     0.189 HD
HETATM    6  C4  UNL     1      14.859  45.897 -52.969  1.00  0.00     0.218 A 
HETATM    7  C5  UNL     1      16.076  46.569 -52.805  1.00  0.00     0.128 A 
ENDROOT
BRANCH   1   8
HETATM    8  S1  UNL     1      18.214  47.384 -54.347  1.00  0.00     0.246 S 
HETATM    9  O2  UNL     1      18.515  47.398 -55.839  1.00  0.00    -0.214 OA
HETATM   10  O3  UNL     1      18.112  48.855 -53.968  1.00  0.00    -0.214 OA
BRANCH   8  11
HETATM   11  C2  UNL     1      19.488  46.609 -53.458  1.00  0.00     0.203 A 
HETATM   12  C1  UNL     1      20.805  46.504 -53.822  1.00  0.00     0.162 A 
HETATM   13  N2  UNL     1      21.454  45.828 -52.851  1.00  0.00    -0.223 N 
HETATM   14  O1  UNL     1      20.576  45.537 -51.945  1.00  0.00    -0.154 OA
ATOM     15  H2  UNL     1      22.446  45.592 -52.834  1.00  0.00     0.198 HD
HETATM   16  N3  UNL     1      19.384  45.992 -52.278  1.00  0.00    -0.227 N 
ATOM     17  H3  UNL     1      18.531  45.889 -51.729  1.00  0.00     0.197 HD
BRANCH  12  18
HETATM   18  N1  UNL     1      21.393  46.949 -54.888  1.00  0.00    -0.382 N 
ATOM     19  H12 UNL     1      22.274  46.648 -55.307  1.00  0.00     0.157 HD
ATOM     20  H11 UNL     1      21.011  47.700 -55.462  1.00  0.00     0.157 HD
ENDBRANCH  12  18
ENDBRANCH   8  11
ENDBRANCH   1   8
BRANCH   7  21
HETATM   21  N7  UNL     1      16.554  47.072 -51.559  1.00  0.00    -0.305 N 
HETATM   22  C6  UNL     1      16.233  48.378 -51.148  1.00  0.00     0.333 C 
HETATM   23  N8  UNL     1      16.677  48.926 -49.926  1.00  0.00    -0.040 NA
HETATM   24  O6  UNL     1      15.512  49.139 -51.876  1.00  0.00    -0.251 OA
ATOM     25  H7  UNL     1      17.133  46.481 -50.964  1.00  0.00     0.170 HD
ENDBRANCH   7  21
BRANCH   6  26
HETATM   26  N6  UNL     1      13.943  45.636 -51.923  1.00  0.00    -0.094 N 
HETATM   27  O4  UNL     1      13.214  46.480 -51.413  1.00  0.00    -0.530 OA
HETATM   28  O5  UNL     1      13.839  44.339 -51.419  1.00  0.00    -0.530 OA
ENDBRANCH   6  26
TORSDOF 5
ENDMDL
MODEL 2
REMARK VINA RESULT: -7.863367082      2.176      6.046
REMARK  5 active torsions:
REMARK  status: ('A' for Active; 'I' for Inactive)
REMARK    1  A    between atoms: N1_1  and  C1_4 
REMARK    2  A    between atoms: C2_10  and  S1_11 
REMARK    3  A    between atoms: S1_11  and  C3_14 
REMARK    4  A    between atoms: C4_19  and  N6_20 
REMARK    5  A    between atoms: C5_23  and  N7_24 
REMARK       I    between atoms: N7_24  and  C6_26 
ROOT
HETATM    1  C3  UNL     1      17.053  46.260 -52.304  1.00  0.00     0.181 A 
HETATM    2  N4  UNL     1      18.049  45.703 -51.602  1.00  0.00    -0.286 N 
ATOM      3  H4  UNL     1      17.930  45.102 -50.786  1.00  0.00     0.188 HD
HETATM    4  N5  UNL     1      19.212  46.055 -52.132  1.00  0.00    -0.278 N 
ATOM      5  H5  UNL     1      20.122  45.760 -51.778  1.00  0.00     0.189 HD
HETATM    6  C4  UNL     1      19.027  46.853 -53.197  1.00  0.00     0.218 A 
HETATM    7  C5  UNL     1      17.639  46.991 -53.317  1.00  0.00     0.128 A 
ENDROOT
BRANCH   1   8
HETATM    8  S1  UNL     1      15.355  46.129 -52.032  1.00  0.00     0.246 S 
HETATM    9  O2  UNL     1      14.610  45.952 -53.348  1.00  0.00    -0.214 OA
HETATM   10  O3  UNL     1      15.091  44.837 -51.272  1.00  0.00    -0.214 OA
BRANCH   8  11
HETATM   11  C2  UNL     1      14.748  47.495 -51.150  1.00  0.00     0.203 A 
HETATM   12  C1  UNL     1      13.671  47.521 -50.303  1.00  0.00     0.162 A 
HETATM   13  N2  UNL     1      13.544  48.777 -49.827  1.00  0.00    -0.223 N 
HETATM   14  O1  UNL     1      14.496  49.477 -50.357  1.00  0.00    -0.154 OA
ATOM     15  H2  UNL     1      12.835  49.111 -49.174  1.00  0.00     0.198 HD
HETATM   16  N3  UNL     1      15.238  48.738 -51.156  1.00  0.00    -0.227 N 
ATOM     17  H3  UNL     1      16.047  49.060 -51.688  1.00  0.00     0.197 HD
BRANCH  12  18
HETATM   18  N1  UNL     1      12.872  46.555 -49.972  1.00  0.00    -0.382 N 
ATOM     19  H12 UNL     1      12.836  46.023 -49.103  1.00  0.00     0.157 HD
ATOM     20  H11 UNL     1      12.142  46.201 -50.590  1.00  0.00     0.157 HD
ENDBRANCH  12  18
ENDBRANCH   8  11
ENDBRANCH   1   8
BRANCH   7  21
HETATM   21  N7  UNL     1      16.993  47.761 -54.328  1.00  0.00    -0.305 N 
HETATM   22  C6  UNL     1      16.705  47.191 -55.581  1.00  0.00     0.333 C 
HETATM   23  N8  UNL     1      16.067  47.906 -56.618  1.00  0.00    -0.040 NA
HETATM   24  O6  UNL     1      17.014  45.981 -55.841  1.00  0.00    -0.251 OA
ATOM     25  H7  UNL     1      16.739  48.730 -54.142  1.00  0.00     0.170 HD
ENDBRANCH   7  21
BRANCH   6  26
HETATM   26  N6  UNL     1      19.969  47.464 -54.058  1.00  0.00    -0.094 N 
HETATM   27  O4  UNL     1      20.082  47.210 -55.252  1.00  0.00    -0.530 OA
HETATM   28  O5  UNL     1      20.840  48.423 -53.541  1.00  0.00    -0.530 OA
ENDBRANCH   6  26
TORSDOF 5
ENDMDL
MODEL 3
REMARK VINA RESULT: -7.858442071      0.962      1.104
REMARK  5 active torsions:
REMARK  status: ('A' for Active; 'I' for Inactive)
REMARK    1  A    between atoms: N1_1  and  C1_4 
REMARK    2  A    between atoms: C2_10  and  S1_11 
REMARK    3  A    between atoms: S1_11  and  C3_14 
REMARK    4  A    between atoms: C4_19  and  N6_20 
REMARK    5  A    between atoms: C5_23  and  N7_24 
REMARK       I    between atoms: N7_24  and  C6_26 
ROOT
HETATM    1  C3  UNL     1      16.694  46.620 -54.004  1.00  0.00     0.181 A 
HETATM    2  N4  UNL     1      15.979  45.856 -54.840  1.00  0.00    -0.286 N 
ATOM      3  H4  UNL     1      16.239  45.631 -55.800  1.00  0.00     0.188 HD
HETATM    4  N5  UNL     1      14.881  45.439 -54.226  1.00  0.00    -0.278 N 
ATOM      5  H5  UNL     1      14.172  44.842 -54.650  1.00  0.00     0.189 HD
HETATM    6  C4  UNL     1      14.832  45.910 -52.968  1.00  0.00     0.218 A 
HETATM    7  C5  UNL     1      15.996  46.672 -52.816  1.00  0.00     0.128 A 
ENDROOT
BRANCH   1   8
HETATM    8  S1  UNL     1      18.195  47.414 -54.307  1.00  0.00     0.246 S 
HETATM    9  O2  UNL     1      18.478  47.480 -55.802  1.00  0.00    -0.214 OA
HETATM   10  O3  UNL     1      18.061  48.870 -53.883  1.00  0.00    -0.214 OA
BRANCH   8  11
HETATM   11  C2  UNL     1      19.500  46.646 -53.457  1.00  0.00     0.203 A 
HETATM   12  C1  UNL     1      20.807  46.551 -53.858  1.00  0.00     0.162 A 
HETATM   13  N2  UNL     1      21.488  45.878 -52.908  1.00  0.00    -0.223 N 
HETATM   14  O1  UNL     1      20.637  45.579 -51.978  1.00  0.00    -0.154 OA
ATOM     15  H2  UNL     1      22.481  45.648 -52.919  1.00  0.00     0.198 HD
HETATM   16  N3  UNL     1      19.434  46.026 -52.275  1.00  0.00    -0.227 N 
ATOM     17  H3  UNL     1      18.597  45.916 -51.702  1.00  0.00     0.197 HD
BRANCH  12  18
HETATM   18  N1  UNL     1      21.361  47.002 -54.940  1.00  0.00    -0.382 N 
ATOM     19  H12 UNL     1      21.577  46.505 -55.804  1.00  0.00     0.157 HD
ATOM     20  H11 UNL     1      21.660  47.971 -55.049  1.00  0.00     0.157 HD
ENDBRANCH  12  18
ENDBRANCH   8  11
ENDBRANCH   1   8
BRANCH   7  21
HETATM   21  N7  UNL     1      16.354  47.360 -51.619  1.00  0.00    -0.305 N 
HETATM   22  C6  UNL     1      16.860  46.652 -50.514  1.00  0.00     0.333 C 
HETATM   23  N8  UNL     1      17.231  47.281 -49.307  1.00  0.00    -0.040 NA
HETATM   24  O6  UNL     1      17.008  45.385 -50.556  1.00  0.00    -0.251 OA
ATOM     25  H7  UNL     1      16.242  48.372 -51.564  1.00  0.00     0.170 HD
ENDBRANCH   7  21
BRANCH   6  26
HETATM   26  N6  UNL     1      13.857  45.729 -51.960  1.00  0.00    -0.094 N 
HETATM   27  O4  UNL     1      13.142  46.622 -51.518  1.00  0.00    -0.530 OA
HETATM   28  O5  UNL     1      13.673  44.458 -51.413  1.00  0.00    -0.530 OA
ENDBRANCH   6  26
TORSDOF 5
ENDMDL
MODEL 4
REMARK VINA RESULT: -7.629623719      5.563      8.664
REMARK  5 active torsions:
REMARK  status: ('A' for Active; 'I' for Inactive)
REMARK    1  A    between atoms: N1_1  and  C1_4 
REMARK    2  A    between atoms: C2_10  and  S1_11 
REMARK    3  A    between atoms: S1_11  and  C3_14 
REMARK    4  A    between atoms: C4_19  and  N6_20 
REMARK    5  A    between atoms: C5_23  and  N7_24 
REMARK       I    between atoms: N7_24  and  C6_26 
ROOT
HETATM    1  C3  UNL     1      13.651  47.291 -47.318  1.00  0.00     0.181 A 
HETATM    2  N4  UNL     1      14.071  46.021 -47.382  1.00  0.00    -0.286 N 
ATOM      3  H4  UNL     1      14.241  45.415 -46.579  1.00  0.00     0.188 HD
HETATM    4  N5  UNL     1      14.233  45.674 -48.651  1.00  0.00    -0.278 N 
ATOM      5  H5  UNL     1      14.547  44.756 -48.965  1.00  0.00     0.189 HD
HETATM    6  C4  UNL     1      13.927  46.697 -49.467  1.00  0.00     0.218 A 
HETATM    7  C5  UNL     1      13.550  47.744 -48.617  1.00  0.00     0.128 A 
ENDROOT
BRANCH   1   8
HETATM    8  S1  UNL     1      13.298  48.227 -45.912  1.00  0.00     0.246 S 
HETATM    9  O2  UNL     1      13.965  47.625 -44.683  1.00  0.00    -0.214 OA
HETATM   10  O3  UNL     1      13.955  49.591 -46.069  1.00  0.00    -0.214 OA
BRANCH   8  11
HETATM   11  C2  UNL     1      11.586  48.393 -45.677  1.00  0.00     0.203 A 
HETATM   12  C1  UNL     1      10.848  49.545 -45.757  1.00  0.00     0.162 A 
HETATM   13  N2  UNL     1       9.560  49.234 -45.507  1.00  0.00    -0.223 N 
HETATM   14  O1  UNL     1       9.518  47.959 -45.286  1.00  0.00    -0.154 OA
ATOM     15  H2  UNL     1       8.770  49.879 -45.494  1.00  0.00     0.198 HD
HETATM   16  N3  UNL     1      10.718  47.422 -45.380  1.00  0.00    -0.227 N 
ATOM     17  H3  UNL     1      10.943  46.436 -45.250  1.00  0.00     0.197 HD
BRANCH  12  18
HETATM   18  N1  UNL     1      11.247  50.751 -46.021  1.00  0.00    -0.382 N 
ATOM     19  H12 UNL     1      10.809  51.638 -45.774  1.00  0.00     0.157 HD
ATOM     20  H11 UNL     1      12.100  50.953 -46.541  1.00  0.00     0.157 HD
ENDBRANCH  12  18
ENDBRANCH   8  11
ENDBRANCH   1   8
BRANCH   7  21
HETATM   21  N7  UNL     1      13.139  49.033 -49.066  1.00  0.00    -0.305 N 
HETATM   22  C6  UNL     1      14.089  50.044 -49.295  1.00  0.00     0.333 C 
HETATM   23  N8  UNL     1      13.738  51.337 -49.741  1.00  0.00    -0.040 NA
HETATM   24  O6  UNL     1      15.333  49.833 -49.106  1.00  0.00    -0.251 OA
ATOM     25  H7  UNL     1      12.149  49.223 -49.222  1.00  0.00     0.170 HD
ENDBRANCH   7  21
BRANCH   6  26
HETATM   26  N6  UNL     1      13.956  46.783 -50.878  1.00  0.00    -0.094 N 
HETATM   27  O4  UNL     1      13.162  46.219 -51.623  1.00  0.00    -0.530 OA
HETATM   28  O5  UNL     1      14.943  47.555 -51.492  1.00  0.00    -0.530 OA
ENDBRANCH   6  26
TORSDOF 5
ENDMDL
MODEL 5
REMARK VINA RESULT: -7.604752906      2.584      5.571
REMARK  5 active torsions:
REMARK  status: ('A' for Active; 'I' for Inactive)
REMARK    1  A    between atoms: N1_1  and  C1_4 
REMARK    2  A    between atoms: C2_10  and  S1_11 
REMARK    3  A    between atoms: S1_11  and  C3_14 
REMARK    4  A    between atoms: C4_19  and  N6_20 
REMARK    5  A    between atoms: C5_23  and  N7_24 
REMARK       I    between atoms: N7_24  and  C6_26 
ROOT
HETATM    1  C3  UNL     1      15.240  46.144 -52.799  1.00  0.00     0.181 A 
HETATM    2  N4  UNL     1      14.612  45.936 -53.964  1.00  0.00    -0.286 N 
ATOM      3  H4  UNL     1      13.761  45.388 -54.085  1.00  0.00     0.188 HD
HETATM    4  N5  UNL     1      15.270  46.554 -54.935  1.00  0.00    -0.278 N 
ATOM      5  H5  UNL     1      14.993  46.548 -55.917  1.00  0.00     0.189 HD
HETATM    6  C4  UNL     1      16.350  47.188 -54.449  1.00  0.00     0.218 A 
HETATM    7  C5  UNL     1      16.339  46.930 -53.073  1.00  0.00     0.128 A 
ENDROOT
BRANCH   1   8
HETATM    8  S1  UNL     1      14.804  45.558 -51.236  1.00  0.00     0.246 S 
HETATM    9  O2  UNL     1      13.906  44.334 -51.350  1.00  0.00    -0.214 OA
HETATM   10  O3  UNL     1      16.062  45.042 -50.551  1.00  0.00    -0.214 OA
BRANCH   8  11
HETATM   11  C2  UNL     1      14.053  46.799 -50.282  1.00  0.00     0.203 A 
HETATM   12  C1  UNL     1      13.869  46.802 -48.924  1.00  0.00     0.162 A 
HETATM   13  N2  UNL     1      13.247  47.952 -48.589  1.00  0.00    -0.223 N 
HETATM   14  O1  UNL     1      13.063  48.612 -49.688  1.00  0.00    -0.154 OA
ATOM     15  H2  UNL     1      12.974  48.244 -47.651  1.00  0.00     0.198 HD
HETATM   16  N3  UNL     1      13.535  47.949 -50.724  1.00  0.00    -0.227 N 
ATOM     17  H3  UNL     1      13.509  48.261 -51.695  1.00  0.00     0.197 HD
BRANCH  12  18
HETATM   18  N1  UNL     1      14.205  45.901 -48.055  1.00  0.00    -0.382 N 
ATOM     19  H12 UNL     1      14.655  46.022 -47.148  1.00  0.00     0.157 HD
ATOM     20  H11 UNL     1      14.043  44.904 -48.197  1.00  0.00     0.157 HD
ENDBRANCH  12  18
ENDBRANCH   8  11
ENDBRANCH   1   8
BRANCH   7  21
HETATM   21  N7  UNL     1      17.315  47.421 -52.156  1.00  0.00    -0.305 N 
HETATM   22  C6  UNL     1      17.110  48.638 -51.482  1.00  0.00     0.333 C 
HETATM   23  N8  UNL     1      18.041  49.170 -50.563  1.00  0.00    -0.040 NA
HETATM   24  O6  UNL     1      16.054  49.327 -51.674  1.00  0.00    -0.251 OA
ATOM     25  H7  UNL     1      18.167  46.887 -51.990  1.00  0.00     0.170 HD
ENDBRANCH   7  21
BRANCH   6  26
HETATM   26  N6  UNL     1      17.332  47.962 -55.110  1.00  0.00    -0.094 N 
HETATM   27  O4  UNL     1      17.490  49.167 -54.948  1.00  0.00    -0.530 OA
HETATM   28  O5  UNL     1      18.195  47.338 -56.012  1.00  0.00    -0.530 OA
ENDBRANCH   6  26
TORSDOF 5
ENDMDL
