MODEL 1
REMARK VINA RESULT: -7.557930807      0.000      0.000
REMARK  7 active torsions:
REMARK  status: ('A' for Active; 'I' for Inactive)
REMARK    1  A    between atoms: C5_10  and  N3_11 
REMARK    2  A    between atoms: N3_11  and  N4_13 
REMARK    3  A    between atoms: N4_13  and  C6_15 
REMARK    4  A    between atoms: C7_22  and  N8_23 
REMARK    5  A    between atoms: N8_23  and  N9_25 
REMARK    6  A    between atoms: N9_25  and  C8_27 
REMARK    7  A    between atoms: C8_27  and  O2_28 
ROOT
HETATM    1  C6  UNL     1      13.767  47.155 -48.903  1.00  0.00     0.727 A 
HETATM    2  N5  UNL     1      14.099  45.938 -48.453  1.00  0.00    -0.115 N 
ATOM      3  H5  UNL     1      14.379  45.206 -49.106  1.00  0.00     0.207 HD
HETATM    4  N6  UNL     1      14.061  45.699 -47.160  1.00  0.00    -0.214 N 
ATOM      5  H6  UNL     1      14.314  44.770 -46.824  1.00  0.00     0.209 HD
HETATM    6  N7  UNL     1      13.705  46.619 -46.282  1.00  0.00    -0.115 N 
ATOM      7  H7  UNL     1      13.688  46.391 -45.288  1.00  0.00     0.207 HD
HETATM    8  C7  UNL     1      13.360  47.873 -46.696  1.00  0.00     0.727 A 
HETATM    9  N10 UNL     1      13.406  48.094 -48.015  1.00  0.00    -0.017 N 
ATOM     10  H10 UNL     1      13.153  49.019 -48.361  1.00  0.00     0.203 HD
ENDROOT
BRANCH   1  11
HETATM   11  N4  UNL     1      13.810  47.446 -50.313  1.00  0.00    -0.130 N 
ATOM     12  H4  UNL     1      12.946  47.653 -50.813  1.00  0.00     0.205 HD
BRANCH  11  13
HETATM   13  N3  UNL     1      15.004  47.446 -50.988  1.00  0.00    -0.280 N 
ATOM     14  H3  UNL     1      15.810  47.790 -50.464  1.00  0.00     0.188 HD
BRANCH  13  15
HETATM   15  C5  UNL     1      15.264  47.037 -52.302  1.00  0.00     0.139 A 
HETATM   16  C2  UNL     1      16.159  47.775 -53.044  1.00  0.00     0.040 A 
HETATM   17  C1  UNL     1      16.796  48.971 -52.490  1.00  0.00     0.071 C 
HETATM   18  N1  UNL     1      16.487  47.442 -54.318  1.00  0.00    -0.354 N 
HETATM   19  C3  UNL     1      15.936  46.361 -54.900  1.00  0.00     0.183 A 
ATOM     20  H1  UNL     1      17.155  48.014 -54.836  1.00  0.00     0.166 HD
HETATM   21  N2  UNL     1      15.058  45.621 -54.199  1.00  0.00    -0.318 N 
HETATM   22  C4  UNL     1      14.711  45.931 -52.922  1.00  0.00     0.276 A 
ATOM     23  H2  UNL     1      14.640  44.802 -54.640  1.00  0.00     0.169 HD
HETATM   24  O1  UNL     1      13.898  45.245 -52.272  1.00  0.00    -0.266 OA
ENDBRANCH  13  15
ENDBRANCH  11  13
ENDBRANCH   1  11
BRANCH   8  25
HETATM   25  N8  UNL     1      13.031  48.728 -45.802  1.00  0.00    -0.128 N 
ATOM     26  H8  UNL     1      13.795  49.114 -45.247  1.00  0.00     0.205 HD
BRANCH  25  27
HETATM   27  N9  UNL     1      11.773  49.187 -45.501  1.00  0.00    -0.256 N 
ATOM     28  H9  UNL     1      11.610  50.191 -45.426  1.00  0.00     0.190 HD
BRANCH  27  29
HETATM   29  C8  UNL     1      10.679  48.274 -45.291  1.00  0.00     0.227 C 
HETATM   30  S1  UNL     1       9.169  48.912 -45.385  1.00  0.00    -0.032 SA
BRANCH  29  31
HETATM   31  O2  UNL     1      10.886  46.931 -45.024  1.00  0.00    -0.336 OA
ATOM     32  H2  UNL     1      10.552  46.517 -44.237  1.00  0.00     0.220 HD
ENDBRANCH  29  31
ENDBRANCH  27  29
ENDBRANCH  25  27
ENDBRANCH   8  25
TORSDOF 7
ENDMDL
MODEL 2
REMARK VINA RESULT: -7.514265226      2.974      7.533
REMARK  7 active torsions:
REMARK  status: ('A' for Active; 'I' for Inactive)
REMARK    1  A    between atoms: C5_10  and  N3_11 
REMARK    2  A    between atoms: N3_11  and  N4_13 
REMARK    3  A    between atoms: N4_13  and  C6_15 
REMARK    4  A    between atoms: C7_22  and  N8_23 
REMARK    5  A    between atoms: N8_23  and  N9_25 
REMARK    6  A    between atoms: N9_25  and  C8_27 
REMARK    7  A    between atoms: C8_27  and  O2_28 
ROOT
HETATM    1  C6  UNL     1      14.589  46.144 -48.060  1.00  0.00     0.727 A 
HETATM    2  N5  UNL     1      15.872  46.525 -48.057  1.00  0.00    -0.115 N 
ATOM      3  H5  UNL     1      16.309  46.858 -47.198  1.00  0.00     0.207 HD
HETATM    4  N6  UNL     1      16.562  46.466 -49.176  1.00  0.00    -0.214 N 
ATOM      5  H6  UNL     1      17.539  46.759 -49.167  1.00  0.00     0.209 HD
HETATM    6  N7  UNL     1      16.034  46.041 -50.310  1.00  0.00    -0.115 N 
ATOM      7  H7  UNL     1      16.604  46.012 -51.155  1.00  0.00     0.207 HD
HETATM    8  C7  UNL     1      14.730  45.641 -50.358  1.00  0.00     0.727 A 
HETATM    9  N10 UNL     1      14.047  45.711 -49.209  1.00  0.00    -0.017 N 
ATOM     10  H10 UNL     1      13.070  45.421 -49.207  1.00  0.00     0.203 HD
ENDROOT
BRANCH   1  11
HETATM   11  N4  UNL     1      13.814  46.189 -46.847  1.00  0.00    -0.130 N 
ATOM     12  H4  UNL     1      13.338  45.349 -46.518  1.00  0.00     0.205 HD
BRANCH  11  13
HETATM   13  N3  UNL     1      13.713  47.353 -46.128  1.00  0.00    -0.280 N 
ATOM     14  H3  UNL     1      14.593  47.744 -45.790  1.00  0.00     0.188 HD
BRANCH  13  15
HETATM   15  C5  UNL     1      12.560  48.077 -45.798  1.00  0.00     0.139 A 
HETATM   16  C2  UNL     1      12.413  49.338 -46.331  1.00  0.00     0.040 A 
HETATM   17  C1  UNL     1      13.445  49.920 -47.192  1.00  0.00     0.071 C 
HETATM   18  N1  UNL     1      11.321  50.104 -46.083  1.00  0.00    -0.354 N 
HETATM   19  C3  UNL     1      10.333  49.641 -45.294  1.00  0.00     0.183 A 
ATOM     20  H1  UNL     1      11.248  51.033 -46.497  1.00  0.00     0.166 HD
HETATM   21  N2  UNL     1      10.450  48.413 -44.759  1.00  0.00    -0.318 N 
HETATM   22  C4  UNL     1      11.532  47.625 -44.990  1.00  0.00     0.276 A 
ATOM     23  H2  UNL     1       9.702  48.062 -44.160  1.00  0.00     0.169 HD
HETATM   24  O1  UNL     1      11.640  46.486 -44.494  1.00  0.00    -0.266 OA
ENDBRANCH  13  15
ENDBRANCH  11  13
ENDBRANCH   1  11
BRANCH   8  25
HETATM   25  N8  UNL     1      14.272  45.231 -51.480  1.00  0.00    -0.128 N 
ATOM     26  H8  UNL     1      14.061  44.235 -51.543  1.00  0.00     0.205 HD
BRANCH  25  27
HETATM   27  N9  UNL     1      14.031  45.973 -52.610  1.00  0.00    -0.256 N 
ATOM     28  H9  UNL     1      13.141  46.462 -52.708  1.00  0.00     0.190 HD
BRANCH  27  29
HETATM   29  C8  UNL     1      15.013  46.071 -53.659  1.00  0.00     0.227 C 
HETATM   30  S1  UNL     1      16.014  47.373 -53.599  1.00  0.00    -0.032 SA
BRANCH  29  31
HETATM   31  O2  UNL     1      15.113  45.123 -54.663  1.00  0.00    -0.336 OA
ATOM     32  H2  UNL     1      15.946  44.890 -55.054  1.00  0.00     0.220 HD
ENDBRANCH  29  31
ENDBRANCH  27  29
ENDBRANCH  25  27
ENDBRANCH   8  25
TORSDOF 7
ENDMDL
MODEL 3
REMARK VINA RESULT: -7.447233056      1.678      2.130
REMARK  7 active torsions:
REMARK  status: ('A' for Active; 'I' for Inactive)
REMARK    1  A    between atoms: C5_10  and  N3_11 
REMARK    2  A    between atoms: N3_11  and  N4_13 
REMARK    3  A    between atoms: N4_13  and  C6_15 
REMARK    4  A    between atoms: C7_22  and  N8_23 
REMARK    5  A    between atoms: N8_23  and  N9_25 
REMARK    6  A    between atoms: N9_25  and  C8_27 
REMARK    7  A    between atoms: C8_27  and  O2_28 
ROOT
HETATM    1  C6  UNL     1      14.191  47.088 -47.209  1.00  0.00     0.727 A 
HETATM    2  N5  UNL     1      14.939  48.187 -47.049  1.00  0.00    -0.115 N 
ATOM      3  H5  UNL     1      15.615  48.459 -47.763  1.00  0.00     0.207 HD
HETATM    4  N6  UNL     1      14.791  48.912 -45.961  1.00  0.00    -0.214 N 
ATOM      5  H6  UNL     1      15.365  49.747 -45.845  1.00  0.00     0.209 HD
HETATM    6  N7  UNL     1      13.927  48.596 -45.014  1.00  0.00    -0.115 N 
ATOM      7  H7  UNL     1      13.845  49.185 -44.185  1.00  0.00     0.207 HD
HETATM    8  C7  UNL     1      13.143  47.486 -45.136  1.00  0.00     0.727 A 
HETATM    9  N10 UNL     1      13.311  46.763 -46.250  1.00  0.00    -0.017 N 
ATOM     10  H10 UNL     1      12.742  45.925 -46.375  1.00  0.00     0.203 HD
ENDROOT
BRANCH   1  11
HETATM   11  N4  UNL     1      14.326  46.283 -48.395  1.00  0.00    -0.130 N 
ATOM     12  H4  UNL     1      13.805  45.410 -48.476  1.00  0.00     0.205 HD
BRANCH  11  13
HETATM   13  N3  UNL     1      15.149  46.681 -49.417  1.00  0.00    -0.280 N 
ATOM     14  H3  UNL     1      15.947  47.256 -49.145  1.00  0.00     0.188 HD
BRANCH  13  15
HETATM   15  C5  UNL     1      15.040  46.402 -50.786  1.00  0.00     0.139 A 
HETATM   16  C2  UNL     1      16.201  46.268 -51.514  1.00  0.00     0.040 A 
HETATM   17  C1  UNL     1      17.511  46.443 -50.885  1.00  0.00     0.071 C 
HETATM   18  N1  UNL     1      16.192  45.978 -52.839  1.00  0.00    -0.354 N 
HETATM   19  C3  UNL     1      15.025  45.812 -53.489  1.00  0.00     0.183 A 
ATOM     20  H1  UNL     1      17.073  45.886 -53.344  1.00  0.00     0.166 HD
HETATM   21  N2  UNL     1      13.875  45.938 -52.804  1.00  0.00    -0.318 N 
HETATM   22  C4  UNL     1      13.854  46.227 -51.476  1.00  0.00     0.276 A 
ATOM     23  H2  UNL     1      12.990  45.812 -53.296  1.00  0.00     0.169 HD
HETATM   24  O1  UNL     1      12.787  46.343 -50.841  1.00  0.00    -0.266 OA
ENDBRANCH  13  15
ENDBRANCH  11  13
ENDBRANCH   1  11
BRANCH   8  25
HETATM   25  N8  UNL     1      12.317  47.230 -44.192  1.00  0.00    -0.128 N 
ATOM     26  H8  UNL     1      12.669  46.651 -43.431  1.00  0.00     0.205 HD
BRANCH  25  27
HETATM   27  N9  UNL     1      11.012  47.645 -44.083  1.00  0.00    -0.256 N 
ATOM     28  H9  UNL     1      10.572  47.677 -43.164  1.00  0.00     0.190 HD
BRANCH  27  29
HETATM   29  C8  UNL     1      10.257  48.036 -45.245  1.00  0.00     0.227 C 
HETATM   30  S1  UNL     1      10.388  49.607 -45.704  1.00  0.00    -0.032 SA
BRANCH  29  31
HETATM   31  O2  UNL     1       9.463  47.139 -45.940  1.00  0.00    -0.336 OA
ATOM     32  H2  UNL     1       9.366  47.179 -46.884  1.00  0.00     0.220 HD
ENDBRANCH  29  31
ENDBRANCH  27  29
ENDBRANCH  25  27
ENDBRANCH   8  25
TORSDOF 7
ENDMDL
MODEL 4
REMARK VINA RESULT: -7.435066081      3.476      3.992
REMARK  7 active torsions:
REMARK  status: ('A' for Active; 'I' for Inactive)
REMARK    1  A    between atoms: C5_10  and  N3_11 
REMARK    2  A    between atoms: N3_11  and  N4_13 
REMARK    3  A    between atoms: N4_13  and  C6_15 
REMARK    4  A    between atoms: C7_22  and  N8_23 
REMARK    5  A    between atoms: N8_23  and  N9_25 
REMARK    6  A    between atoms: N9_25  and  C8_27 
REMARK    7  A    between atoms: C8_27  and  O2_28 
ROOT
HETATM    1  C6  UNL     1      14.817  47.535 -46.242  1.00  0.00     0.727 A 
HETATM    2  N5  UNL     1      15.326  48.096 -45.138  1.00  0.00    -0.115 N 
ATOM      3  H5  UNL     1      16.281  48.454 -45.136  1.00  0.00     0.207 HD
HETATM    4  N6  UNL     1      14.580  48.180 -44.058  1.00  0.00    -0.214 N 
ATOM      5  H6  UNL     1      14.975  48.608 -43.221  1.00  0.00     0.209 HD
HETATM    6  N7  UNL     1      13.339  47.730 -44.020  1.00  0.00    -0.115 N 
ATOM      7  H7  UNL     1      12.795  47.814 -43.161  1.00  0.00     0.207 HD
HETATM    8  C7  UNL     1      12.779  47.153 -45.122  1.00  0.00     0.727 A 
HETATM    9  N10 UNL     1      13.556  47.077 -46.209  1.00  0.00    -0.017 N 
ATOM     10  H10 UNL     1      13.172  46.651 -47.052  1.00  0.00     0.203 HD
ENDROOT
BRANCH   1  11
HETATM   11  N4  UNL     1      15.609  47.440 -47.441  1.00  0.00    -0.130 N 
ATOM     12  H4  UNL     1      16.086  46.566 -47.664  1.00  0.00     0.205 HD
BRANCH  11  13
HETATM   13  N3  UNL     1      15.727  48.514 -48.286  1.00  0.00    -0.280 N 
ATOM     14  H3  UNL     1      16.681  48.815 -48.488  1.00  0.00     0.188 HD
BRANCH  13  15
HETATM   15  C5  UNL     1      14.712  49.252 -48.906  1.00  0.00     0.139 A 
HETATM   16  C2  UNL     1      14.857  50.619 -48.978  1.00  0.00     0.040 A 
HETATM   17  C1  UNL     1      16.022  51.287 -48.395  1.00  0.00     0.071 C 
HETATM   18  N1  UNL     1      13.935  51.412 -49.579  1.00  0.00    -0.354 N 
HETATM   19  C3  UNL     1      12.832  50.873 -50.131  1.00  0.00     0.183 A 
ATOM     20  H1  UNL     1      14.078  52.422 -49.612  1.00  0.00     0.166 HD
HETATM   21  N2  UNL     1      12.663  49.539 -50.075  1.00  0.00    -0.318 N 
HETATM   22  C4  UNL     1      13.570  48.721 -49.480  1.00  0.00     0.276 A 
ATOM     23  H2  UNL     1      11.827  49.130 -50.493  1.00  0.00     0.169 HD
HETATM   24  O1  UNL     1      13.414  47.485 -49.430  1.00  0.00    -0.266 OA
ENDBRANCH  13  15
ENDBRANCH  11  13
ENDBRANCH   1  11
BRANCH   8  25
HETATM   25  N8  UNL     1      11.570  46.741 -45.033  1.00  0.00    -0.128 N 
ATOM     26  H8  UNL     1      11.438  45.823 -44.608  1.00  0.00     0.205 HD
BRANCH  25  27
HETATM   27  N9  UNL     1      10.430  47.389 -45.440  1.00  0.00    -0.256 N 
ATOM     28  H9  UNL     1       9.787  46.920 -46.077  1.00  0.00     0.190 HD
BRANCH  27  29
HETATM   29  C8  UNL     1      10.128  48.720 -44.980  1.00  0.00     0.227 C 
HETATM   30  S1  UNL     1      10.440  49.942 -46.034  1.00  0.00    -0.032 SA
BRANCH  29  31
HETATM   31  O2  UNL     1       9.604  48.961 -43.722  1.00  0.00    -0.336 OA
ATOM     32  H2  UNL     1       9.103  48.306 -43.251  1.00  0.00     0.220 HD
ENDBRANCH  29  31
ENDBRANCH  27  29
ENDBRANCH  25  27
ENDBRANCH   8  25
TORSDOF 7
ENDMDL
MODEL 5
REMARK VINA RESULT: -7.368827503      1.369      1.967
REMARK  7 active torsions:
REMARK  status: ('A' for Active; 'I' for Inactive)
REMARK    1  A    between atoms: C5_10  and  N3_11 
REMARK    2  A    between atoms: N3_11  and  N4_13 
REMARK    3  A    between atoms: N4_13  and  C6_15 
REMARK    4  A    between atoms: C7_22  and  N8_23 
REMARK    5  A    between atoms: N8_23  and  N9_25 
REMARK    6  A    between atoms: N9_25  and  C8_27 
REMARK    7  A    between atoms: C8_27  and  O2_28 
ROOT
HETATM    1  C6  UNL     1      13.468  47.503 -48.883  1.00  0.00     0.727 A 
HETATM    2  N5  UNL     1      13.252  48.433 -49.821  1.00  0.00    -0.115 N 
ATOM      3  H5  UNL     1      13.387  48.212 -50.808  1.00  0.00     0.207 HD
HETATM    4  N6  UNL     1      12.862  49.635 -49.456  1.00  0.00    -0.214 N 
ATOM      5  H6  UNL     1      12.700  50.339 -50.176  1.00  0.00     0.209 HD
HETATM    6  N7  UNL     1      12.674  49.962 -48.190  1.00  0.00    -0.115 N 
ATOM      7  H7  UNL     1      12.372  50.907 -47.950  1.00  0.00     0.207 HD
HETATM    8  C7  UNL     1      12.881  49.045 -47.201  1.00  0.00     0.727 A 
HETATM    9  N10 UNL     1      13.278  47.830 -47.596  1.00  0.00    -0.017 N 
ATOM     10  H10 UNL     1      13.444  47.118 -46.884  1.00  0.00     0.203 HD
ENDROOT
BRANCH   1  11
HETATM   11  N4  UNL     1      13.886  46.176 -49.257  1.00  0.00    -0.130 N 
ATOM     12  H4  UNL     1      13.312  45.374 -48.999  1.00  0.00     0.205 HD
BRANCH  11  13
HETATM   13  N3  UNL     1      15.049  45.984 -49.958  1.00  0.00    -0.280 N 
ATOM     14  H3  UNL     1      15.883  45.813 -49.395  1.00  0.00     0.188 HD
BRANCH  13  15
HETATM   15  C5  UNL     1      15.244  45.991 -51.345  1.00  0.00     0.139 A 
HETATM   16  C2  UNL     1      16.536  46.042 -51.816  1.00  0.00     0.040 A 
HETATM   17  C1  UNL     1      17.673  46.120 -50.898  1.00  0.00     0.071 C 
HETATM   18  N1  UNL     1      16.821  46.032 -53.143  1.00  0.00    -0.354 N 
HETATM   19  C3  UNL     1      15.829  45.971 -54.050  1.00  0.00     0.183 A 
ATOM     20  H1  UNL     1      17.792  46.072 -53.454  1.00  0.00     0.166 HD
HETATM   21  N2  UNL     1      14.556  45.920 -53.618  1.00  0.00    -0.318 N 
HETATM   22  C4  UNL     1      14.241  45.929 -52.296  1.00  0.00     0.276 A 
ATOM     23  H2  UNL     1      13.803  45.874 -54.305  1.00  0.00     0.169 HD
HETATM   24  O1  UNL     1      13.061  45.881 -51.896  1.00  0.00    -0.266 OA
ENDBRANCH  13  15
ENDBRANCH  11  13
ENDBRANCH   1  11
BRANCH   8  25
HETATM   25  N8  UNL     1      12.676  49.414 -45.992  1.00  0.00    -0.128 N 
ATOM     26  H8  UNL     1      13.504  49.666 -45.453  1.00  0.00     0.205 HD
BRANCH  25  27
HETATM   27  N9  UNL     1      11.474  49.509 -45.336  1.00  0.00    -0.256 N 
ATOM     28  H9  UNL     1      11.255  50.356 -44.812  1.00  0.00     0.190 HD
BRANCH  27  29
HETATM   29  C8  UNL     1      10.519  48.432 -45.375  1.00  0.00     0.227 C 
HETATM   30  S1  UNL     1       8.935  48.866 -45.428  1.00  0.00    -0.032 SA
BRANCH  29  31
HETATM   31  O2  UNL     1      10.909  47.104 -45.369  1.00  0.00    -0.336 OA
ATOM     32  H2  UNL     1      10.445  46.445 -44.867  1.00  0.00     0.220 HD
ENDBRANCH  29  31
ENDBRANCH  27  29
ENDBRANCH  25  27
ENDBRANCH   8  25
TORSDOF 7
ENDMDL
