MODEL 1
REMARK VINA RESULT: -7.185862804      0.000      0.000
REMARK  6 active torsions:
REMARK  status: ('A' for Active; 'I' for Inactive)
REMARK       I    between atoms: N1_2  and  C2_4 
REMARK    1  A    between atoms: C2_4  and  S1_6 
REMARK    2  A    between atoms: S1_6  and  C3_7 
REMARK    3  A    between atoms: C4_12  and  C5_13 
REMARK    4  A    between atoms: N4_15  and  N5_17 
REMARK       I    between atoms: N5_17  and  C7_19 
REMARK       I    between atoms: C7_19  and  N6_21 
REMARK    5  A    between atoms: N6_21  and  N7_23 
REMARK    6  A    between atoms: N8_28  and  N9_29 
ROOT
HETATM    1  C3  UNL     1      15.681  49.069 -53.890  1.00  0.00     0.192 A 
HETATM    2  N2  UNL     1      16.163  49.841 -52.901  1.00  0.00    -0.277 N 
ATOM      3  H2  UNL     1      17.137  50.141 -52.928  1.00  0.00     0.189 HD
HETATM    4  N3  UNL     1      15.392  50.217 -51.890  1.00  0.00    -0.292 N 
ATOM      5  H3  UNL     1      15.798  50.804 -51.161  1.00  0.00     0.187 HD
HETATM    6  C4  UNL     1      14.097  49.863 -51.780  1.00  0.00     0.142 A 
HETATM    7  C8  UNL     1      13.596  49.066 -52.801  1.00  0.00     0.298 A 
HETATM    8  O3  UNL     1      12.416  48.680 -52.805  1.00  0.00    -0.263 OA
HETATM    9  N8  UNL     1      14.399  48.685 -53.836  1.00  0.00    -0.200 N 
ENDROOT
BRANCH   6  10
HETATM   10  C5  UNL     1      13.253  50.272 -50.681  1.00  0.00     0.056 C 
HETATM   11  C6  UNL     1      12.884  51.691 -50.544  1.00  0.00     0.072 C 
HETATM   12  N4  UNL     1      12.837  49.405 -49.842  1.00  0.00    -0.299 N 
ATOM     13  H4  UNL     1      13.128  48.439 -49.993  1.00  0.00     0.186 HD
BRANCH  12  14
HETATM   14  N5  UNL     1      12.028  49.653 -48.749  1.00  0.00    -0.250 N 
HETATM   15  C7  UNL     1      12.522  49.579 -47.418  1.00  0.00     0.352 C 
HETATM   16  O2  UNL     1      13.741  49.277 -47.212  1.00  0.00    -0.244 OA
HETATM   17  N6  UNL     1      11.666  49.841 -46.319  1.00  0.00    -0.257 N 
ATOM     18  H6  UNL     1      10.689  50.084 -46.479  1.00  0.00     0.191 HD
ATOM     19  H5  UNL     1      11.050  49.897 -48.901  1.00  0.00     0.192 HD
BRANCH  17  20
HETATM   20  N7  UNL     1      12.165  49.763 -45.009  1.00  0.00    -0.341 N 
ATOM     21  H72 UNL     1      13.099  49.383 -44.856  1.00  0.00     0.177 HD
ATOM     22  H71 UNL     1      11.594  50.086 -44.228  1.00  0.00     0.177 HD
ENDBRANCH  17  20
ENDBRANCH  12  14
ENDBRANCH   6  10
BRANCH   9  23
HETATM   23  N9  UNL     1      13.907  47.884 -54.868  1.00  0.00    -0.333 N 
ATOM     24  H92 UNL     1      13.904  48.216 -55.833  1.00  0.00     0.177 HD
ATOM     25  H91 UNL     1      13.551  46.959 -54.631  1.00  0.00     0.177 HD
ENDBRANCH   9  23
BRANCH   1  26
HETATM   26  S1  UNL     1      16.674  48.535 -55.269  1.00  0.00     0.010 SA
BRANCH  26  27
HETATM   27  C2  UNL     1      16.739  49.752 -56.555  1.00  0.00     0.287 C 
HETATM   28  N1  UNL     1      15.678  49.872 -57.466  1.00  0.00    -0.356 N 
HETATM   29  C1  UNL     1      15.741  50.867 -58.510  1.00  0.00     0.150 C 
ATOM     30  H1  UNL     1      14.866  49.259 -57.391  1.00  0.00     0.162 HD
HETATM   31  O1  UNL     1      17.737  50.498 -56.638  1.00  0.00    -0.260 OA
ENDBRANCH  26  27
ENDBRANCH   1  26
TORSDOF 6
ENDMDL
MODEL 2
REMARK VINA RESULT: -7.037996209      1.566      2.081
REMARK  6 active torsions:
REMARK  status: ('A' for Active; 'I' for Inactive)
REMARK       I    between atoms: N1_2  and  C2_4 
REMARK    1  A    between atoms: C2_4  and  S1_6 
REMARK    2  A    between atoms: S1_6  and  C3_7 
REMARK    3  A    between atoms: C4_12  and  C5_13 
REMARK    4  A    between atoms: N4_15  and  N5_17 
REMARK       I    between atoms: N5_17  and  C7_19 
REMARK       I    between atoms: C7_19  and  N6_21 
REMARK    5  A    between atoms: N6_21  and  N7_23 
REMARK    6  A    between atoms: N8_28  and  N9_29 
ROOT
HETATM    1  C3  UNL     1      15.620  48.811 -53.903  1.00  0.00     0.192 A 
HETATM    2  N2  UNL     1      16.208  49.539 -52.938  1.00  0.00    -0.277 N 
ATOM      3  H2  UNL     1      17.206  49.743 -53.001  1.00  0.00     0.189 HD
HETATM    4  N3  UNL     1      15.513  49.994 -51.906  1.00  0.00    -0.292 N 
ATOM      5  H3  UNL     1      15.999  50.542 -51.196  1.00  0.00     0.187 HD
HETATM    6  C4  UNL     1      14.195  49.767 -51.748  1.00  0.00     0.142 A 
HETATM    7  C8  UNL     1      13.585  49.016 -52.744  1.00  0.00     0.298 A 
HETATM    8  O3  UNL     1      12.373  48.746 -52.704  1.00  0.00    -0.263 OA
HETATM    9  N8  UNL     1      14.310  48.553 -53.802  1.00  0.00    -0.200 N 
ENDROOT
BRANCH   6  10
HETATM   10  C5  UNL     1      13.433  50.262 -50.624  1.00  0.00     0.056 C 
HETATM   11  C6  UNL     1      13.432  51.705 -50.333  1.00  0.00     0.072 C 
HETATM   12  N4  UNL     1      12.771  49.448 -49.897  1.00  0.00    -0.299 N 
ATOM     13  H4  UNL     1      12.813  48.461 -50.151  1.00  0.00     0.186 HD
BRANCH  12  14
HETATM   14  N5  UNL     1      12.003  49.780 -48.796  1.00  0.00    -0.250 N 
HETATM   15  C7  UNL     1      12.468  49.577 -47.469  1.00  0.00     0.352 C 
HETATM   16  O2  UNL     1      13.621  49.076 -47.271  1.00  0.00    -0.244 OA
HETATM   17  N6  UNL     1      11.654  49.929 -46.362  1.00  0.00    -0.257 N 
ATOM     18  H6  UNL     1      10.730  50.331 -46.515  1.00  0.00     0.191 HD
ATOM     19  H5  UNL     1      11.077  50.182 -48.942  1.00  0.00     0.192 HD
BRANCH  17  20
HETATM   20  N7  UNL     1      12.123  49.723 -45.055  1.00  0.00    -0.341 N 
ATOM     21  H72 UNL     1      12.979  49.186 -44.915  1.00  0.00     0.177 HD
ATOM     22  H71 UNL     1      11.609  50.110 -44.264  1.00  0.00     0.177 HD
ENDBRANCH  17  20
ENDBRANCH  12  14
ENDBRANCH   6  10
BRANCH   9  23
HETATM   23  N9  UNL     1      13.708  47.797 -54.809  1.00  0.00    -0.333 N 
ATOM     24  H92 UNL     1      13.969  47.924 -55.787  1.00  0.00     0.177 HD
ATOM     25  H91 UNL     1      13.000  47.115 -54.540  1.00  0.00     0.177 HD
ENDBRANCH   9  23
BRANCH   1  26
HETATM   26  S1  UNL     1      16.509  48.176 -55.311  1.00  0.00     0.010 SA
BRANCH  26  27
HETATM   27  C2  UNL     1      18.264  48.303 -55.105  1.00  0.00     0.287 C 
HETATM   28  N1  UNL     1      18.899  47.635 -54.046  1.00  0.00    -0.356 N 
HETATM   29  C1  UNL     1      20.330  47.746 -53.888  1.00  0.00     0.150 C 
ATOM     30  H1  UNL     1      18.353  47.074 -53.393  1.00  0.00     0.162 HD
HETATM   31  O1  UNL     1      18.923  48.992 -55.911  1.00  0.00    -0.260 OA
ENDBRANCH  26  27
ENDBRANCH   1  26
TORSDOF 6
ENDMDL
MODEL 3
REMARK VINA RESULT: -7.019114473      1.736      2.164
REMARK  6 active torsions:
REMARK  status: ('A' for Active; 'I' for Inactive)
REMARK       I    between atoms: N1_2  and  C2_4 
REMARK    1  A    between atoms: C2_4  and  S1_6 
REMARK    2  A    between atoms: S1_6  and  C3_7 
REMARK    3  A    between atoms: C4_12  and  C5_13 
REMARK    4  A    between atoms: N4_15  and  N5_17 
REMARK       I    between atoms: N5_17  and  C7_19 
REMARK       I    between atoms: C7_19  and  N6_21 
REMARK    5  A    between atoms: N6_21  and  N7_23 
REMARK    6  A    between atoms: N8_28  and  N9_29 
ROOT
HETATM    1  C3  UNL     1      16.474  49.017 -55.315  1.00  0.00     0.192 A 
HETATM    2  N2  UNL     1      17.131  49.471 -54.234  1.00  0.00    -0.277 N 
ATOM      3  H2  UNL     1      18.009  49.975 -54.355  1.00  0.00     0.189 HD
HETATM    4  N3  UNL     1      16.656  49.273 -53.012  1.00  0.00    -0.292 N 
ATOM      5  H3  UNL     1      17.187  49.634 -52.220  1.00  0.00     0.187 HD
HETATM    6  C4  UNL     1      15.505  48.616 -52.767  1.00  0.00     0.142 A 
HETATM    7  C8  UNL     1      14.825  48.147 -53.883  1.00  0.00     0.298 A 
HETATM    8  O3  UNL     1      13.752  47.529 -53.777  1.00  0.00    -0.263 OA
HETATM    9  N8  UNL     1      15.323  48.357 -55.135  1.00  0.00    -0.200 N 
ENDROOT
BRANCH   6  10
HETATM   10  C5  UNL     1      14.983  48.398 -51.437  1.00  0.00     0.056 C 
HETATM   11  C6  UNL     1      15.888  47.924 -50.377  1.00  0.00     0.072 C 
HETATM   12  N4  UNL     1      13.750  48.618 -51.195  1.00  0.00    -0.299 N 
ATOM     13  H4  UNL     1      13.176  48.945 -51.972  1.00  0.00     0.186 HD
BRANCH  12  14
HETATM   14  N5  UNL     1      13.118  48.452 -49.976  1.00  0.00    -0.250 N 
HETATM   15  C7  UNL     1      12.788  49.557 -49.146  1.00  0.00     0.352 C 
HETATM   16  O2  UNL     1      13.075  50.739 -49.521  1.00  0.00    -0.244 OA
HETATM   17  N6  UNL     1      12.140  49.351 -47.902  1.00  0.00    -0.257 N 
ATOM     18  H6  UNL     1      11.907  48.407 -47.597  1.00  0.00     0.191 HD
ATOM     19  H5  UNL     1      12.883  47.510 -49.664  1.00  0.00     0.192 HD
BRANCH  17  20
HETATM   20  N7  UNL     1      11.819  50.451 -47.090  1.00  0.00    -0.341 N 
ATOM     21  H72 UNL     1      11.941  50.374 -46.080  1.00  0.00     0.177 HD
ATOM     22  H71 UNL     1      11.470  51.310 -47.514  1.00  0.00     0.177 HD
ENDBRANCH  17  20
ENDBRANCH  12  14
ENDBRANCH   6  10
BRANCH   9  23
HETATM   23  N9  UNL     1      14.648  47.890 -56.264  1.00  0.00    -0.333 N 
ATOM     24  H92 UNL     1      14.756  46.925 -56.578  1.00  0.00     0.177 HD
ATOM     25  H91 UNL     1      14.044  48.540 -56.766  1.00  0.00     0.177 HD
ENDBRANCH   9  23
BRANCH   1  26
HETATM   26  S1  UNL     1      17.069  49.256 -56.977  1.00  0.00     0.010 SA
BRANCH  26  27
HETATM   27  C2  UNL     1      16.369  50.696 -57.736  1.00  0.00     0.287 C 
HETATM   28  N1  UNL     1      15.838  50.621 -59.033  1.00  0.00    -0.356 N 
HETATM   29  C1  UNL     1      15.270  51.801 -59.642  1.00  0.00     0.150 C 
ATOM     30  H1  UNL     1      15.853  49.738 -59.543  1.00  0.00     0.162 HD
HETATM   31  O1  UNL     1      16.355  51.772 -57.103  1.00  0.00    -0.260 OA
ENDBRANCH  26  27
ENDBRANCH   1  26
TORSDOF 6
ENDMDL
MODEL 4
REMARK VINA RESULT: -7.007512629      1.066      1.117
REMARK  6 active torsions:
REMARK  status: ('A' for Active; 'I' for Inactive)
REMARK       I    between atoms: N1_2  and  C2_4 
REMARK    1  A    between atoms: C2_4  and  S1_6 
REMARK    2  A    between atoms: S1_6  and  C3_7 
REMARK    3  A    between atoms: C4_12  and  C5_13 
REMARK    4  A    between atoms: N4_15  and  N5_17 
REMARK       I    between atoms: N5_17  and  C7_19 
REMARK       I    between atoms: C7_19  and  N6_21 
REMARK    5  A    between atoms: N6_21  and  N7_23 
REMARK    6  A    between atoms: N8_28  and  N9_29 
ROOT
HETATM    1  C3  UNL     1      15.699  50.223 -53.162  1.00  0.00     0.192 A 
HETATM    2  N2  UNL     1      15.813  51.211 -52.258  1.00  0.00    -0.277 N 
ATOM      3  H2  UNL     1      16.620  51.835 -52.296  1.00  0.00     0.189 HD
HETATM    4  N3  UNL     1      14.896  51.388 -51.318  1.00  0.00    -0.292 N 
ATOM      5  H3  UNL     1      15.022  52.151 -50.653  1.00  0.00     0.187 HD
HETATM    6  C4  UNL     1      13.803  50.609 -51.200  1.00  0.00     0.142 A 
HETATM    7  C8  UNL     1      13.682  49.587 -52.133  1.00  0.00     0.298 A 
HETATM    8  O3  UNL     1      12.715  48.807 -52.120  1.00  0.00    -0.263 OA
HETATM    9  N8  UNL     1      14.633  49.415 -53.096  1.00  0.00    -0.200 N 
ENDROOT
BRANCH   6  10
HETATM   10  C5  UNL     1      12.800  50.798 -50.177  1.00  0.00     0.056 C 
HETATM   11  C6  UNL     1      12.274  52.150 -49.925  1.00  0.00     0.072 C 
HETATM   12  N4  UNL     1      12.382  49.798 -49.504  1.00  0.00    -0.299 N 
ATOM     13  H4  UNL     1      12.786  48.888 -49.727  1.00  0.00     0.186 HD
BRANCH  12  14
HETATM   14  N5  UNL     1      11.431  49.832 -48.501  1.00  0.00    -0.250 N 
HETATM   15  C7  UNL     1      11.764  49.578 -47.143  1.00  0.00     0.352 C 
HETATM   16  O2  UNL     1      12.966  49.308 -46.826  1.00  0.00    -0.244 OA
HETATM   17  N6  UNL     1      10.763  49.622 -46.139  1.00  0.00    -0.257 N 
ATOM     18  H6  UNL     1       9.799  49.838 -46.387  1.00  0.00     0.191 HD
ATOM     19  H5  UNL     1      10.464  50.047 -48.742  1.00  0.00     0.192 HD
BRANCH  17  20
HETATM   20  N7  UNL     1      11.104  49.368 -44.801  1.00  0.00    -0.341 N 
ATOM     21  H72 UNL     1      11.874  48.730 -44.598  1.00  0.00     0.177 HD
ATOM     22  H71 UNL     1      10.584  49.820 -44.049  1.00  0.00     0.177 HD
ENDBRANCH  17  20
ENDBRANCH  12  14
ENDBRANCH   6  10
BRANCH   9  23
HETATM   23  N9  UNL     1      14.522  48.392 -54.038  1.00  0.00    -0.333 N 
ATOM     24  H92 UNL     1      15.278  47.721 -54.175  1.00  0.00     0.177 HD
ATOM     25  H91 UNL     1      13.664  48.335 -54.587  1.00  0.00     0.177 HD
ENDBRANCH   9  23
BRANCH   1  26
HETATM   26  S1  UNL     1      16.903  49.942 -54.444  1.00  0.00     0.010 SA
BRANCH  26  27
HETATM   27  C2  UNL     1      16.558  50.888 -55.903  1.00  0.00     0.287 C 
HETATM   28  N1  UNL     1      15.992  50.267 -57.027  1.00  0.00    -0.356 N 
HETATM   29  C1  UNL     1      15.714  51.046 -58.210  1.00  0.00     0.150 C 
ATOM     30  H1  UNL     1      15.778  49.270 -57.008  1.00  0.00     0.162 HD
HETATM   31  O1  UNL     1      16.823  52.108 -55.915  1.00  0.00    -0.260 OA
ENDBRANCH  26  27
ENDBRANCH   1  26
TORSDOF 6
ENDMDL
MODEL 5
REMARK VINA RESULT: -6.954616764      3.271      7.966
REMARK  6 active torsions:
REMARK  status: ('A' for Active; 'I' for Inactive)
REMARK       I    between atoms: N1_2  and  C2_4 
REMARK    1  A    between atoms: C2_4  and  S1_6 
REMARK    2  A    between atoms: S1_6  and  C3_7 
REMARK    3  A    between atoms: C4_12  and  C5_13 
REMARK    4  A    between atoms: N4_15  and  N5_17 
REMARK       I    between atoms: N5_17  and  C7_19 
REMARK       I    between atoms: C7_19  and  N6_21 
REMARK    5  A    between atoms: N6_21  and  N7_23 
REMARK    6  A    between atoms: N8_28  and  N9_29 
ROOT
HETATM    1  C3  UNL     1      13.136  49.473 -49.391  1.00  0.00     0.192 A 
HETATM    2  N2  UNL     1      13.042  48.252 -49.945  1.00  0.00    -0.277 N 
ATOM      3  H2  UNL     1      12.517  47.522 -49.464  1.00  0.00     0.189 HD
HETATM    4  N3  UNL     1      13.621  47.982 -51.107  1.00  0.00    -0.292 N 
ATOM      5  H3  UNL     1      13.524  47.042 -51.491  1.00  0.00     0.187 HD
HETATM    6  C4  UNL     1      14.332  48.890 -51.804  1.00  0.00     0.142 A 
HETATM    7  C8  UNL     1      14.430  50.152 -51.233  1.00  0.00     0.298 A 
HETATM    8  O3  UNL     1      15.059  51.068 -51.788  1.00  0.00    -0.263 OA
HETATM    9  N8  UNL     1      13.829  50.418 -50.038  1.00  0.00    -0.200 N 
ENDROOT
BRANCH   6  10
HETATM   10  C5  UNL     1      14.965  48.600 -53.070  1.00  0.00     0.056 C 
HETATM   11  C6  UNL     1      14.160  48.031 -54.164  1.00  0.00     0.072 C 
HETATM   12  N4  UNL     1      16.208  48.838 -53.229  1.00  0.00    -0.299 N 
ATOM     13  H4  UNL     1      16.709  49.232 -52.432  1.00  0.00     0.186 HD
BRANCH  12  14
HETATM   14  N5  UNL     1      16.940  48.610 -54.379  1.00  0.00    -0.250 N 
HETATM   15  C7  UNL     1      18.311  48.971 -54.480  1.00  0.00     0.352 C 
HETATM   16  O2  UNL     1      18.895  49.520 -53.492  1.00  0.00    -0.244 OA
HETATM   17  N6  UNL     1      19.032  48.723 -55.676  1.00  0.00    -0.257 N 
ATOM     18  H6  UNL     1      18.568  48.283 -56.470  1.00  0.00     0.191 HD
ATOM     19  H5  UNL     1      16.483  48.171 -55.178  1.00  0.00     0.192 HD
BRANCH  17  20
HETATM   20  N7  UNL     1      20.386  49.084 -55.764  1.00  0.00    -0.341 N 
ATOM     21  H72 UNL     1      20.653  50.051 -55.580  1.00  0.00     0.177 HD
ATOM     22  H71 UNL     1      21.084  48.382 -56.009  1.00  0.00     0.177 HD
ENDBRANCH  17  20
ENDBRANCH  12  14
ENDBRANCH   6  10
BRANCH   9  23
HETATM   23  N9  UNL     1      13.921  51.683 -49.455  1.00  0.00    -0.333 N 
ATOM     24  H92 UNL     1      14.116  51.789 -48.459  1.00  0.00     0.177 HD
ATOM     25  H91 UNL     1      13.786  52.499 -50.052  1.00  0.00     0.177 HD
ENDBRANCH   9  23
BRANCH   1  26
HETATM   26  S1  UNL     1      12.377  49.888 -47.833  1.00  0.00     0.010 SA
BRANCH  26  27
HETATM   27  C2  UNL     1      10.844  50.750 -48.046  1.00  0.00     0.287 C 
HETATM   28  N1  UNL     1       9.638  50.149 -47.655  1.00  0.00    -0.356 N 
HETATM   29  C1  UNL     1       8.394  50.860 -47.833  1.00  0.00     0.150 C 
ATOM     30  H1  UNL     1       9.639  49.214 -47.247  1.00  0.00     0.162 HD
HETATM   31  O1  UNL     1      10.853  51.894 -48.546  1.00  0.00    -0.260 OA
ENDBRANCH  26  27
ENDBRANCH   1  26
TORSDOF 6
ENDMDL
