MODEL 1
REMARK VINA RESULT: -7.876065837      0.000      0.000
REMARK  7 active torsions:
REMARK  status: ('A' for Active; 'I' for Inactive)
REMARK    1  A    between atoms: C2_2  and  O1_3 
REMARK    2  A    between atoms: C2_2  and  C3_5 
REMARK    3  A    between atoms: C3_5  and  N1_6 
REMARK    4  A    between atoms: N1_6  and  C4_8 
REMARK    5  A    between atoms: C5_11  and  C6_12 
REMARK    6  A    between atoms: C6_12  and  C7_13 
REMARK    7  A    between atoms: C10_17  and  N4_18 
ROOT
HETATM    1  C7  UNL     1      13.184  50.438 -48.324  1.00  0.00     0.082 A 
HETATM    2  C8  UNL     1      14.414  50.214 -47.761  1.00  0.00     0.114 A 
HETATM    3  C9  UNL     1      15.664  50.429 -48.443  1.00  0.00     0.105 C 
HETATM    4  N3  UNL     1      16.673  50.574 -48.988  1.00  0.00    -0.191 NA
HETATM    5  C10 UNL     1      14.412  49.727 -46.454  1.00  0.00     0.137 A 
HETATM    6  N5  UNL     1      13.288  49.483 -45.760  1.00  0.00    -0.173 N 
ATOM      7  H5  UNL     1      13.336  49.127 -44.805  1.00  0.00     0.186 HD
HETATM    8  C11 UNL     1      12.100  49.713 -46.343  1.00  0.00     0.719 A 
HETATM    9  N6  UNL     1      10.838  49.554 -45.876  1.00  0.00    -0.117 N 
ATOM     10  H6  UNL     1      10.564  49.214 -44.954  1.00  0.00     0.207 HD
HETATM   11  N7  UNL     1      10.041  49.924 -46.846  1.00  0.00    -0.211 N 
ATOM     12  H7  UNL     1       9.022  49.921 -46.807  1.00  0.00     0.206 HD
HETATM   13  N8  UNL     1      10.769  50.302 -47.885  1.00  0.00     0.016 NA
HETATM   14  N9  UNL     1      12.067  50.182 -47.602  1.00  0.00    -0.070 N 
ENDROOT
BRANCH   1  15
HETATM   15  C6  UNL     1      13.088  50.977 -49.697  1.00  0.00     0.139 C 
BRANCH  15  16
HETATM   16  C5  UNL     1      13.164  49.944 -50.755  1.00  0.00     0.118 A 
HETATM   17  N2  UNL     1      13.497  49.995 -52.044  1.00  0.00    -0.178 N 
HETATM   18  C4  UNL     1      13.412  48.762 -52.613  1.00  0.00     0.694 A 
ATOM     19  H2  UNL     1      13.778  50.842 -52.536  1.00  0.00     0.185 HD
HETATM   20  N11 UNL     1      13.010  47.953 -51.617  1.00  0.00    -0.131 N 
HETATM   21  N10 UNL     1      12.856  48.639 -50.497  1.00  0.00    -0.274 N 
ATOM     22  H11 UNL     1      12.847  46.951 -51.712  1.00  0.00     0.205 HD
ATOM     23  H10 UNL     1      12.560  48.259 -49.598  1.00  0.00     0.189 HD
BRANCH  18  24
HETATM   24  N1  UNL     1      13.663  48.452 -53.843  1.00  0.00    -0.222 N 
ATOM     25  H1  UNL     1      12.936  48.570 -54.548  1.00  0.00     0.177 HD
BRANCH  24  26
HETATM   26  C3  UNL     1      14.954  47.940 -54.237  1.00  0.00     0.169 C 
BRANCH  26  27
HETATM   27  C2  UNL     1      15.363  48.426 -55.610  1.00  0.00     0.132 C 
HETATM   28  C1  UNL     1      16.758  47.941 -55.899  1.00  0.00     0.041 C 
BRANCH  27  29
HETATM   29  O1  UNL     1      14.484  47.979 -56.588  1.00  0.00    -0.394 OA
ATOM     30  H1  UNL     1      14.965  47.661 -57.343  1.00  0.00     0.210 HD
ENDBRANCH  27  29
ENDBRANCH  26  27
ENDBRANCH  24  26
ENDBRANCH  18  24
ENDBRANCH  15  16
ENDBRANCH   1  15
BRANCH   5  31
HETATM   31  N4  UNL     1      15.563  49.517 -45.921  1.00  0.00    -0.384 N 
ATOM     32  H42 UNL     1      15.764  49.849 -44.978  1.00  0.00     0.157 HD
ATOM     33  H41 UNL     1      16.241  49.011 -46.492  1.00  0.00     0.157 HD
ENDBRANCH   5  31
TORSDOF 7
ENDMDL
MODEL 2
REMARK VINA RESULT: -7.656099523      3.323      6.239
REMARK  7 active torsions:
REMARK  status: ('A' for Active; 'I' for Inactive)
REMARK    1  A    between atoms: C2_2  and  O1_3 
REMARK    2  A    between atoms: C2_2  and  C3_5 
REMARK    3  A    between atoms: C3_5  and  N1_6 
REMARK    4  A    between atoms: N1_6  and  C4_8 
REMARK    5  A    between atoms: C5_11  and  C6_12 
REMARK    6  A    between atoms: C6_12  and  C7_13 
REMARK    7  A    between atoms: C10_17  and  N4_18 
ROOT
HETATM    1  C7  UNL     1      14.769  49.615 -48.161  1.00  0.00     0.082 A 
HETATM    2  C8  UNL     1      15.673  48.735 -47.623  1.00  0.00     0.114 A 
HETATM    3  C9  UNL     1      15.998  48.670 -46.221  1.00  0.00     0.105 C 
HETATM    4  N3  UNL     1      16.284  48.624 -45.102  1.00  0.00    -0.191 NA
HETATM    5  C10 UNL     1      16.312  47.883 -48.523  1.00  0.00     0.137 A 
HETATM    6  N5  UNL     1      16.078  47.898 -49.846  1.00  0.00    -0.173 N 
ATOM      7  H5  UNL     1      16.569  47.255 -50.466  1.00  0.00     0.186 HD
HETATM    8  C11 UNL     1      15.186  48.774 -50.339  1.00  0.00     0.719 A 
HETATM    9  N6  UNL     1      14.771  48.995 -51.610  1.00  0.00    -0.117 N 
ATOM     10  H6  UNL     1      15.082  48.507 -52.450  1.00  0.00     0.207 HD
HETATM   11  N7  UNL     1      13.890  49.959 -51.542  1.00  0.00    -0.211 N 
ATOM     12  H7  UNL     1      13.389  50.359 -52.336  1.00  0.00     0.206 HD
HETATM   13  N8  UNL     1      13.752  50.335 -50.280  1.00  0.00     0.016 NA
HETATM   14  N9  UNL     1      14.553  49.609 -49.498  1.00  0.00    -0.070 N 
ENDROOT
BRANCH   1  15
HETATM   15  C6  UNL     1      14.025  50.539 -47.281  1.00  0.00     0.139 C 
BRANCH  15  16
HETATM   16  C5  UNL     1      12.599  50.183 -47.101  1.00  0.00     0.118 A 
HETATM   17  N2  UNL     1      11.551  50.209 -47.923  1.00  0.00    -0.178 N 
HETATM   18  C4  UNL     1      10.427  49.780 -47.287  1.00  0.00     0.694 A 
ATOM     19  H2  UNL     1      11.586  50.510 -48.897  1.00  0.00     0.185 HD
HETATM   20  N11 UNL     1      10.832  49.490 -46.038  1.00  0.00    -0.131 N 
HETATM   21  N10 UNL     1      12.127  49.723 -45.904  1.00  0.00    -0.274 N 
ATOM     22  H11 UNL     1      10.226  49.140 -45.296  1.00  0.00     0.205 HD
ATOM     23  H10 UNL     1      12.677  49.584 -45.056  1.00  0.00     0.189 HD
BRANCH  18  24
HETATM   24  N1  UNL     1       9.239  49.679 -47.785  1.00  0.00    -0.222 N 
ATOM     25  H1  UNL     1       8.958  48.809 -48.236  1.00  0.00     0.177 HD
BRANCH  24  26
HETATM   26  C3  UNL     1       8.302  50.776 -47.715  1.00  0.00     0.169 C 
BRANCH  26  27
HETATM   27  C2  UNL     1       8.667  51.895 -48.666  1.00  0.00     0.132 C 
HETATM   28  C1  UNL     1       7.446  52.742 -48.906  1.00  0.00     0.041 C 
BRANCH  27  29
HETATM   29  O1  UNL     1       9.701  52.672 -48.161  1.00  0.00    -0.394 OA
ATOM     30  H1  UNL     1       9.614  52.768 -47.221  1.00  0.00     0.210 HD
ENDBRANCH  27  29
ENDBRANCH  26  27
ENDBRANCH  24  26
ENDBRANCH  18  24
ENDBRANCH  15  16
ENDBRANCH   1  15
BRANCH   5  31
HETATM   31  N4  UNL     1      17.159  47.055 -48.023  1.00  0.00    -0.384 N 
ATOM     32  H42 UNL     1      17.062  46.738 -47.058  1.00  0.00     0.157 HD
ATOM     33  H41 UNL     1      17.912  46.750 -48.639  1.00  0.00     0.157 HD
ENDBRANCH   5  31
TORSDOF 7
ENDMDL
MODEL 3
REMARK VINA RESULT: -7.634921241      4.316      5.522
REMARK  7 active torsions:
REMARK  status: ('A' for Active; 'I' for Inactive)
REMARK    1  A    between atoms: C2_2  and  O1_3 
REMARK    2  A    between atoms: C2_2  and  C3_5 
REMARK    3  A    between atoms: C3_5  and  N1_6 
REMARK    4  A    between atoms: N1_6  and  C4_8 
REMARK    5  A    between atoms: C5_11  and  C6_12 
REMARK    6  A    between atoms: C6_12  and  C7_13 
REMARK    7  A    between atoms: C10_17  and  N4_18 
ROOT
HETATM    1  C7  UNL     1      13.138  51.454 -49.039  1.00  0.00     0.082 A 
HETATM    2  C8  UNL     1      13.814  50.260 -49.022  1.00  0.00     0.114 A 
HETATM    3  C9  UNL     1      15.147  50.081 -49.536  1.00  0.00     0.105 C 
HETATM    4  N3  UNL     1      16.208  49.920 -49.968  1.00  0.00    -0.191 NA
HETATM    5  C10 UNL     1      13.125  49.172 -48.486  1.00  0.00     0.137 A 
HETATM    6  N5  UNL     1      11.873  49.256 -48.006  1.00  0.00    -0.173 N 
ATOM      7  H5  UNL     1      11.410  48.432 -47.623  1.00  0.00     0.186 HD
HETATM    8  C11 UNL     1      11.242  50.441 -48.039  1.00  0.00     0.719 A 
HETATM    9  N6  UNL     1       9.999  50.794 -47.628  1.00  0.00    -0.117 N 
ATOM     10  H6  UNL     1       9.299  50.187 -47.202  1.00  0.00     0.207 HD
HETATM   11  N7  UNL     1       9.880  52.071 -47.887  1.00  0.00    -0.211 N 
ATOM     12  H7  UNL     1       9.055  52.638 -47.695  1.00  0.00     0.206 HD
HETATM   13  N8  UNL     1      11.001  52.509 -48.440  1.00  0.00     0.016 NA
HETATM   14  N9  UNL     1      11.877  51.509 -48.549  1.00  0.00    -0.070 N 
ENDROOT
BRANCH   1  15
HETATM   15  C6  UNL     1      13.797  52.667 -49.565  1.00  0.00     0.139 C 
BRANCH  15  16
HETATM   16  C5  UNL     1      13.138  53.239 -50.762  1.00  0.00     0.118 A 
HETATM   17  N2  UNL     1      13.198  54.438 -51.339  1.00  0.00    -0.178 N 
HETATM   18  C4  UNL     1      12.396  54.485 -52.437  1.00  0.00     0.694 A 
ATOM     19  H2  UNL     1      13.766  55.214 -51.003  1.00  0.00     0.185 HD
HETATM   20  N11 UNL     1      11.841  53.262 -52.508  1.00  0.00    -0.131 N 
HETATM   21  N10 UNL     1      12.271  52.501 -51.516  1.00  0.00    -0.274 N 
ATOM     22  H11 UNL     1      11.181  52.963 -53.225  1.00  0.00     0.205 HD
ATOM     23  H10 UNL     1      12.003  51.531 -51.345  1.00  0.00     0.189 HD
BRANCH  18  24
HETATM   24  N1  UNL     1      12.216  55.490 -53.229  1.00  0.00    -0.222 N 
ATOM     25  H1  UNL     1      11.790  55.338 -54.143  1.00  0.00     0.177 HD
BRANCH  24  26
HETATM   26  C3  UNL     1      12.606  56.826 -52.844  1.00  0.00     0.169 C 
BRANCH  26  27
HETATM   27  C2  UNL     1      11.410  57.707 -52.554  1.00  0.00     0.132 C 
HETATM   28  C1  UNL     1      11.901  59.073 -52.159  1.00  0.00     0.041 C 
BRANCH  27  29
HETATM   29  O1  UNL     1      10.568  57.796 -53.656  1.00  0.00    -0.394 OA
ATOM     30  H1  UNL     1       9.684  57.547 -53.416  1.00  0.00     0.210 HD
ENDBRANCH  27  29
ENDBRANCH  26  27
ENDBRANCH  24  26
ENDBRANCH  18  24
ENDBRANCH  15  16
ENDBRANCH   1  15
BRANCH   5  31
HETATM   31  N4  UNL     1      13.755  48.051 -48.467  1.00  0.00    -0.384 N 
ATOM     32  H42 UNL     1      13.607  47.390 -47.705  1.00  0.00     0.157 HD
ATOM     33  H41 UNL     1      14.394  47.878 -49.242  1.00  0.00     0.157 HD
ENDBRANCH   5  31
TORSDOF 7
ENDMDL
MODEL 4
REMARK VINA RESULT: -7.541787876      3.542      7.367
REMARK  7 active torsions:
REMARK  status: ('A' for Active; 'I' for Inactive)
REMARK    1  A    between atoms: C2_2  and  O1_3 
REMARK    2  A    between atoms: C2_2  and  C3_5 
REMARK    3  A    between atoms: C3_5  and  N1_6 
REMARK    4  A    between atoms: N1_6  and  C4_8 
REMARK    5  A    between atoms: C5_11  and  C6_12 
REMARK    6  A    between atoms: C6_12  and  C7_13 
REMARK    7  A    between atoms: C10_17  and  N4_18 
ROOT
HETATM    1  C7  UNL     1      16.994  48.405 -54.349  1.00  0.00     0.082 A 
HETATM    2  C8  UNL     1      18.015  48.723 -55.207  1.00  0.00     0.114 A 
HETATM    3  C9  UNL     1      17.819  49.234 -56.540  1.00  0.00     0.105 C 
HETATM    4  N3  UNL     1      17.674  49.622 -57.619  1.00  0.00    -0.191 NA
HETATM    5  C10 UNL     1      19.308  48.504 -54.732  1.00  0.00     0.137 A 
HETATM    6  N5  UNL     1      19.571  48.011 -53.510  1.00  0.00    -0.173 N 
ATOM      7  H5  UNL     1      20.534  47.868 -53.206  1.00  0.00     0.186 HD
HETATM    8  C11 UNL     1      18.546  47.709 -52.696  1.00  0.00     0.719 A 
HETATM    9  N6  UNL     1      18.533  47.208 -51.437  1.00  0.00    -0.117 N 
ATOM     10  H6  UNL     1      19.342  46.962 -50.867  1.00  0.00     0.207 HD
HETATM   11  N7  UNL     1      17.273  47.102 -51.101  1.00  0.00    -0.211 N 
ATOM     12  H7  UNL     1      16.927  46.753 -50.207  1.00  0.00     0.206 HD
HETATM   13  N8  UNL     1      16.518  47.521 -52.106  1.00  0.00     0.016 NA
HETATM   14  N9  UNL     1      17.288  47.909 -53.123  1.00  0.00    -0.070 N 
ENDROOT
BRANCH   1  15
HETATM   15  C6  UNL     1      15.591  48.627 -54.757  1.00  0.00     0.139 C 
BRANCH  15  16
HETATM   16  C5  UNL     1      14.618  48.526 -53.645  1.00  0.00     0.118 A 
HETATM   17  N2  UNL     1      14.277  49.362 -52.666  1.00  0.00    -0.178 N 
HETATM   18  C4  UNL     1      13.317  48.812 -51.874  1.00  0.00     0.694 A 
ATOM     19  H2  UNL     1      14.680  50.289 -52.529  1.00  0.00     0.185 HD
HETATM   20  N11 UNL     1      13.086  47.600 -52.410  1.00  0.00    -0.131 N 
HETATM   21  N10 UNL     1      13.853  47.409 -53.470  1.00  0.00    -0.274 N 
ATOM     22  H11 UNL     1      12.414  46.924 -52.049  1.00  0.00     0.205 HD
ATOM     23  H10 UNL     1      13.869  46.573 -54.055  1.00  0.00     0.189 HD
BRANCH  18  24
HETATM   24  N1  UNL     1      12.761  49.346 -50.837  1.00  0.00    -0.222 N 
ATOM     25  H1  UNL     1      11.774  49.599 -50.873  1.00  0.00     0.177 HD
BRANCH  24  26
HETATM   26  C3  UNL     1      13.510  49.591 -49.627  1.00  0.00     0.169 C 
BRANCH  26  27
HETATM   27  C2  UNL     1      13.992  48.307 -48.988  1.00  0.00     0.132 C 
HETATM   28  C1  UNL     1      14.783  48.649 -47.754  1.00  0.00     0.041 C 
BRANCH  27  29
HETATM   29  O1  UNL     1      12.930  47.473 -48.663  1.00  0.00    -0.394 OA
ATOM     30  H1  UNL     1      12.304  47.444 -49.377  1.00  0.00     0.210 HD
ENDBRANCH  27  29
ENDBRANCH  26  27
ENDBRANCH  24  26
ENDBRANCH  18  24
ENDBRANCH  15  16
ENDBRANCH   1  15
BRANCH   5  31
HETATM   31  N4  UNL     1      20.269  48.802 -55.533  1.00  0.00    -0.384 N 
ATOM     32  H42 UNL     1      20.104  48.860 -56.538  1.00  0.00     0.157 HD
ATOM     33  H41 UNL     1      21.179  48.970 -55.105  1.00  0.00     0.157 HD
ENDBRANCH   5  31
TORSDOF 7
ENDMDL
MODEL 5
REMARK VINA RESULT: -7.522160048      3.311      4.286
REMARK  7 active torsions:
REMARK  status: ('A' for Active; 'I' for Inactive)
REMARK    1  A    between atoms: C2_2  and  O1_3 
REMARK    2  A    between atoms: C2_2  and  C3_5 
REMARK    3  A    between atoms: C3_5  and  N1_6 
REMARK    4  A    between atoms: N1_6  and  C4_8 
REMARK    5  A    between atoms: C5_11  and  C6_12 
REMARK    6  A    between atoms: C6_12  and  C7_13 
REMARK    7  A    between atoms: C10_17  and  N4_18 
ROOT
HETATM    1  C7  UNL     1      13.517  49.567 -48.266  1.00  0.00     0.082 A 
HETATM    2  C8  UNL     1      14.861  49.608 -47.995  1.00  0.00     0.114 A 
HETATM    3  C9  UNL     1      15.889  49.585 -49.004  1.00  0.00     0.105 C 
HETATM    4  N3  UNL     1      16.723  49.543 -49.804  1.00  0.00    -0.191 NA
HETATM    5  C10 UNL     1      15.214  49.652 -46.646  1.00  0.00     0.137 A 
HETATM    6  N5  UNL     1      14.315  49.655 -45.648  1.00  0.00    -0.173 N 
ATOM      7  H5  UNL     1      14.621  49.689 -44.676  1.00  0.00     0.186 HD
HETATM    8  C11 UNL     1      13.007  49.614 -45.951  1.00  0.00     0.719 A 
HETATM    9  N6  UNL     1      11.912  49.606 -45.151  1.00  0.00    -0.117 N 
ATOM     10  H6  UNL     1      11.898  49.633 -44.132  1.00  0.00     0.207 HD
HETATM   11  N7  UNL     1      10.878  49.559 -45.951  1.00  0.00    -0.211 N 
ATOM     12  H7  UNL     1       9.902  49.541 -45.655  1.00  0.00     0.206 HD
HETATM   13  N8  UNL     1      11.300  49.537 -47.207  1.00  0.00     0.016 NA
HETATM   14  N9  UNL     1      12.633  49.571 -47.241  1.00  0.00    -0.070 N 
ENDROOT
BRANCH   1  15
HETATM   15  C6  UNL     1      13.048  49.544 -49.667  1.00  0.00     0.139 C 
BRANCH  15  16
HETATM   16  C5  UNL     1      12.627  50.867 -50.183  1.00  0.00     0.118 A 
HETATM   17  N2  UNL     1      12.728  51.443 -51.380  1.00  0.00    -0.178 N 
HETATM   18  C4  UNL     1      12.185  52.690 -51.362  1.00  0.00     0.694 A 
ATOM     19  H2  UNL     1      13.155  51.009 -52.198  1.00  0.00     0.185 HD
HETATM   20  N11 UNL     1      11.747  52.854 -50.101  1.00  0.00    -0.131 N 
HETATM   21  N10 UNL     1      12.000  51.776 -49.379  1.00  0.00    -0.274 N 
ATOM     22  H11 UNL     1      11.284  53.692 -49.751  1.00  0.00     0.205 HD
ATOM     23  H10 UNL     1      11.768  51.646 -48.394  1.00  0.00     0.189 HD
BRANCH  18  24
HETATM   24  N1  UNL     1      12.113  53.524 -52.347  1.00  0.00    -0.222 N 
ATOM     25  H1  UNL     1      11.640  53.244 -53.206  1.00  0.00     0.177 HD
BRANCH  24  26
HETATM   26  C3  UNL     1      12.689  54.845 -52.254  1.00  0.00     0.169 C 
BRANCH  26  27
HETATM   27  C2  UNL     1      11.906  55.864 -53.051  1.00  0.00     0.132 C 
HETATM   28  C1  UNL     1      12.487  57.228 -52.796  1.00  0.00     0.041 C 
BRANCH  27  29
HETATM   29  O1  UNL     1      11.933  55.575 -54.410  1.00  0.00    -0.394 OA
ATOM     30  H1  UNL     1      11.827  56.369 -54.919  1.00  0.00     0.210 HD
ENDBRANCH  27  29
ENDBRANCH  26  27
ENDBRANCH  24  26
ENDBRANCH  18  24
ENDBRANCH  15  16
ENDBRANCH   1  15
BRANCH   5  31
HETATM   31  N4  UNL     1      16.473  49.692 -46.387  1.00  0.00    -0.384 N 
ATOM     32  H42 UNL     1      16.950  48.870 -46.018  1.00  0.00     0.157 HD
ATOM     33  H41 UNL     1      16.945  50.577 -46.570  1.00  0.00     0.157 HD
ENDBRANCH   5  31
TORSDOF 7
ENDMDL
