MODEL 1
REMARK VINA RESULT: -7.796775276      0.000      0.000
REMARK  4 active torsions:
REMARK  status: ('A' for Active; 'I' for Inactive)
REMARK    1  A    between atoms: C2_3  and  N2_4 
REMARK       I    between atoms: N2_4  and  C3_6 
REMARK    2  A    between atoms: C6_21  and  S1_22 
REMARK    3  A    between atoms: S1_22  and  C7_23 
REMARK    4  A    between atoms: C7_23  and  C8_24 
ROOT
HETATM    1  C1  UNL     1      18.637  48.130 -52.182  1.00  0.00     0.176 C 
HETATM    2  N1  UNL     1      17.643  48.264 -53.228  1.00  0.00    -0.180 N 
HETATM    3  C2  UNL     1      17.906  48.307 -54.544  1.00  0.00     0.689 A 
HETATM    4  N5  UNL     1      16.770  48.435 -55.246  1.00  0.00    -0.172 N 
ATOM      5  H5  UNL     1      16.692  48.491 -56.262  1.00  0.00     0.186 HD
HETATM    6  C4  UNL     1      15.761  48.476 -54.375  1.00  0.00     0.167 A 
HETATM    7  N6  UNL     1      14.411  48.581 -54.229  1.00  0.00    -0.271 N 
ATOM      8  H6  UNL     1      13.742  48.675 -54.993  1.00  0.00     0.189 HD
HETATM    9  N7  UNL     1      14.103  48.543 -52.951  1.00  0.00    -0.184 N 
HETATM   10  C5  UNL     1      12.933  48.606 -52.254  1.00  0.00     0.349 A 
HETATM   11  O1  UNL     1      11.886  48.727 -52.941  1.00  0.00    -0.244 OA
HETATM   12  N8  UNL     1      12.938  48.539 -50.911  1.00  0.00    -0.287 N 
ATOM     13  H8  UNL     1      12.049  48.588 -50.412  1.00  0.00     0.172 HD
HETATM   14  C6  UNL     1      14.075  48.410 -50.203  1.00  0.00     0.150 A 
HETATM   15  N10 UNL     1      15.228  48.348 -50.891  1.00  0.00    -0.319 N 
ATOM     16  H10 UNL     1      16.106  48.250 -50.382  1.00  0.00     0.169 HD
HETATM   17  C9  UNL     1      15.252  48.413 -52.240  1.00  0.00     0.165 A 
HETATM   18  C10 UNL     1      16.310  48.369 -53.116  1.00  0.00     0.143 A 
ENDROOT
BRANCH   3  19
HETATM   19  N2  UNL     1      19.102  48.233 -55.073  1.00  0.00    -0.163 N 
HETATM   20  C3  UNL     1      19.802  49.409 -55.440  1.00  0.00     0.200 C 
HETATM   21  N3  UNL     1      20.205  50.204 -54.521  1.00  0.00    -0.373 N 
HETATM   22  N4  UNL     1      20.051  49.702 -56.805  1.00  0.00    -0.063 NA
ATOM     23  H32 UNL     1      20.025  49.993 -53.539  1.00  0.00     0.158 HD
ATOM     24  H31 UNL     1      20.708  51.050 -54.785  1.00  0.00     0.158 HD
ATOM     25  H2  UNL     1      19.534  47.321 -55.222  1.00  0.00     0.187 HD
ENDBRANCH   3  19
BRANCH  14  26
HETATM   26  S1  UNL     1      14.083  48.322 -48.416  1.00  0.00    -0.089 SA
BRANCH  26  27
HETATM   27  C7  UNL     1      12.741  49.246 -47.684  1.00  0.00     0.126 C 
BRANCH  27  28
HETATM   28  C8  UNL     1      13.170  49.709 -46.337  1.00  0.00     0.063 C 
HETATM   29  N9  UNL     1      12.343  49.827 -45.383  1.00  0.00    -0.410 N 
ATOM     30  H92 UNL     1      11.366  49.595 -45.560  1.00  0.00     0.155 HD
ATOM     31  H91 UNL     1      12.637  50.145 -44.459  1.00  0.00     0.155 HD
ENDBRANCH  27  28
ENDBRANCH  26  27
ENDBRANCH  14  26
TORSDOF 4
ENDMDL
MODEL 2
REMARK VINA RESULT: -7.724964323      2.620      6.761
REMARK  4 active torsions:
REMARK  status: ('A' for Active; 'I' for Inactive)
REMARK    1  A    between atoms: C2_3  and  N2_4 
REMARK       I    between atoms: N2_4  and  C3_6 
REMARK    2  A    between atoms: C6_21  and  S1_22 
REMARK    3  A    between atoms: S1_22  and  C7_23 
REMARK    4  A    between atoms: C7_23  and  C8_24 
ROOT
HETATM    1  C1  UNL     1      16.071  48.593 -49.880  1.00  0.00     0.176 C 
HETATM    2  N1  UNL     1      14.933  48.416 -50.759  1.00  0.00    -0.180 N 
HETATM    3  C2  UNL     1      13.653  48.333 -50.360  1.00  0.00     0.689 A 
HETATM    4  N5  UNL     1      12.842  48.171 -51.416  1.00  0.00    -0.172 N 
ATOM      5  H5  UNL     1      11.826  48.081 -51.388  1.00  0.00     0.186 HD
HETATM    6  C4  UNL     1      13.605  48.148 -52.511  1.00  0.00     0.167 A 
HETATM    7  N6  UNL     1      13.614  48.034 -53.867  1.00  0.00    -0.271 N 
ATOM      8  H6  UNL     1      12.788  47.909 -54.453  1.00  0.00     0.189 HD
HETATM    9  N7  UNL     1      14.851  48.110 -54.307  1.00  0.00    -0.184 N 
HETATM   10  C5  UNL     1      15.426  48.058 -55.542  1.00  0.00     0.349 A 
HETATM   11  O1  UNL     1      14.638  47.905 -56.511  1.00  0.00    -0.244 OA
HETATM   12  N8  UNL     1      16.759  48.168 -55.676  1.00  0.00    -0.287 N 
ATOM     13  H8  UNL     1      17.165  48.127 -56.612  1.00  0.00     0.172 HD
HETATM   14  C6  UNL     1      17.576  48.331 -54.621  1.00  0.00     0.150 A 
HETATM   15  N10 UNL     1      17.010  48.382 -53.402  1.00  0.00    -0.319 N 
ATOM     16  H10 UNL     1      17.603  48.506 -52.583  1.00  0.00     0.169 HD
HETATM   17  C9  UNL     1      15.673  48.274 -53.239  1.00  0.00     0.165 A 
HETATM   18  C10 UNL     1      14.910  48.301 -52.095  1.00  0.00     0.143 A 
ENDROOT
BRANCH   3  19
HETATM   19  N2  UNL     1      13.249  48.401 -49.116  1.00  0.00    -0.163 N 
HETATM   20  C3  UNL     1      12.895  49.646 -48.541  1.00  0.00     0.200 C 
HETATM   21  N3  UNL     1      11.851  50.252 -48.964  1.00  0.00    -0.373 N 
HETATM   22  N4  UNL     1      13.689  50.213 -47.510  1.00  0.00    -0.063 NA
ATOM     23  H32 UNL     1      11.281  49.844 -49.706  1.00  0.00     0.158 HD
ATOM     24  H31 UNL     1      11.596  51.148 -48.550  1.00  0.00     0.158 HD
ATOM     25  H2  UNL     1      13.187  47.549 -48.557  1.00  0.00     0.187 HD
ENDBRANCH   3  19
BRANCH  14  26
HETATM   26  S1  UNL     1      19.350  48.477 -54.798  1.00  0.00    -0.089 SA
BRANCH  26  27
HETATM   27  C7  UNL     1      20.127  49.146 -53.336  1.00  0.00     0.126 C 
BRANCH  27  28
HETATM   28  C8  UNL     1      20.685  48.018 -52.542  1.00  0.00     0.063 C 
HETATM   29  N9  UNL     1      20.643  46.825 -52.968  1.00  0.00    -0.410 N 
ATOM     30  H92 UNL     1      20.214  46.651 -53.877  1.00  0.00     0.155 HD
ATOM     31  H91 UNL     1      21.025  46.051 -52.423  1.00  0.00     0.155 HD
ENDBRANCH  27  28
ENDBRANCH  26  27
ENDBRANCH  14  26
TORSDOF 4
ENDMDL
MODEL 3
REMARK VINA RESULT: -7.682856880      2.471      7.054
REMARK  4 active torsions:
REMARK  status: ('A' for Active; 'I' for Inactive)
REMARK    1  A    between atoms: C2_3  and  N2_4 
REMARK       I    between atoms: N2_4  and  C3_6 
REMARK    2  A    between atoms: C6_21  and  S1_22 
REMARK    3  A    between atoms: S1_22  and  C7_23 
REMARK    4  A    between atoms: C7_23  and  C8_24 
ROOT
HETATM    1  C1  UNL     1      16.039  48.640 -49.902  1.00  0.00     0.176 C 
HETATM    2  N1  UNL     1      14.914  48.447 -50.794  1.00  0.00    -0.180 N 
HETATM    3  C2  UNL     1      13.630  48.359 -50.411  1.00  0.00     0.689 A 
HETATM    4  N5  UNL     1      12.833  48.180 -51.476  1.00  0.00    -0.172 N 
ATOM      5  H5  UNL     1      11.818  48.084 -51.460  1.00  0.00     0.186 HD
HETATM    6  C4  UNL     1      13.611  48.151 -52.560  1.00  0.00     0.167 A 
HETATM    7  N6  UNL     1      13.638  48.023 -53.915  1.00  0.00    -0.271 N 
ATOM      8  H6  UNL     1      12.821  47.887 -54.510  1.00  0.00     0.189 HD
HETATM    9  N7  UNL     1      14.881  48.103 -54.339  1.00  0.00    -0.184 N 
HETATM   10  C5  UNL     1      15.471  48.043 -55.566  1.00  0.00     0.349 A 
HETATM   11  O1  UNL     1      14.697  47.874 -56.544  1.00  0.00    -0.244 OA
HETATM   12  N8  UNL     1      16.806  48.160 -55.684  1.00  0.00    -0.287 N 
ATOM     13  H8  UNL     1      17.224  48.112 -56.614  1.00  0.00     0.172 HD
HETATM   14  C6  UNL     1      17.608  48.340 -54.620  1.00  0.00     0.150 A 
HETATM   15  N10 UNL     1      17.025  48.400 -53.409  1.00  0.00    -0.319 N 
ATOM     16  H10 UNL     1      17.607  48.536 -52.583  1.00  0.00     0.169 HD
HETATM   17  C9  UNL     1      15.687  48.284 -53.262  1.00  0.00     0.165 A 
HETATM   18  C10 UNL     1      14.909  48.318 -52.129  1.00  0.00     0.143 A 
ENDROOT
BRANCH   3  19
HETATM   19  N2  UNL     1      13.208  48.437 -49.173  1.00  0.00    -0.163 N 
HETATM   20  C3  UNL     1      12.900  49.693 -48.595  1.00  0.00     0.200 C 
HETATM   21  N3  UNL     1      11.889  50.345 -49.031  1.00  0.00    -0.373 N 
HETATM   22  N4  UNL     1      13.700  50.219 -47.549  1.00  0.00    -0.063 NA
ATOM     23  H32 UNL     1      11.314  49.967 -49.784  1.00  0.00     0.158 HD
ATOM     24  H31 UNL     1      11.666  51.249 -48.615  1.00  0.00     0.158 HD
ATOM     25  H2  UNL     1      13.101  47.586 -48.621  1.00  0.00     0.187 HD
ENDBRANCH   3  19
BRANCH  14  26
HETATM   26  S1  UNL     1      19.383  48.496 -54.776  1.00  0.00    -0.089 SA
BRANCH  26  27
HETATM   27  C7  UNL     1      19.857  49.897 -55.777  1.00  0.00     0.126 C 
BRANCH  27  28
HETATM   28  C8  UNL     1      20.149  51.042 -54.873  1.00  0.00     0.063 C 
HETATM   29  N9  UNL     1      21.325  51.494 -54.736  1.00  0.00    -0.410 N 
ATOM     30  H92 UNL     1      22.077  51.051 -55.264  1.00  0.00     0.155 HD
ATOM     31  H91 UNL     1      21.526  52.280 -54.117  1.00  0.00     0.155 HD
ENDBRANCH  27  28
ENDBRANCH  26  27
ENDBRANCH  14  26
TORSDOF 4
ENDMDL
MODEL 4
REMARK VINA RESULT: -7.384240114      1.538      1.670
REMARK  4 active torsions:
REMARK  status: ('A' for Active; 'I' for Inactive)
REMARK    1  A    between atoms: C2_3  and  N2_4 
REMARK       I    between atoms: N2_4  and  C3_6 
REMARK    2  A    between atoms: C6_21  and  S1_22 
REMARK    3  A    between atoms: S1_22  and  C7_23 
REMARK    4  A    between atoms: C7_23  and  C8_24 
ROOT
HETATM    1  C1  UNL     1      18.703  48.179 -52.288  1.00  0.00     0.176 C 
HETATM    2  N1  UNL     1      17.687  48.326 -53.310  1.00  0.00    -0.180 N 
HETATM    3  C2  UNL     1      17.923  48.408 -54.630  1.00  0.00     0.689 A 
HETATM    4  N5  UNL     1      16.772  48.538 -55.306  1.00  0.00    -0.172 N 
ATOM      5  H5  UNL     1      16.673  48.620 -56.318  1.00  0.00     0.186 HD
HETATM    6  C4  UNL     1      15.779  48.542 -54.414  1.00  0.00     0.167 A 
HETATM    7  N6  UNL     1      14.432  48.625 -54.239  1.00  0.00    -0.271 N 
ATOM      8  H6  UNL     1      13.747  48.729 -54.988  1.00  0.00     0.189 HD
HETATM    9  N7  UNL     1      14.149  48.549 -52.957  1.00  0.00    -0.184 N 
HETATM   10  C5  UNL     1      12.993  48.577 -52.235  1.00  0.00     0.349 A 
HETATM   11  O1  UNL     1      11.931  48.702 -52.899  1.00  0.00    -0.244 OA
HETATM   12  N8  UNL     1      13.026  48.476 -50.895  1.00  0.00    -0.287 N 
ATOM     13  H8  UNL     1      12.147  48.499 -50.378  1.00  0.00     0.172 HD
HETATM   14  C6  UNL     1      14.178  48.344 -50.213  1.00  0.00     0.150 A 
HETATM   15  N10 UNL     1      15.318  48.316 -50.925  1.00  0.00    -0.319 N 
ATOM     16  H10 UNL     1      16.207  48.216 -50.436  1.00  0.00     0.169 HD
HETATM   17  C9  UNL     1      15.314  48.417 -52.272  1.00  0.00     0.165 A 
HETATM   18  C10 UNL     1      16.355  48.410 -53.170  1.00  0.00     0.143 A 
ENDROOT
BRANCH   3  19
HETATM   19  N2  UNL     1      19.109  48.365 -55.184  1.00  0.00    -0.163 N 
HETATM   20  C3  UNL     1      19.779  49.559 -55.547  1.00  0.00     0.200 C 
HETATM   21  N3  UNL     1      20.185  50.347 -54.625  1.00  0.00    -0.373 N 
HETATM   22  N4  UNL     1      19.995  49.876 -56.913  1.00  0.00    -0.063 NA
ATOM     23  H32 UNL     1      20.030  50.119 -53.643  1.00  0.00     0.158 HD
ATOM     24  H31 UNL     1      20.668  51.207 -54.886  1.00  0.00     0.158 HD
ATOM     25  H2  UNL     1      19.555  47.463 -55.355  1.00  0.00     0.187 HD
ENDBRANCH   3  19
BRANCH  14  26
HETATM   26  S1  UNL     1      14.223  48.209 -48.430  1.00  0.00    -0.089 SA
BRANCH  26  27
HETATM   27  C7  UNL     1      15.784  48.744 -47.747  1.00  0.00     0.126 C 
BRANCH  27  28
HETATM   28  C8  UNL     1      16.342  47.636 -46.925  1.00  0.00     0.063 C 
HETATM   29  N9  UNL     1      17.267  46.888 -47.363  1.00  0.00    -0.410 N 
ATOM     30  H92 UNL     1      17.626  47.064 -48.302  1.00  0.00     0.155 HD
ATOM     31  H91 UNL     1      17.649  46.128 -46.801  1.00  0.00     0.155 HD
ENDBRANCH  27  28
ENDBRANCH  26  27
ENDBRANCH  14  26
TORSDOF 4
ENDMDL
MODEL 5
REMARK VINA RESULT: -7.285565099      4.463      8.227
REMARK  4 active torsions:
REMARK  status: ('A' for Active; 'I' for Inactive)
REMARK    1  A    between atoms: C2_3  and  N2_4 
REMARK       I    between atoms: N2_4  and  C3_6 
REMARK    2  A    between atoms: C6_21  and  S1_22 
REMARK    3  A    between atoms: S1_22  and  C7_23 
REMARK    4  A    between atoms: C7_23  and  C8_24 
ROOT
HETATM    1  C1  UNL     1      11.387  52.351 -48.812  1.00  0.00     0.176 C 
HETATM    2  N1  UNL     1      11.669  50.999 -48.376  1.00  0.00    -0.180 N 
HETATM    3  C2  UNL     1      10.837  50.230 -47.655  1.00  0.00     0.689 A 
HETATM    4  N5  UNL     1      11.393  49.032 -47.416  1.00  0.00    -0.172 N 
ATOM      5  H5  UNL     1      10.972  48.265 -46.892  1.00  0.00     0.186 HD
HETATM    6  C4  UNL     1      12.599  49.027 -47.988  1.00  0.00     0.167 A 
HETATM    7  N6  UNL     1      13.726  48.299 -48.218  1.00  0.00    -0.271 N 
ATOM      8  H6  UNL     1      13.887  47.346 -47.892  1.00  0.00     0.189 HD
HETATM    9  N7  UNL     1      14.575  49.013 -48.924  1.00  0.00    -0.184 N 
HETATM   10  C5  UNL     1      15.823  48.786 -49.423  1.00  0.00     0.349 A 
HETATM   11  O1  UNL     1      16.317  47.654 -49.181  1.00  0.00    -0.244 OA
HETATM   12  N8  UNL     1      16.457  49.739 -50.128  1.00  0.00    -0.287 N 
ATOM     13  H8  UNL     1      17.390  49.545 -50.491  1.00  0.00     0.172 HD
HETATM   14  C6  UNL     1      15.903  50.941 -50.370  1.00  0.00     0.150 A 
HETATM   15  N10 UNL     1      14.672  51.165 -49.878  1.00  0.00    -0.319 N 
ATOM     16  H10 UNL     1      14.225  52.066 -50.046  1.00  0.00     0.169 HD
HETATM   17  C9  UNL     1      14.012  50.224 -49.167  1.00  0.00     0.165 A 
HETATM   18  C10 UNL     1      12.767  50.256 -48.586  1.00  0.00     0.143 A 
ENDROOT
BRANCH   3  19
HETATM   19  N2  UNL     1       9.648  50.592 -47.242  1.00  0.00    -0.163 N 
HETATM   20  C3  UNL     1       8.508  50.388 -48.057  1.00  0.00     0.200 C 
HETATM   21  N3  UNL     1       8.117  49.192 -48.288  1.00  0.00    -0.373 N 
HETATM   22  N4  UNL     1       7.813  51.493 -48.611  1.00  0.00    -0.063 NA
ATOM     23  H32 UNL     1       8.617  48.397 -47.890  1.00  0.00     0.158 HD
ATOM     24  H31 UNL     1       7.296  49.045 -48.875  1.00  0.00     0.158 HD
ATOM     25  H2  UNL     1       9.543  51.025 -46.324  1.00  0.00     0.187 HD
ENDBRANCH   3  19
BRANCH  14  26
HETATM   26  S1  UNL     1      16.746  52.210 -51.307  1.00  0.00    -0.089 SA
BRANCH  26  27
HETATM   27  C7  UNL     1      16.426  53.849 -50.672  1.00  0.00     0.126 C 
BRANCH  27  28
HETATM   28  C8  UNL     1      16.874  53.900 -49.255  1.00  0.00     0.063 C 
HETATM   29  N9  UNL     1      16.360  54.711 -48.427  1.00  0.00    -0.410 N 
ATOM     30  H92 UNL     1      15.624  55.336 -48.756  1.00  0.00     0.155 HD
ATOM     31  H91 UNL     1      16.667  54.746 -47.455  1.00  0.00     0.155 HD
ENDBRANCH  27  28
ENDBRANCH  26  27
ENDBRANCH  14  26
TORSDOF 4
ENDMDL
