MODEL 1
REMARK VINA RESULT: -7.421109021      0.000      0.000
REMARK  4 active torsions:
REMARK  status: ('A' for Active; 'I' for Inactive)
REMARK    1  A    between atoms: N6_17  and  C6_18 
REMARK    2  A    between atoms: C6_18  and  C7_19 
REMARK    3  A    between atoms: C7_19  and  C8_20 
REMARK    4  A    between atoms: C9_30  and  C10_31 
ROOT
HETATM    1  N1  UNL     1      16.189  50.022 -52.902  1.00  0.00    -0.190 NA
HETATM    2  C1  UNL     1      15.273  50.506 -52.329  1.00  0.00     0.120 C 
HETATM    3  C2  UNL     1      14.165  51.067 -51.612  1.00  0.00     0.145 A 
HETATM    4  N2  UNL     1      13.831  52.308 -51.982  1.00  0.00    -0.329 N 
ATOM      5  H2  UNL     1      14.342  52.784 -52.725  1.00  0.00     0.168 HD
HETATM    6  C3  UNL     1      12.830  52.903 -51.370  1.00  0.00     0.147 A 
HETATM    7  N3  UNL     1      12.427  54.095 -51.679  1.00  0.00    -0.382 N 
ATOM      8  H31 UNL     1      11.651  54.556 -51.205  1.00  0.00     0.157 HD
ATOM      9  H32 UNL     1      12.910  54.608 -52.417  1.00  0.00     0.157 HD
HETATM   10  C4  UNL     1      12.177  52.207 -50.370  1.00  0.00     0.187 A 
HETATM   11  N4  UNL     1      11.243  52.671 -49.532  1.00  0.00    -0.170 N 
ATOM     12  H4  UNL     1      10.809  53.592 -49.578  1.00  0.00     0.186 HD
HETATM   13  C5  UNL     1      10.976  51.736 -48.633  1.00  0.00     0.695 A 
HETATM   14  N5  UNL     1      10.136  51.785 -47.671  1.00  0.00    -0.233 N 
ATOM     15  H51 UNL     1       9.930  51.065 -46.978  1.00  0.00     0.174 HD
ATOM     16  H52 UNL     1       9.531  52.570 -47.432  1.00  0.00     0.174 HD
HETATM   17  N6  UNL     1      11.801  50.665 -48.958  1.00  0.00    -0.115 N 
HETATM   18  N11 UNL     1      12.518  50.931 -49.989  1.00  0.00    -0.216 N 
HETATM   19  C9  UNL     1      13.541  50.308 -50.612  1.00  0.00     0.110 A 
ENDROOT
BRANCH  19  20
HETATM   20  C10 UNL     1      14.161  49.072 -50.269  1.00  0.00     0.134 C 
HETATM   21  N12 UNL     1      13.564  47.846 -50.788  1.00  0.00    -0.113 NA
ENDBRANCH  19  20
BRANCH  17  22
HETATM   22  C6  UNL     1      11.884  49.550 -48.042  1.00  0.00     0.176 C 
BRANCH  22  23
HETATM   23  C7  UNL     1      12.963  49.820 -46.933  1.00  0.00     0.101 C 
BRANCH  23  24
HETATM   24  C8  UNL     1      12.284  49.705 -45.633  1.00  0.00     0.114 A 
HETATM   25  N7  UNL     1      12.611  50.081 -44.413  1.00  0.00    -0.272 N 
HETATM   26  N8  UNL     1      11.635  49.719 -43.613  1.00  0.00    -0.227 N 
ATOM     27  H7  UNL     1      13.466  50.563 -44.139  1.00  0.00     0.190 HD
HETATM   28  N9  UNL     1      10.674  49.121 -44.260  1.00  0.00    -0.227 N 
ATOM     29  H8  UNL     1      11.629  49.887 -42.607  1.00  0.00     0.210 HD
HETATM   30  N10 UNL     1      11.066  49.090 -45.557  1.00  0.00    -0.272 N 
ATOM     31  H9  UNL     1       9.806  48.751 -43.870  1.00  0.00     0.210 HD
ATOM     32  H10 UNL     1      10.547  48.683 -46.334  1.00  0.00     0.190 HD
ENDBRANCH  23  24
ENDBRANCH  22  23
ENDBRANCH  17  22
TORSDOF 4
ENDMDL
MODEL 2
REMARK VINA RESULT: -7.271279460      2.800      4.990
REMARK  4 active torsions:
REMARK  status: ('A' for Active; 'I' for Inactive)
REMARK    1  A    between atoms: N6_17  and  C6_18 
REMARK    2  A    between atoms: C6_18  and  C7_19 
REMARK    3  A    between atoms: C7_19  and  C8_20 
REMARK    4  A    between atoms: C9_30  and  C10_31 
ROOT
HETATM    1  N1  UNL     1      13.950  48.448 -53.726  1.00  0.00    -0.190 NA
HETATM    2  C1  UNL     1      14.607  48.286 -52.755  1.00  0.00     0.120 C 
HETATM    3  C2  UNL     1      15.376  48.093 -51.560  1.00  0.00     0.145 A 
HETATM    4  N2  UNL     1      16.603  47.600 -51.758  1.00  0.00    -0.329 N 
ATOM      5  H2  UNL     1      16.934  47.396 -52.701  1.00  0.00     0.168 HD
HETATM    6  C3  UNL     1      17.375  47.384 -50.715  1.00  0.00     0.147 A 
HETATM    7  N3  UNL     1      18.583  46.928 -50.819  1.00  0.00    -0.382 N 
ATOM      8  H31 UNL     1      19.181  46.761 -50.010  1.00  0.00     0.157 HD
ATOM      9  H32 UNL     1      18.956  46.710 -51.743  1.00  0.00     0.157 HD
HETATM   10  C4  UNL     1      16.869  47.680 -49.464  1.00  0.00     0.187 A 
HETATM   11  N4  UNL     1      17.420  47.403 -48.277  1.00  0.00    -0.170 N 
ATOM     12  H4  UNL     1      18.352  47.014 -48.131  1.00  0.00     0.186 HD
HETATM   13  C5  UNL     1      16.558  47.719 -47.322  1.00  0.00     0.695 A 
HETATM   14  N5  UNL     1      16.709  47.616 -46.058  1.00  0.00    -0.233 N 
ATOM     15  H51 UNL     1      16.045  47.859 -45.323  1.00  0.00     0.174 HD
ATOM     16  H52 UNL     1      17.532  47.260 -45.571  1.00  0.00     0.174 HD
HETATM   17  N6  UNL     1      15.436  48.204 -47.986  1.00  0.00    -0.115 N 
HETATM   18  N11 UNL     1      15.609  48.188 -49.258  1.00  0.00    -0.216 N 
HETATM   19  C9  UNL     1      14.808  48.417 -50.321  1.00  0.00     0.110 A 
ENDROOT
BRANCH  19  20
HETATM   20  C10 UNL     1      13.429  48.776 -50.325  1.00  0.00     0.134 C 
HETATM   21  N12 UNL     1      13.097  50.196 -50.311  1.00  0.00    -0.113 NA
ENDBRANCH  19  20
BRANCH  17  22
HETATM   22  C6  UNL     1      14.234  48.456 -47.223  1.00  0.00     0.176 C 
BRANCH  22  23
HETATM   23  C7  UNL     1      14.322  49.841 -46.487  1.00  0.00     0.101 C 
BRANCH  23  24
HETATM   24  C8  UNL     1      13.350  50.736 -47.134  1.00  0.00     0.114 A 
HETATM   25  N7  UNL     1      13.470  51.891 -47.758  1.00  0.00    -0.272 N 
HETATM   26  N8  UNL     1      12.270  52.263 -48.137  1.00  0.00    -0.227 N 
ATOM     27  H7  UNL     1      14.337  52.404 -47.918  1.00  0.00     0.190 HD
HETATM   28  N9  UNL     1      11.361  51.395 -47.789  1.00  0.00    -0.227 N 
ATOM     29  H8  UNL     1      12.072  53.126 -48.644  1.00  0.00     0.210 HD
HETATM   30  N10 UNL     1      12.024  50.408 -47.137  1.00  0.00    -0.272 N 
ATOM     31  H9  UNL     1      10.358  51.447 -47.969  1.00  0.00     0.210 HD
ATOM     32  H10 UNL     1      11.609  49.574 -46.724  1.00  0.00     0.190 HD
ENDBRANCH  23  24
ENDBRANCH  22  23
ENDBRANCH  17  22
TORSDOF 4
ENDMDL
MODEL 3
REMARK VINA RESULT: -7.266009457      2.418      4.433
REMARK  4 active torsions:
REMARK  status: ('A' for Active; 'I' for Inactive)
REMARK    1  A    between atoms: N6_17  and  C6_18 
REMARK    2  A    between atoms: C6_18  and  C7_19 
REMARK    3  A    between atoms: C7_19  and  C8_20 
REMARK    4  A    between atoms: C9_30  and  C10_31 
ROOT
HETATM    1  N1  UNL     1      12.436  48.164 -53.506  1.00  0.00    -0.190 NA
HETATM    2  C1  UNL     1      13.290  48.252 -52.691  1.00  0.00     0.120 C 
HETATM    3  C2  UNL     1      14.302  48.373 -51.682  1.00  0.00     0.145 A 
HETATM    4  N2  UNL     1      15.411  47.662 -51.914  1.00  0.00    -0.329 N 
ATOM      5  H2  UNL     1      15.496  47.095 -52.758  1.00  0.00     0.168 HD
HETATM    6  C3  UNL     1      16.388  47.709 -51.036  1.00  0.00     0.147 A 
HETATM    7  N3  UNL     1      17.503  47.068 -51.192  1.00  0.00    -0.382 N 
ATOM      8  H31 UNL     1      18.261  47.104 -50.511  1.00  0.00     0.157 HD
ATOM      9  H32 UNL     1      17.633  46.488 -52.021  1.00  0.00     0.157 HD
HETATM   10  C4  UNL     1      16.212  48.494 -49.913  1.00  0.00     0.187 A 
HETATM   11  N4  UNL     1      17.005  48.568 -48.838  1.00  0.00    -0.170 N 
ATOM     12  H4  UNL     1      17.915  48.118 -48.740  1.00  0.00     0.186 HD
HETATM   13  C5  UNL     1      16.415  49.323 -47.923  1.00  0.00     0.695 A 
HETATM   14  N5  UNL     1      16.851  49.645 -46.767  1.00  0.00    -0.233 N 
ATOM     15  H51 UNL     1      16.397  50.226 -46.063  1.00  0.00     0.174 HD
ATOM     16  H52 UNL     1      17.738  49.361 -46.351  1.00  0.00     0.174 HD
HETATM   17  N6  UNL     1      15.206  49.711 -48.491  1.00  0.00    -0.115 N 
HETATM   18  N11 UNL     1      15.074  49.227 -49.672  1.00  0.00    -0.216 N 
HETATM   19  C9  UNL     1      14.065  49.191 -50.569  1.00  0.00     0.110 A 
ENDROOT
BRANCH  19  20
HETATM   20  C10 UNL     1      12.753  49.729 -50.441  1.00  0.00     0.134 C 
HETATM   21  N12 UNL     1      12.589  51.168 -50.620  1.00  0.00    -0.113 NA
ENDBRANCH  19  20
BRANCH  17  22
HETATM   22  C6  UNL     1      14.238  50.392 -47.662  1.00  0.00     0.176 C 
BRANCH  22  23
HETATM   23  C7  UNL     1      13.392  49.361 -46.832  1.00  0.00     0.101 C 
BRANCH  23  24
HETATM   24  C8  UNL     1      11.985  49.779 -46.932  1.00  0.00     0.114 A 
HETATM   25  N7  UNL     1      10.851  49.210 -46.571  1.00  0.00    -0.272 N 
HETATM   26  N8  UNL     1       9.877  50.022 -46.906  1.00  0.00    -0.227 N 
ATOM     27  H7  UNL     1      10.750  48.303 -46.116  1.00  0.00     0.190 HD
HETATM   28  N9  UNL     1      10.324  51.108 -47.473  1.00  0.00    -0.227 N 
ATOM     29  H8  UNL     1       8.889  49.828 -46.742  1.00  0.00     0.210 HD
HETATM   30  N10 UNL     1      11.673  50.976 -47.510  1.00  0.00    -0.272 N 
ATOM     31  H9  UNL     1       9.773  51.895 -47.818  1.00  0.00     0.210 HD
ATOM     32  H10 UNL     1      12.333  51.649 -47.898  1.00  0.00     0.190 HD
ENDBRANCH  23  24
ENDBRANCH  22  23
ENDBRANCH  17  22
TORSDOF 4
ENDMDL
MODEL 4
REMARK VINA RESULT: -7.237017019      4.811      8.439
REMARK  4 active torsions:
REMARK  status: ('A' for Active; 'I' for Inactive)
REMARK    1  A    between atoms: N6_17  and  C6_18 
REMARK    2  A    between atoms: C6_18  and  C7_19 
REMARK    3  A    between atoms: C7_19  and  C8_20 
REMARK    4  A    between atoms: C9_30  and  C10_31 
ROOT
HETATM    1  N1  UNL     1      16.025  48.054 -48.966  1.00  0.00    -0.190 NA
HETATM    2  C1  UNL     1      15.607  48.121 -50.072  1.00  0.00     0.120 C 
HETATM    3  C2  UNL     1      15.131  48.192 -51.423  1.00  0.00     0.145 A 
HETATM    4  N2  UNL     1      13.801  48.254 -51.544  1.00  0.00    -0.329 N 
ATOM      5  H2  UNL     1      13.203  48.254 -50.717  1.00  0.00     0.168 HD
HETATM    6  C3  UNL     1      13.276  48.314 -52.749  1.00  0.00     0.147 A 
HETATM    7  N3  UNL     1      12.000  48.395 -52.955  1.00  0.00    -0.382 N 
ATOM      8  H31 UNL     1      11.594  48.443 -53.889  1.00  0.00     0.157 HD
ATOM      9  H32 UNL     1      11.365  48.400 -52.157  1.00  0.00     0.157 HD
HETATM   10  C4  UNL     1      14.137  48.308 -53.830  1.00  0.00     0.187 A 
HETATM   11  N4  UNL     1      13.817  48.215 -55.125  1.00  0.00    -0.170 N 
ATOM     12  H4  UNL     1      12.870  48.231 -55.505  1.00  0.00     0.186 HD
HETATM   13  C5  UNL     1      14.930  48.098 -55.833  1.00  0.00     0.695 A 
HETATM   14  N5  UNL     1      15.052  47.997 -57.100  1.00  0.00    -0.233 N 
ATOM     15  H51 UNL     1      15.909  47.907 -57.645  1.00  0.00     0.174 HD
ATOM     16  H52 UNL     1      14.295  47.981 -57.784  1.00  0.00     0.174 HD
HETATM   17  N6  UNL     1      15.962  48.121 -54.900  1.00  0.00    -0.115 N 
HETATM   18  N11 UNL     1      15.505  48.246 -53.708  1.00  0.00    -0.216 N 
HETATM   19  C9  UNL     1      16.055  48.188 -52.476  1.00  0.00     0.110 A 
ENDROOT
BRANCH  19  20
HETATM   20  C10 UNL     1      17.417  47.953 -52.129  1.00  0.00     0.134 C 
HETATM   21  N12 UNL     1      18.255  49.114 -51.846  1.00  0.00    -0.113 NA
ENDBRANCH  19  20
BRANCH  17  22
HETATM   22  C6  UNL     1      17.304  47.819 -55.344  1.00  0.00     0.176 C 
BRANCH  22  23
HETATM   23  C7  UNL     1      18.086  49.136 -55.690  1.00  0.00     0.101 C 
BRANCH  23  24
HETATM   24  C8  UNL     1      19.276  49.172 -54.826  1.00  0.00     0.114 A 
HETATM   25  N7  UNL     1      20.095  48.238 -54.385  1.00  0.00    -0.272 N 
HETATM   26  N8  UNL     1      20.994  48.824 -53.629  1.00  0.00    -0.227 N 
ATOM     27  H7  UNL     1      20.040  47.241 -54.593  1.00  0.00     0.190 HD
HETATM   28  N9  UNL     1      20.800  50.111 -53.556  1.00  0.00    -0.227 N 
ATOM     29  H8  UNL     1      21.752  48.331 -53.157  1.00  0.00     0.210 HD
HETATM   30  N10 UNL     1      19.701  50.363 -54.307  1.00  0.00    -0.272 N 
ATOM     31  H9  UNL     1      21.361  50.790 -53.039  1.00  0.00     0.210 HD
ATOM     32  H10 UNL     1      19.269  51.274 -54.458  1.00  0.00     0.190 HD
ENDBRANCH  23  24
ENDBRANCH  22  23
ENDBRANCH  17  22
TORSDOF 4
ENDMDL
MODEL 5
REMARK VINA RESULT: -7.180551614      2.396      4.477
REMARK  4 active torsions:
REMARK  status: ('A' for Active; 'I' for Inactive)
REMARK    1  A    between atoms: N6_17  and  C6_18 
REMARK    2  A    between atoms: C6_18  and  C7_19 
REMARK    3  A    between atoms: C7_19  and  C8_20 
REMARK    4  A    between atoms: C9_30  and  C10_31 
ROOT
HETATM    1  N1  UNL     1      14.005  48.568 -53.500  1.00  0.00    -0.190 NA
HETATM    2  C1  UNL     1      14.498  48.540 -52.423  1.00  0.00     0.120 C 
HETATM    3  C2  UNL     1      15.066  48.519 -51.107  1.00  0.00     0.145 A 
HETATM    4  N2  UNL     1      16.173  47.779 -50.988  1.00  0.00    -0.329 N 
ATOM      5  H2  UNL     1      16.558  47.287 -51.794  1.00  0.00     0.168 HD
HETATM    6  C3  UNL     1      16.757  47.697 -49.812  1.00  0.00     0.147 A 
HETATM    7  N3  UNL     1      17.843  47.019 -49.613  1.00  0.00    -0.382 N 
ATOM      8  H31 UNL     1      18.295  46.956 -48.702  1.00  0.00     0.157 HD
ATOM      9  H32 UNL     1      18.263  46.512 -50.392  1.00  0.00     0.157 HD
HETATM   10  C4  UNL     1      16.187  48.385 -48.758  1.00  0.00     0.187 A 
HETATM   11  N4  UNL     1      16.528  48.322 -47.466  1.00  0.00    -0.170 N 
ATOM     12  H4  UNL     1      17.331  47.820 -47.087  1.00  0.00     0.186 HD
HETATM   13  C5  UNL     1      15.650  49.018 -46.759  1.00  0.00     0.695 A 
HETATM   14  N5  UNL     1      15.631  49.212 -45.497  1.00  0.00    -0.233 N 
ATOM     15  H51 UNL     1      14.955  49.748 -44.953  1.00  0.00     0.174 HD
ATOM     16  H52 UNL     1      16.297  48.848 -44.816  1.00  0.00     0.174 HD
HETATM   17  N6  UNL     1      14.741  49.515 -47.688  1.00  0.00    -0.115 N 
HETATM   18  N11 UNL     1      15.050  49.148 -48.878  1.00  0.00    -0.216 N 
HETATM   19  C9  UNL     1      14.444  49.242 -50.081  1.00  0.00     0.110 A 
ENDROOT
BRANCH  19  20
HETATM   20  C10 UNL     1      13.184  49.831 -50.389  1.00  0.00     0.134 C 
HETATM   21  N12 UNL     1      13.099  51.288 -50.401  1.00  0.00    -0.113 NA
ENDBRANCH  19  20
BRANCH  17  22
HETATM   22  C6  UNL     1      13.543  50.164 -47.206  1.00  0.00     0.176 C 
BRANCH  22  23
HETATM   23  C7  UNL     1      12.390  49.119 -46.993  1.00  0.00     0.101 C 
BRANCH  23  24
HETATM   24  C8  UNL     1      11.118  49.842 -47.145  1.00  0.00     0.114 A 
HETATM   25  N7  UNL     1       9.873  49.546 -46.829  1.00  0.00    -0.272 N 
HETATM   26  N8  UNL     1       9.120  50.555 -47.199  1.00  0.00    -0.227 N 
ATOM     27  H7  UNL     1       9.553  48.689 -46.379  1.00  0.00     0.190 HD
HETATM   28  N9  UNL     1       9.821  51.508 -47.747  1.00  0.00    -0.227 N 
ATOM     29  H8  UNL     1       8.108  50.589 -47.074  1.00  0.00     0.210 HD
HETATM   30  N10 UNL     1      11.106  51.076 -47.733  1.00  0.00    -0.272 N 
ATOM     31  H9  UNL     1       9.475  52.397 -48.111  1.00  0.00     0.210 HD
ATOM     32  H10 UNL     1      11.916  51.579 -48.094  1.00  0.00     0.190 HD
ENDBRANCH  23  24
ENDBRANCH  22  23
ENDBRANCH  17  22
TORSDOF 4
ENDMDL
