MODEL 1
REMARK VINA RESULT: -7.939089364      0.000      0.000
REMARK  5 active torsions:
REMARK  status: ('A' for Active; 'I' for Inactive)
REMARK       I    between atoms: N1_2  and  C2_4 
REMARK    1  A    between atoms: C2_4  and  C3_6 
REMARK    2  A    between atoms: C4_7  and  N2_8 
REMARK    3  A    between atoms: N2_8  and  N3_10 
REMARK    4  A    between atoms: N4_12  and  C5_14 
REMARK    5  A    between atoms: C6_15  and  O2_16 
ROOT
HETATM    1  N3  UNL     1      12.839  51.181 -51.326  1.00  0.00    -0.240 N 
ATOM      2  H3  UNL     1      13.212  51.826 -52.023  1.00  0.00     0.208 HD
HETATM    3  N4  UNL     1      12.898  49.923 -51.481  1.00  0.00    -0.277 N 
ATOM      4  H4  UNL     1      12.503  49.341 -50.742  1.00  0.00     0.189 HD
ENDROOT
BRANCH   1   5
HETATM    5  N2  UNL     1      12.234  51.637 -50.148  1.00  0.00    -0.268 N 
ATOM      6  H2  UNL     1      11.463  52.303 -50.180  1.00  0.00     0.190 HD
BRANCH   5   7
HETATM    7  C4  UNL     1      12.724  51.149 -48.917  1.00  0.00     0.171 A 
HETATM    8  C3  UNL     1      12.029  50.595 -47.855  1.00  0.00     0.166 A 
HETATM    9  N9  UNL     1      12.953  50.287 -46.912  1.00  0.00    -0.274 N 
HETATM   10  N8  UNL     1      14.157  50.637 -47.375  1.00  0.00    -0.239 N 
HETATM   11  C9  UNL     1      12.769  49.690 -45.617  1.00  0.00     0.179 C 
HETATM   12  N7  UNL     1      14.041  51.141 -48.541  1.00  0.00    -0.268 N 
ATOM     13  H8  UNL     1      15.036  50.519 -46.872  1.00  0.00     0.208 HD
ATOM     14  H7  UNL     1      14.814  51.486 -49.110  1.00  0.00     0.190 HD
BRANCH   8  15
HETATM   15  C2  UNL     1      10.608  50.393 -47.787  1.00  0.00     0.273 C 
HETATM   16  N1  UNL     1       9.605  51.343 -47.655  1.00  0.00    -0.360 N 
HETATM   17  C1  UNL     1       8.180  50.929 -47.603  1.00  0.00     0.149 C 
ATOM     18  H1  UNL     1       9.848  52.331 -47.595  1.00  0.00     0.162 HD
HETATM   19  O1  UNL     1      10.190  49.171 -47.855  1.00  0.00    -0.266 OA
ENDBRANCH   8  15
ENDBRANCH   5   7
ENDBRANCH   1   5
BRANCH   3  20
HETATM   20  C5  UNL     1      13.458  49.267 -52.583  1.00  0.00     0.169 A 
HETATM   21  C6  UNL     1      12.726  48.414 -53.383  1.00  0.00     0.178 A 
HETATM   22  N5  UNL     1      13.337  47.821 -54.424  1.00  0.00    -0.287 N 
HETATM   23  C7  UNL     1      14.630  48.007 -54.741  1.00  0.00     0.329 A 
ATOM     24  H5  UNL     1      12.786  47.192 -55.009  1.00  0.00     0.172 HD
HETATM   25  O3  UNL     1      15.159  47.417 -55.743  1.00  0.00    -0.247 OA
HETATM   26  N6  UNL     1      15.342  48.836 -53.965  1.00  0.00    -0.273 N 
HETATM   27  C8  UNL     1      14.784  49.453 -52.915  1.00  0.00     0.281 A 
ATOM     28  H6  UNL     1      16.326  49.001 -54.177  1.00  0.00     0.173 HD
HETATM   29  O4  UNL     1      15.544  50.218 -52.244  1.00  0.00    -0.265 OA
BRANCH  21  30
HETATM   30  O2  UNL     1      11.373  48.176 -53.107  1.00  0.00    -0.344 OA
ATOM     31  H2  UNL     1      11.084  47.311 -52.840  1.00  0.00     0.219 HD
ENDBRANCH  21  30
ENDBRANCH   3  20
TORSDOF 5
ENDMDL
MODEL 2
REMARK VINA RESULT: -7.926142597      1.874      2.853
REMARK  5 active torsions:
REMARK  status: ('A' for Active; 'I' for Inactive)
REMARK       I    between atoms: N1_2  and  C2_4 
REMARK    1  A    between atoms: C2_4  and  C3_6 
REMARK    2  A    between atoms: C4_7  and  N2_8 
REMARK    3  A    between atoms: N2_8  and  N3_10 
REMARK    4  A    between atoms: N4_12  and  C5_14 
REMARK    5  A    between atoms: C6_15  and  O2_16 
ROOT
HETATM    1  N3  UNL     1      14.151  49.548 -50.516  1.00  0.00    -0.240 N 
ATOM      2  H3  UNL     1      14.541  50.376 -50.967  1.00  0.00     0.208 HD
HETATM    3  N4  UNL     1      13.860  48.504 -51.175  1.00  0.00    -0.277 N 
ATOM      4  H4  UNL     1      13.474  47.715 -50.656  1.00  0.00     0.189 HD
ENDROOT
BRANCH   1   5
HETATM    5  N2  UNL     1      13.911  49.504 -49.137  1.00  0.00    -0.268 N 
ATOM      6  H2  UNL     1      14.592  49.092 -48.500  1.00  0.00     0.190 HD
BRANCH   5   7
HETATM    7  C4  UNL     1      12.699  50.046 -48.655  1.00  0.00     0.171 A 
HETATM    8  C3  UNL     1      12.027  51.187 -49.059  1.00  0.00     0.166 A 
HETATM    9  N9  UNL     1      10.916  51.270 -48.286  1.00  0.00    -0.274 N 
HETATM   10  N8  UNL     1      10.909  50.229 -47.449  1.00  0.00    -0.239 N 
HETATM   11  C9  UNL     1       9.875  52.262 -48.292  1.00  0.00     0.179 C 
HETATM   12  N7  UNL     1      11.941  49.506 -47.650  1.00  0.00    -0.268 N 
ATOM     13  H8  UNL     1      10.188  50.040 -46.754  1.00  0.00     0.208 HD
ATOM     14  H7  UNL     1      12.167  48.653 -47.139  1.00  0.00     0.190 HD
BRANCH   8  15
HETATM   15  C2  UNL     1      12.442  52.092 -50.096  1.00  0.00     0.273 C 
HETATM   16  N1  UNL     1      11.729  52.520 -51.207  1.00  0.00    -0.360 N 
HETATM   17  C1  UNL     1      12.340  53.467 -52.173  1.00  0.00     0.149 C 
ATOM     18  H1  UNL     1      10.779  52.183 -51.360  1.00  0.00     0.162 HD
HETATM   19  O1  UNL     1      13.635  52.580 -49.998  1.00  0.00    -0.266 OA
ENDBRANCH   8  15
ENDBRANCH   5   7
ENDBRANCH   1   5
BRANCH   3  20
HETATM   20  C5  UNL     1      14.022  48.344 -52.555  1.00  0.00     0.169 A 
HETATM   21  C6  UNL     1      12.949  48.189 -53.410  1.00  0.00     0.178 A 
HETATM   22  N5  UNL     1      13.187  48.041 -54.726  1.00  0.00    -0.287 N 
HETATM   23  C7  UNL     1      14.416  48.035 -55.270  1.00  0.00     0.329 A 
ATOM     24  H5  UNL     1      12.387  47.927 -55.348  1.00  0.00     0.172 HD
HETATM   25  O3  UNL     1      14.584  47.891 -56.529  1.00  0.00    -0.247 OA
HETATM   26  N6  UNL     1      15.458  48.187 -54.441  1.00  0.00    -0.273 N 
HETATM   27  C8  UNL     1      15.279  48.337 -53.123  1.00  0.00     0.281 A 
ATOM     28  H6  UNL     1      16.405  48.187 -54.821  1.00  0.00     0.173 HD
HETATM   29  O4  UNL     1      16.331  48.473 -52.424  1.00  0.00    -0.265 OA
BRANCH  21  30
HETATM   30  O2  UNL     1      11.642  48.186 -52.906  1.00  0.00    -0.344 OA
ATOM     31  H2  UNL     1      11.034  48.875 -53.149  1.00  0.00     0.219 HD
ENDBRANCH  21  30
ENDBRANCH   3  20
TORSDOF 5
ENDMDL
MODEL 3
REMARK VINA RESULT: -7.885664609      1.660      2.652
REMARK  5 active torsions:
REMARK  status: ('A' for Active; 'I' for Inactive)
REMARK       I    between atoms: N1_2  and  C2_4 
REMARK    1  A    between atoms: C2_4  and  C3_6 
REMARK    2  A    between atoms: C4_7  and  N2_8 
REMARK    3  A    between atoms: N2_8  and  N3_10 
REMARK    4  A    between atoms: N4_12  and  C5_14 
REMARK    5  A    between atoms: C6_15  and  O2_16 
ROOT
HETATM    1  N3  UNL     1      13.162  50.908 -51.226  1.00  0.00    -0.240 N 
ATOM      2  H3  UNL     1      12.338  50.947 -51.827  1.00  0.00     0.208 HD
HETATM    3  N4  UNL     1      14.201  50.261 -51.560  1.00  0.00    -0.277 N 
ATOM      4  H4  UNL     1      14.986  50.268 -50.909  1.00  0.00     0.189 HD
ENDROOT
BRANCH   1   5
HETATM    5  N2  UNL     1      13.206  51.567 -49.992  1.00  0.00    -0.268 N 
ATOM      6  H2  UNL     1      13.853  52.339 -49.832  1.00  0.00     0.190 HD
BRANCH   5   7
HETATM    7  C4  UNL     1      12.329  51.132 -48.974  1.00  0.00     0.171 A 
HETATM    8  C3  UNL     1      12.356  49.962 -48.233  1.00  0.00     0.166 A 
HETATM    9  N9  UNL     1      11.299  50.020 -47.386  1.00  0.00    -0.274 N 
HETATM   10  N8  UNL     1      10.655  51.171 -47.600  1.00  0.00    -0.239 N 
HETATM   11  C9  UNL     1      10.867  49.066 -46.402  1.00  0.00     0.179 C 
HETATM   12  N7  UNL     1      11.241  51.830 -48.521  1.00  0.00    -0.268 N 
ATOM     13  H8  UNL     1       9.819  51.477 -47.101  1.00  0.00     0.208 HD
ATOM     14  H7  UNL     1      10.944  52.742 -48.869  1.00  0.00     0.190 HD
BRANCH   8  15
HETATM   15  C2  UNL     1      13.326  48.908 -48.352  1.00  0.00     0.273 C 
HETATM   16  N1  UNL     1      14.253  48.475 -47.416  1.00  0.00    -0.360 N 
HETATM   17  C1  UNL     1      15.178  47.357 -47.734  1.00  0.00     0.149 C 
ATOM     18  H1  UNL     1      14.300  48.927 -46.503  1.00  0.00     0.162 HD
HETATM   19  O1  UNL     1      13.351  48.266 -49.475  1.00  0.00    -0.266 OA
ENDBRANCH   8  15
ENDBRANCH   5   7
ENDBRANCH   1   5
BRANCH   3  20
HETATM   20  C5  UNL     1      14.359  49.538 -52.747  1.00  0.00     0.169 A 
HETATM   21  C6  UNL     1      13.470  48.556 -53.135  1.00  0.00     0.178 A 
HETATM   22  N5  UNL     1      13.691  47.905 -54.292  1.00  0.00    -0.287 N 
HETATM   23  C7  UNL     1      14.734  48.150 -55.104  1.00  0.00     0.329 A 
ATOM     24  H5  UNL     1      13.028  47.181 -54.568  1.00  0.00     0.172 HD
HETATM   25  O3  UNL     1      14.895  47.500 -56.192  1.00  0.00    -0.247 OA
HETATM   26  N6  UNL     1      15.597  49.104 -54.728  1.00  0.00    -0.273 N 
HETATM   27  C8  UNL     1      15.425  49.783 -53.587  1.00  0.00     0.281 A 
ATOM     28  H6  UNL     1      16.399  49.316 -55.321  1.00  0.00     0.173 HD
HETATM   29  O4  UNL     1      16.300  50.666 -53.321  1.00  0.00    -0.265 OA
BRANCH  21  30
HETATM   30  O2  UNL     1      12.363  48.251 -52.334  1.00  0.00    -0.344 OA
ATOM     31  H2  UNL     1      11.734  47.597 -52.615  1.00  0.00     0.219 HD
ENDBRANCH  21  30
ENDBRANCH   3  20
TORSDOF 5
ENDMDL
MODEL 4
REMARK VINA RESULT: -7.687718388      3.855      6.663
REMARK  5 active torsions:
REMARK  status: ('A' for Active; 'I' for Inactive)
REMARK       I    between atoms: N1_2  and  C2_4 
REMARK    1  A    between atoms: C2_4  and  C3_6 
REMARK    2  A    between atoms: C4_7  and  N2_8 
REMARK    3  A    between atoms: N2_8  and  N3_10 
REMARK    4  A    between atoms: N4_12  and  C5_14 
REMARK    5  A    between atoms: C6_15  and  O2_16 
ROOT
HETATM    1  N3  UNL     1      13.205  50.406 -46.384  1.00  0.00    -0.240 N 
ATOM      2  H3  UNL     1      12.998  51.290 -45.918  1.00  0.00     0.208 HD
HETATM    3  N4  UNL     1      12.385  49.867 -47.189  1.00  0.00    -0.277 N 
ATOM      4  H4  UNL     1      12.662  48.984 -47.617  1.00  0.00     0.189 HD
ENDROOT
BRANCH   1   5
HETATM    5  N2  UNL     1      14.410  49.725 -46.171  1.00  0.00    -0.268 N 
ATOM      6  H2  UNL     1      14.848  49.712 -45.250  1.00  0.00     0.190 HD
BRANCH   5   7
HETATM    7  C4  UNL     1      15.000  49.057 -47.267  1.00  0.00     0.171 A 
HETATM    8  C3  UNL     1      15.594  49.587 -48.400  1.00  0.00     0.166 A 
HETATM    9  N9  UNL     1      16.004  48.532 -49.146  1.00  0.00    -0.274 N 
HETATM   10  N8  UNL     1      15.676  47.410 -48.499  1.00  0.00    -0.239 N 
HETATM   11  C9  UNL     1      16.678  48.522 -50.416  1.00  0.00     0.179 C 
HETATM   12  N7  UNL     1      15.090  47.698 -47.403  1.00  0.00    -0.268 N 
ATOM     13  H8  UNL     1      15.866  46.465 -48.832  1.00  0.00     0.208 HD
ATOM     14  H7  UNL     1      14.741  47.017 -46.729  1.00  0.00     0.190 HD
BRANCH   8  15
HETATM   15  C2  UNL     1      15.738  50.985 -48.705  1.00  0.00     0.273 C 
HETATM   16  N1  UNL     1      16.893  51.687 -49.016  1.00  0.00    -0.360 N 
HETATM   17  C1  UNL     1      16.833  53.143 -49.304  1.00  0.00     0.149 C 
ATOM     18  H1  UNL     1      17.789  51.201 -49.049  1.00  0.00     0.162 HD
HETATM   19  O1  UNL     1      14.659  51.696 -48.693  1.00  0.00    -0.266 OA
ENDBRANCH   8  15
ENDBRANCH   5   7
ENDBRANCH   1   5
BRANCH   3  20
HETATM   20  C5  UNL     1      11.132  50.384 -47.536  1.00  0.00     0.169 A 
HETATM   21  C6  UNL     1      10.979  51.649 -48.067  1.00  0.00     0.178 A 
HETATM   22  N5  UNL     1       9.740  52.074 -48.376  1.00  0.00    -0.287 N 
HETATM   23  C7  UNL     1       8.629  51.339 -48.201  1.00  0.00     0.329 A 
ATOM     24  H5  UNL     1       9.639  53.011 -48.767  1.00  0.00     0.172 HD
HETATM   25  O3  UNL     1       7.476  51.794 -48.512  1.00  0.00    -0.247 OA
HETATM   26  N6  UNL     1       8.777  50.110 -47.686  1.00  0.00    -0.273 N 
HETATM   27  C8  UNL     1       9.987  49.637 -47.360  1.00  0.00     0.281 A 
ATOM     28  H6  UNL     1       7.955  49.525 -47.541  1.00  0.00     0.173 HD
HETATM   29  O4  UNL     1      10.019  48.461 -46.880  1.00  0.00    -0.265 OA
BRANCH  21  30
HETATM   30  O2  UNL     1      12.097  52.467 -48.274  1.00  0.00    -0.344 OA
ATOM     31  H2  UNL     1      12.733  52.594 -47.579  1.00  0.00     0.219 HD
ENDBRANCH  21  30
ENDBRANCH   3  20
TORSDOF 5
ENDMDL
MODEL 5
REMARK VINA RESULT: -7.672583036      2.710      6.529
REMARK  5 active torsions:
REMARK  status: ('A' for Active; 'I' for Inactive)
REMARK       I    between atoms: N1_2  and  C2_4 
REMARK    1  A    between atoms: C2_4  and  C3_6 
REMARK    2  A    between atoms: C4_7  and  N2_8 
REMARK    3  A    between atoms: N2_8  and  N3_10 
REMARK    4  A    between atoms: N4_12  and  C5_14 
REMARK    5  A    between atoms: C6_15  and  O2_16 
ROOT
HETATM    1  N3  UNL     1      13.038  48.794 -47.614  1.00  0.00    -0.240 N 
ATOM      2  H3  UNL     1      12.536  48.190 -48.264  1.00  0.00     0.208 HD
HETATM    3  N4  UNL     1      12.533  49.872 -47.177  1.00  0.00    -0.277 N 
ATOM      4  H4  UNL     1      13.095  50.424 -46.529  1.00  0.00     0.189 HD
ENDROOT
BRANCH   1   5
HETATM    5  N2  UNL     1      14.322  48.475 -47.155  1.00  0.00    -0.268 N 
ATOM      6  H2  UNL     1      14.547  48.510 -46.161  1.00  0.00     0.190 HD
BRANCH   5   7
HETATM    7  C4  UNL     1      15.297  48.104 -48.108  1.00  0.00     0.171 A 
HETATM    8  C3  UNL     1      15.336  48.361 -49.468  1.00  0.00     0.166 A 
HETATM    9  N9  UNL     1      16.475  47.792 -49.933  1.00  0.00    -0.274 N 
HETATM   10  N8  UNL     1      17.103  47.214 -48.905  1.00  0.00    -0.239 N 
HETATM   11  C9  UNL     1      16.998  47.763 -51.272  1.00  0.00     0.179 C 
HETATM   12  N7  UNL     1      16.431  47.386 -47.835  1.00  0.00    -0.268 N 
ATOM     13  H8  UNL     1      17.988  46.711 -48.967  1.00  0.00     0.208 HD
ATOM     14  H7  UNL     1      16.697  47.040 -46.913  1.00  0.00     0.190 HD
BRANCH   8  15
HETATM   15  C2  UNL     1      14.351  49.090 -50.220  1.00  0.00     0.273 C 
HETATM   16  N1  UNL     1      13.617  48.670 -51.320  1.00  0.00    -0.360 N 
HETATM   17  C1  UNL     1      12.638  49.583 -51.963  1.00  0.00     0.149 C 
ATOM     18  H1  UNL     1      13.750  47.729 -51.688  1.00  0.00     0.162 HD
HETATM   19  O1  UNL     1      14.104  50.299 -49.834  1.00  0.00    -0.266 OA
ENDBRANCH   8  15
ENDBRANCH   5   7
ENDBRANCH   1   5
BRANCH   3  20
HETATM   20  C5  UNL     1      11.268  50.368 -47.511  1.00  0.00     0.169 A 
HETATM   21  C6  UNL     1      11.095  51.603 -48.104  1.00  0.00     0.178 A 
HETATM   22  N5  UNL     1       9.846  52.010 -48.395  1.00  0.00    -0.287 N 
HETATM   23  C7  UNL     1       8.742  51.285 -48.145  1.00  0.00     0.329 A 
ATOM     24  H5  UNL     1       9.730  52.924 -48.833  1.00  0.00     0.172 HD
HETATM   25  O3  UNL     1       7.579  51.721 -48.443  1.00  0.00    -0.247 OA
HETATM   26  N6  UNL     1       8.910  50.085 -47.570  1.00  0.00    -0.273 N 
HETATM   27  C8  UNL     1      10.131  49.631 -47.258  1.00  0.00     0.281 A 
ATOM     28  H6  UNL     1       8.094  49.509 -47.366  1.00  0.00     0.173 HD
HETATM   29  O4  UNL     1      10.182  48.483 -46.716  1.00  0.00    -0.265 OA
BRANCH  21  30
HETATM   30  O2  UNL     1      12.204  52.409 -48.392  1.00  0.00    -0.344 OA
ATOM     31  H2  UNL     1      12.412  52.632 -49.292  1.00  0.00     0.219 HD
ENDBRANCH  21  30
ENDBRANCH   3  20
TORSDOF 5
ENDMDL
