MODEL 1
REMARK VINA RESULT: -6.630031196      0.000      0.000
REMARK  7 active torsions:
REMARK  status: ('A' for Active; 'I' for Inactive)
REMARK    1  A    between atoms: S1_2  and  C2_3 
REMARK    2  A    between atoms: C3_6  and  N2_7 
REMARK    3  A    between atoms: C4_12  and  N4_13 
REMARK    4  A    between atoms: N4_13  and  O1_15 
REMARK    5  A    between atoms: N5_17  and  C5_18 
REMARK    6  A    between atoms: C6_21  and  N7_22 
REMARK    7  A    between atoms: C9_27  and  N9_28 
ROOT
HETATM    1  C2  UNL     1      15.457  49.412 -53.503  1.00  0.00     0.200 A 
HETATM    2  N1  UNL     1      15.703  49.197 -54.835  1.00  0.00    -0.168 N 
ATOM      3  H1  UNL     1      16.525  49.619 -55.267  1.00  0.00     0.186 HD
HETATM    4  C3  UNL     1      14.872  48.431 -55.591  1.00  0.00     0.692 A 
HETATM    5  N3  UNL     1      13.807  47.893 -54.995  1.00  0.00    -0.020 N 
ATOM      6  H3  UNL     1      13.168  47.314 -55.540  1.00  0.00     0.203 HD
HETATM    7  C4  UNL     1      13.555  48.102 -53.672  1.00  0.00     0.739 A 
HETATM    8  N5  UNL     1      14.382  48.860 -52.937  1.00  0.00     0.048 N 
ENDROOT
BRANCH   8   9
HETATM    9  C5  UNL     1      14.087  49.052 -51.565  1.00  0.00     0.734 A 
HETATM   10  N6  UNL     1      13.236  50.050 -51.183  1.00  0.00    -0.020 N 
HETATM   11  C6  UNL     1      12.922  50.289 -49.902  1.00  0.00     0.708 A 
ATOM     12  H6  UNL     1      12.822  50.640 -51.904  1.00  0.00     0.203 HD
HETATM   13  N8  UNL     1      13.472  49.507 -48.957  1.00  0.00    -0.022 N 
HETATM   14  C9  UNL     1      14.318  48.505 -49.255  1.00  0.00     0.705 A 
ATOM     15  H8  UNL     1      13.239  49.679 -47.979  1.00  0.00     0.203 HD
HETATM   16  N10 UNL     1      14.600  48.308 -50.567  1.00  0.00    -0.020 N 
ATOM     17  H10 UNL     1      15.240  47.552 -50.811  1.00  0.00     0.203 HD
BRANCH  11  18
HETATM   18  N7  UNL     1      12.046  51.320 -49.485  1.00  0.00    -0.225 N 
HETATM   19  C7  UNL     1      11.243  51.191 -48.268  1.00  0.00     0.168 C 
HETATM   20  C8  UNL     1      11.964  52.514 -50.278  1.00  0.00     0.168 C 
ENDBRANCH  11  18
BRANCH  14  21
HETATM   21  N9  UNL     1      14.827  47.791 -48.326  1.00  0.00    -0.234 N 
ATOM     22  H92 UNL     1      15.035  48.162 -47.400  1.00  0.00     0.174 HD
ATOM     23  H91 UNL     1      15.037  46.807 -48.489  1.00  0.00     0.174 HD
ENDBRANCH  14  21
ENDBRANCH   8   9
BRANCH   1  24
HETATM   24  S1  UNL     1      16.542  50.429 -52.526  1.00  0.00    -0.096 SA
HETATM   25  C1  UNL     1      17.880  49.448 -51.781  1.00  0.00     0.099 C 
ENDBRANCH   1  24
BRANCH   7  26
HETATM   26  N4  UNL     1      12.535  47.588 -53.090  1.00  0.00    -0.097 N 
ATOM     27  H4  UNL     1      12.600  46.678 -52.633  1.00  0.00     0.213 HD
BRANCH  26  28
HETATM   28  O1  UNL     1      11.357  48.286 -53.093  1.00  0.00    -0.276 OA
ATOM     29  H1  UNL     1      11.337  49.148 -52.693  1.00  0.00     0.245 HD
ENDBRANCH  26  28
ENDBRANCH   7  26
BRANCH   4  30
HETATM   30  N2  UNL     1      15.123  48.236 -56.841  1.00  0.00    -0.234 N 
ATOM     31  H22 UNL     1      14.653  48.769 -57.574  1.00  0.00     0.174 HD
ATOM     32  H21 UNL     1      15.804  47.532 -57.127  1.00  0.00     0.174 HD
ENDBRANCH   4  30
TORSDOF 7
ENDMDL
MODEL 2
REMARK VINA RESULT: -6.440865519      3.590      6.613
REMARK  7 active torsions:
REMARK  status: ('A' for Active; 'I' for Inactive)
REMARK    1  A    between atoms: S1_2  and  C2_3 
REMARK    2  A    between atoms: C3_6  and  N2_7 
REMARK    3  A    between atoms: C4_12  and  N4_13 
REMARK    4  A    between atoms: N4_13  and  O1_15 
REMARK    5  A    between atoms: N5_17  and  C5_18 
REMARK    6  A    between atoms: C6_21  and  N7_22 
REMARK    7  A    between atoms: C9_27  and  N9_28 
ROOT
HETATM    1  C2  UNL     1      10.829  51.695 -48.507  1.00  0.00     0.200 A 
HETATM    2  N1  UNL     1       9.547  52.180 -48.539  1.00  0.00    -0.168 N 
ATOM      3  H1  UNL     1       9.356  53.061 -49.017  1.00  0.00     0.186 HD
HETATM    4  C3  UNL     1       8.524  51.509 -47.946  1.00  0.00     0.692 A 
HETATM    5  N3  UNL     1       8.807  50.360 -47.330  1.00  0.00    -0.020 N 
ATOM      6  H3  UNL     1       8.056  49.838 -46.877  1.00  0.00     0.203 HD
HETATM    7  C4  UNL     1      10.078  49.871 -47.293  1.00  0.00     0.739 A 
HETATM    8  N5  UNL     1      11.079  50.543 -47.881  1.00  0.00     0.048 N 
ENDROOT
BRANCH   8   9
HETATM    9  C5  UNL     1      12.386  50.001 -47.822  1.00  0.00     0.734 A 
HETATM   10  N6  UNL     1      12.964  49.488 -48.948  1.00  0.00    -0.020 N 
HETATM   11  C6  UNL     1      14.194  48.954 -48.958  1.00  0.00     0.708 A 
ATOM     12  H6  UNL     1      12.436  49.512 -49.821  1.00  0.00     0.203 HD
HETATM   13  N8  UNL     1      14.883  48.927 -47.805  1.00  0.00    -0.022 N 
HETATM   14  C9  UNL     1      14.382  49.412 -46.656  1.00  0.00     0.705 A 
ATOM     15  H8  UNL     1      15.820  48.523 -47.801  1.00  0.00     0.203 HD
HETATM   16  N10 UNL     1      13.133  49.940 -46.704  1.00  0.00    -0.020 N 
ATOM     17  H10 UNL     1      12.737  50.313 -45.841  1.00  0.00     0.203 HD
BRANCH  11  18
HETATM   18  N7  UNL     1      14.808  48.414 -50.114  1.00  0.00    -0.225 N 
HETATM   19  C7  UNL     1      14.051  48.206 -51.351  1.00  0.00     0.168 C 
HETATM   20  C8  UNL     1      16.203  48.081 -50.060  1.00  0.00     0.168 C 
ENDBRANCH  11  18
BRANCH  14  21
HETATM   21  N9  UNL     1      15.066  49.357 -45.579  1.00  0.00    -0.234 N 
ATOM     22  H92 UNL     1      15.974  48.898 -45.527  1.00  0.00     0.174 HD
ATOM     23  H91 UNL     1      14.716  49.787 -44.723  1.00  0.00     0.174 HD
ENDBRANCH  14  21
ENDBRANCH   8   9
BRANCH   1  24
HETATM   24  S1  UNL     1      12.164  52.589 -49.272  1.00  0.00    -0.096 SA
HETATM   25  C1  UNL     1      12.104  52.448 -51.085  1.00  0.00     0.099 C 
ENDBRANCH   1  24
BRANCH   7  26
HETATM   26  N4  UNL     1      10.360  48.768 -46.705  1.00  0.00    -0.097 N 
ATOM     27  H4  UNL     1      10.437  47.900 -47.235  1.00  0.00     0.213 HD
BRANCH  26  28
HETATM   28  O1  UNL     1      10.556  48.778 -45.350  1.00  0.00    -0.276 OA
ATOM     29  H1  UNL     1      11.127  48.122 -44.967  1.00  0.00     0.245 HD
ENDBRANCH  26  28
ENDBRANCH   7  26
BRANCH   4  30
HETATM   30  N2  UNL     1       7.323  51.980 -47.991  1.00  0.00    -0.234 N 
ATOM     31  H22 UNL     1       6.526  51.397 -48.248  1.00  0.00     0.174 HD
ATOM     32  H21 UNL     1       7.146  52.960 -47.772  1.00  0.00     0.174 HD
ENDBRANCH   4  30
TORSDOF 7
ENDMDL
MODEL 3
REMARK VINA RESULT: -6.333779033      0.963      2.671
REMARK  7 active torsions:
REMARK  status: ('A' for Active; 'I' for Inactive)
REMARK    1  A    between atoms: S1_2  and  C2_3 
REMARK    2  A    between atoms: C3_6  and  N2_7 
REMARK    3  A    between atoms: C4_12  and  N4_13 
REMARK    4  A    between atoms: N4_13  and  O1_15 
REMARK    5  A    between atoms: N5_17  and  C5_18 
REMARK    6  A    between atoms: C6_21  and  N7_22 
REMARK    7  A    between atoms: C9_27  and  N9_28 
ROOT
HETATM    1  C2  UNL     1      15.564  49.469 -53.704  1.00  0.00     0.200 A 
HETATM    2  N1  UNL     1      15.704  49.217 -55.045  1.00  0.00    -0.168 N 
ATOM      3  H1  UNL     1      16.482  49.635 -55.556  1.00  0.00     0.186 HD
HETATM    4  C3  UNL     1      14.825  48.418 -55.708  1.00  0.00     0.692 A 
HETATM    5  N3  UNL     1      13.820  47.886 -55.011  1.00  0.00    -0.020 N 
ATOM      6  H3  UNL     1      13.147  47.283 -55.485  1.00  0.00     0.203 HD
HETATM    7  C4  UNL     1      13.674  48.132 -53.679  1.00  0.00     0.739 A 
HETATM    8  N5  UNL     1      14.547  48.922 -53.036  1.00  0.00     0.048 N 
ENDROOT
BRANCH   8   9
HETATM    9  C5  UNL     1      14.362  49.151 -51.651  1.00  0.00     0.734 A 
HETATM   10  N6  UNL     1      15.173  48.534 -50.742  1.00  0.00    -0.020 N 
HETATM   11  C6  UNL     1      15.045  48.703 -49.419  1.00  0.00     0.708 A 
ATOM     12  H6  UNL     1      15.909  47.917 -51.086  1.00  0.00     0.203 HD
HETATM   13  N8  UNL     1      14.074  49.518 -48.973  1.00  0.00    -0.022 N 
HETATM   14  C9  UNL     1      13.237  50.160 -49.806  1.00  0.00     0.705 A 
ATOM     15  H8  UNL     1      13.969  49.655 -47.968  1.00  0.00     0.203 HD
HETATM   16  N10 UNL     1      13.411  49.953 -51.135  1.00  0.00    -0.020 N 
ATOM     17  H10 UNL     1      12.784  50.433 -51.781  1.00  0.00     0.203 HD
BRANCH  11  18
HETATM   18  N7  UNL     1      15.874  48.069 -48.461  1.00  0.00    -0.225 N 
HETATM   19  C7  UNL     1      15.397  47.797 -47.104  1.00  0.00     0.168 C 
HETATM   20  C8  UNL     1      17.200  47.681 -48.849  1.00  0.00     0.168 C 
ENDBRANCH  11  18
BRANCH  14  21
HETATM   21  N9  UNL     1      12.320  50.919 -49.342  1.00  0.00    -0.234 N 
ATOM     22  H92 UNL     1      12.413  51.934 -49.304  1.00  0.00     0.174 HD
ATOM     23  H91 UNL     1      11.448  50.521 -48.994  1.00  0.00     0.174 HD
ENDBRANCH  14  21
ENDBRANCH   8   9
BRANCH   1  24
HETATM   24  S1  UNL     1      16.711  50.528 -52.850  1.00  0.00    -0.096 SA
HETATM   25  C1  UNL     1      18.223  49.631 -52.385  1.00  0.00     0.099 C 
ENDBRANCH   1  24
BRANCH   7  26
HETATM   26  N4  UNL     1      12.712  47.624 -53.000  1.00  0.00    -0.097 N 
ATOM     27  H4  UNL     1      12.855  46.780 -52.446  1.00  0.00     0.213 HD
BRANCH  26  28
HETATM   28  O1  UNL     1      11.489  48.238 -53.034  1.00  0.00    -0.276 OA
ATOM     29  H1  UNL     1      10.804  47.923 -52.455  1.00  0.00     0.245 HD
ENDBRANCH  26  28
ENDBRANCH   7  26
BRANCH   4  30
HETATM   30  N2  UNL     1      14.976  48.189 -56.969  1.00  0.00    -0.234 N 
ATOM     31  H22 UNL     1      15.866  47.874 -57.356  1.00  0.00     0.174 HD
ATOM     32  H21 UNL     1      14.196  48.324 -57.614  1.00  0.00     0.174 HD
ENDBRANCH   4  30
TORSDOF 7
ENDMDL
MODEL 4
REMARK VINA RESULT: -6.092111770      1.110      2.440
REMARK  7 active torsions:
REMARK  status: ('A' for Active; 'I' for Inactive)
REMARK    1  A    between atoms: S1_2  and  C2_3 
REMARK    2  A    between atoms: C3_6  and  N2_7 
REMARK    3  A    between atoms: C4_12  and  N4_13 
REMARK    4  A    between atoms: N4_13  and  O1_15 
REMARK    5  A    between atoms: N5_17  and  C5_18 
REMARK    6  A    between atoms: C6_21  and  N7_22 
REMARK    7  A    between atoms: C9_27  and  N9_28 
ROOT
HETATM    1  C2  UNL     1      15.373  49.754 -53.203  1.00  0.00     0.200 A 
HETATM    2  N1  UNL     1      15.831  49.248 -54.392  1.00  0.00    -0.168 N 
ATOM      3  H1  UNL     1      16.690  49.621 -54.798  1.00  0.00     0.186 HD
HETATM    4  C3  UNL     1      15.162  48.257 -55.041  1.00  0.00     0.692 A 
HETATM    5  N3  UNL     1      14.044  47.792 -54.483  1.00  0.00    -0.020 N 
ATOM      6  H3  UNL     1      13.524  47.049 -54.949  1.00  0.00     0.203 HD
HETATM    7  C4  UNL     1      13.583  48.290 -53.301  1.00  0.00     0.739 A 
HETATM    8  N5  UNL     1      14.250  49.267 -52.671  1.00  0.00     0.048 N 
ENDROOT
BRANCH   8   9
HETATM    9  C5  UNL     1      13.739  49.757 -51.444  1.00  0.00     0.734 A 
HETATM   10  N6  UNL     1      14.059  49.132 -50.273  1.00  0.00    -0.020 N 
HETATM   11  C6  UNL     1      13.603  49.540 -49.081  1.00  0.00     0.708 A 
ATOM     12  H6  UNL     1      14.673  48.318 -50.307  1.00  0.00     0.203 HD
HETATM   13  N8  UNL     1      12.795  50.614 -49.044  1.00  0.00    -0.022 N 
HETATM   14  C9  UNL     1      12.436  51.281 -50.154  1.00  0.00     0.705 A 
ATOM     15  H8  UNL     1      12.443  50.934 -48.141  1.00  0.00     0.203 HD
HETATM   16  N10 UNL     1      12.926  50.825 -51.333  1.00  0.00    -0.020 N 
ATOM     17  H10 UNL     1      12.664  51.320 -52.186  1.00  0.00     0.203 HD
BRANCH  11  18
HETATM   18  N7  UNL     1      13.920  48.903 -47.857  1.00  0.00    -0.225 N 
HETATM   19  C7  UNL     1      13.370  49.380 -46.586  1.00  0.00     0.168 C 
HETATM   20  C8  UNL     1      14.790  47.762 -47.881  1.00  0.00     0.168 C 
ENDBRANCH  11  18
BRANCH  14  21
HETATM   21  N9  UNL     1      11.657  52.291 -50.077  1.00  0.00    -0.234 N 
ATOM     22  H92 UNL     1      12.003  53.245 -49.977  1.00  0.00     0.174 HD
ATOM     23  H91 UNL     1      10.646  52.168 -50.120  1.00  0.00     0.174 HD
ENDBRANCH  14  21
ENDBRANCH   8   9
BRANCH   1  24
HETATM   24  S1  UNL     1      16.247  51.061 -52.370  1.00  0.00    -0.096 SA
HETATM   25  C1  UNL     1      17.475  50.400 -51.202  1.00  0.00     0.099 C 
ENDBRANCH   1  24
BRANCH   7  26
HETATM   26  N4  UNL     1      12.510  47.849 -52.756  1.00  0.00    -0.097 N 
ATOM     27  H4  UNL     1      12.548  47.106 -52.057  1.00  0.00     0.213 HD
BRANCH  26  28
HETATM   28  O1  UNL     1      11.311  48.395 -53.129  1.00  0.00    -0.276 OA
ATOM     29  H1  UNL     1      10.655  47.829 -53.521  1.00  0.00     0.245 HD
ENDBRANCH  26  28
ENDBRANCH   7  26
BRANCH   4  30
HETATM   30  N2  UNL     1      15.611  47.791 -56.157  1.00  0.00    -0.234 N 
ATOM     31  H22 UNL     1      14.991  47.571 -56.937  1.00  0.00     0.174 HD
ATOM     32  H21 UNL     1      16.611  47.626 -56.281  1.00  0.00     0.174 HD
ENDBRANCH   4  30
TORSDOF 7
ENDMDL
MODEL 5
REMARK VINA RESULT: -6.044917233      3.512      6.012
REMARK  7 active torsions:
REMARK  status: ('A' for Active; 'I' for Inactive)
REMARK    1  A    between atoms: S1_2  and  C2_3 
REMARK    2  A    between atoms: C3_6  and  N2_7 
REMARK    3  A    between atoms: C4_12  and  N4_13 
REMARK    4  A    between atoms: N4_13  and  O1_15 
REMARK    5  A    between atoms: N5_17  and  C5_18 
REMARK    6  A    between atoms: C6_21  and  N7_22 
REMARK    7  A    between atoms: C9_27  and  N9_28 
ROOT
HETATM    1  C2  UNL     1      15.658  48.635 -53.013  1.00  0.00     0.200 A 
HETATM    2  N1  UNL     1      14.328  48.301 -53.040  1.00  0.00    -0.168 N 
ATOM      3  H1  UNL     1      13.803  48.260 -52.166  1.00  0.00     0.186 HD
HETATM    4  C3  UNL     1      13.695  48.022 -54.211  1.00  0.00     0.692 A 
HETATM    5  N3  UNL     1      14.409  48.086 -55.336  1.00  0.00    -0.020 N 
ATOM      6  H3  UNL     1      13.957  47.882 -56.227  1.00  0.00     0.203 HD
HETATM    7  C4  UNL     1      15.731  48.417 -55.317  1.00  0.00     0.739 A 
HETATM    8  N5  UNL     1      16.344  48.689 -54.156  1.00  0.00     0.048 N 
ENDROOT
BRANCH   8   9
HETATM    9  C5  UNL     1      17.719  49.031 -54.179  1.00  0.00     0.734 A 
HETATM   10  N6  UNL     1      18.098  50.317 -54.439  1.00  0.00    -0.020 N 
HETATM   11  C6  UNL     1      19.381  50.703 -54.482  1.00  0.00     0.708 A 
ATOM     12  H6  UNL     1      17.373  51.014 -54.607  1.00  0.00     0.203 HD
HETATM   13  N8  UNL     1      20.330  49.779 -54.258  1.00  0.00    -0.022 N 
HETATM   14  C9  UNL     1      20.035  48.494 -53.996  1.00  0.00     0.705 A 
ATOM     15  H8  UNL     1      21.310  50.063 -54.287  1.00  0.00     0.203 HD
HETATM   16  N10 UNL     1      18.722  48.158 -53.964  1.00  0.00    -0.020 N 
ATOM     17  H10 UNL     1      18.480  47.187 -53.767  1.00  0.00     0.203 HD
BRANCH  11  18
HETATM   18  N7  UNL     1      19.793  52.031 -54.753  1.00  0.00    -0.225 N 
HETATM   19  C7  UNL     1      21.194  52.348 -55.039  1.00  0.00     0.168 C 
HETATM   20  C8  UNL     1      18.805  53.071 -54.755  1.00  0.00     0.168 C 
ENDBRANCH  11  18
BRANCH  14  21
HETATM   21  N9  UNL     1      20.968  47.644 -53.799  1.00  0.00    -0.234 N 
ATOM     22  H92 UNL     1      21.571  47.306 -54.549  1.00  0.00     0.174 HD
ATOM     23  H91 UNL     1      21.144  47.279 -52.863  1.00  0.00     0.174 HD
ENDBRANCH  14  21
ENDBRANCH   8   9
BRANCH   1  24
HETATM   24  S1  UNL     1      16.481  48.982 -51.474  1.00  0.00    -0.096 SA
HETATM   25  C1  UNL     1      17.155  47.468 -50.725  1.00  0.00     0.099 C 
ENDBRANCH   1  24
BRANCH   7  26
HETATM   26  N4  UNL     1      16.425  48.482 -56.392  1.00  0.00    -0.097 N 
ATOM     27  H4  UNL     1      17.430  48.308 -56.374  1.00  0.00     0.213 HD
BRANCH  26  28
HETATM   28  O1  UNL     1      15.791  48.789 -57.566  1.00  0.00    -0.276 OA
ATOM     29  H1  UNL     1      15.547  49.693 -57.729  1.00  0.00     0.245 HD
ENDBRANCH  26  28
ENDBRANCH   7  26
BRANCH   4  30
HETATM   30  N2  UNL     1      12.442  47.714 -54.217  1.00  0.00    -0.234 N 
ATOM     31  H22 UNL     1      11.714  48.416 -54.079  1.00  0.00     0.174 HD
ATOM     32  H21 UNL     1      12.150  46.746 -54.358  1.00  0.00     0.174 HD
ENDBRANCH   4  30
TORSDOF 7
ENDMDL
