MODEL 1
REMARK VINA RESULT: -6.965708766      0.000      0.000
REMARK  7 active torsions:
REMARK  status: ('A' for Active; 'I' for Inactive)
REMARK    1  A    between atoms: O1_2  and  N1_3 
REMARK       I    between atoms: N1_3  and  C2_4 
REMARK    2  A    between atoms: N1_3  and  C4_14 
REMARK       I    between atoms: C2_4  and  N3_8 
REMARK    3  A    between atoms: N3_8  and  O2_10 
REMARK    4  A    between atoms: O2_10  and  C3_11 
REMARK    5  A    between atoms: C5_17  and  N6_18 
REMARK    6  A    between atoms: C8_22  and  N7_23 
REMARK    7  A    between atoms: N7_23  and  N8_25 
ROOT
HETATM    1  C4  UNL     1      17.185  48.643 -54.637  1.00  0.00     0.728 A 
HETATM    2  N5  UNL     1      16.828  48.385 -53.384  1.00  0.00    -0.167 N 
ATOM      3  H5  UNL     1      15.825  48.332 -53.205  1.00  0.00     0.186 HD
HETATM    4  C5  UNL     1      17.619  48.188 -52.338  1.00  0.00     0.164 A 
HETATM    5  S1  UNL     1      19.295  48.292 -52.730  1.00  0.00    -0.015 SA
HETATM    6  C8  UNL     1      19.555  48.631 -54.390  1.00  0.00     0.181 A 
HETATM    7  N9  UNL     1      18.422  48.754 -55.091  1.00  0.00    -0.166 N 
ATOM      8  H9  UNL     1      18.524  48.956 -56.085  1.00  0.00     0.186 HD
ENDROOT
BRANCH   1   9
HETATM    9  N1  UNL     1      16.098  48.814 -55.574  1.00  0.00     0.130 N 
HETATM   10  C2  UNL     1      15.882  50.001 -56.295  1.00  0.00     0.738 C 
HETATM   11  N2  UNL     1      15.638  51.095 -55.662  1.00  0.00    -0.230 N 
HETATM   12  N3  UNL     1      15.917  50.062 -57.715  1.00  0.00    -0.084 N 
ATOM     13  H22 UNL     1      15.613  51.051 -54.643  1.00  0.00     0.174 HD
ATOM     14  H21 UNL     1      15.481  51.956 -56.186  1.00  0.00     0.174 HD
ATOM     15  H3  UNL     1      15.647  49.231 -58.242  1.00  0.00     0.214 HD
BRANCH   9  16
HETATM   16  O1  UNL     1      15.221  47.796 -55.793  1.00  0.00    -0.251 OA
HETATM   17  C1  UNL     1      14.079  48.066 -55.040  1.00  0.00     0.239 C 
ENDBRANCH   9  16
BRANCH  12  18
HETATM   18  O2  UNL     1      16.289  51.164 -58.404  1.00  0.00    -0.169 OA
BRANCH  18  19
HETATM   19  C3  UNL     1      15.410  51.726 -59.320  1.00  0.00     0.395 C 
HETATM   20  N4  UNL     1      14.889  50.990 -60.420  1.00  0.00    -0.031 NA
HETATM   21  O3  UNL     1      15.037  52.933 -59.205  1.00  0.00    -0.240 OA
ENDBRANCH  18  19
ENDBRANCH  12  18
ENDBRANCH   1   9
BRANCH   4  22
HETATM   22  N6  UNL     1      17.173  47.916 -51.028  1.00  0.00    -0.370 N 
HETATM   23  C6  UNL     1      18.074  47.342 -50.068  1.00  0.00     0.151 C 
HETATM   24  C7  UNL     1      15.818  48.215 -50.657  1.00  0.00     0.151 C 
ENDBRANCH   4  22
BRANCH   6  25
HETATM   25  N7  UNL     1      20.741  48.756 -54.917  1.00  0.00    -0.286 N 
ATOM     26  H7  UNL     1      21.590  48.621 -54.368  1.00  0.00     0.188 HD
BRANCH  25  27
HETATM   27  N8  UNL     1      20.786  49.083 -56.264  1.00  0.00    -0.343 N 
ATOM     28  H82 UNL     1      20.066  48.755 -56.907  1.00  0.00     0.176 HD
ATOM     29  H81 UNL     1      21.571  49.662 -56.565  1.00  0.00     0.176 HD
ENDBRANCH  25  27
ENDBRANCH   6  25
TORSDOF 7
ENDMDL
MODEL 2
REMARK VINA RESULT: -6.896459148      2.971      4.220
REMARK  7 active torsions:
REMARK  status: ('A' for Active; 'I' for Inactive)
REMARK    1  A    between atoms: O1_2  and  N1_3 
REMARK       I    between atoms: N1_3  and  C2_4 
REMARK    2  A    between atoms: N1_3  and  C4_14 
REMARK       I    between atoms: C2_4  and  N3_8 
REMARK    3  A    between atoms: N3_8  and  O2_10 
REMARK    4  A    between atoms: O2_10  and  C3_11 
REMARK    5  A    between atoms: C5_17  and  N6_18 
REMARK    6  A    between atoms: C8_22  and  N7_23 
REMARK    7  A    between atoms: N7_23  and  N8_25 
ROOT
HETATM    1  C4  UNL     1      15.572  49.804 -54.099  1.00  0.00     0.728 A 
HETATM    2  N5  UNL     1      15.834  50.888 -53.378  1.00  0.00    -0.167 N 
ATOM      3  H5  UNL     1      16.575  51.494 -53.731  1.00  0.00     0.186 HD
HETATM    4  C5  UNL     1      15.247  51.278 -52.255  1.00  0.00     0.164 A 
HETATM    5  S1  UNL     1      14.007  50.200 -51.731  1.00  0.00    -0.015 SA
HETATM    6  C8  UNL     1      13.817  48.865 -52.788  1.00  0.00     0.181 A 
HETATM    7  N9  UNL     1      14.658  48.888 -53.829  1.00  0.00    -0.166 N 
ATOM      8  H9  UNL     1      14.584  48.113 -54.488  1.00  0.00     0.186 HD
ENDROOT
BRANCH   1   9
HETATM    9  N1  UNL     1      16.378  49.633 -55.286  1.00  0.00     0.130 N 
HETATM   10  C2  UNL     1      15.838  49.569 -56.582  1.00  0.00     0.738 C 
HETATM   11  N2  UNL     1      15.017  48.624 -56.883  1.00  0.00    -0.230 N 
HETATM   12  N3  UNL     1      16.155  50.509 -57.600  1.00  0.00    -0.084 N 
ATOM     13  H22 UNL     1      14.791  47.950 -56.152  1.00  0.00     0.174 HD
ATOM     14  H21 UNL     1      14.626  48.578 -57.824  1.00  0.00     0.174 HD
ATOM     15  H3  UNL     1      17.074  50.950 -57.583  1.00  0.00     0.214 HD
BRANCH   9  16
HETATM   16  O1  UNL     1      17.731  49.524 -55.180  1.00  0.00    -0.251 OA
HETATM   17  C1  UNL     1      18.058  48.190 -55.422  1.00  0.00     0.239 C 
ENDBRANCH   9  16
BRANCH  12  18
HETATM   18  O2  UNL     1      15.300  50.849 -58.592  1.00  0.00    -0.169 OA
BRANCH  18  19
HETATM   19  C3  UNL     1      15.567  51.966 -59.371  1.00  0.00     0.395 C 
HETATM   20  N4  UNL     1      16.487  51.930 -60.456  1.00  0.00    -0.031 NA
HETATM   21  O3  UNL     1      14.992  53.072 -59.139  1.00  0.00    -0.240 OA
ENDBRANCH  18  19
ENDBRANCH  12  18
ENDBRANCH   1   9
BRANCH   4  22
HETATM   22  N6  UNL     1      15.574  52.447 -51.536  1.00  0.00    -0.370 N 
HETATM   23  C6  UNL     1      16.905  52.982 -51.605  1.00  0.00     0.151 C 
HETATM   24  C7  UNL     1      14.575  53.099 -50.737  1.00  0.00     0.151 C 
ENDBRANCH   4  22
BRANCH   6  25
HETATM   25  N7  UNL     1      12.942  47.919 -52.595  1.00  0.00    -0.286 N 
ATOM     26  H7  UNL     1      12.040  48.103 -52.155  1.00  0.00     0.188 HD
BRANCH  25  27
HETATM   27  N8  UNL     1      13.301  46.648 -53.020  1.00  0.00    -0.343 N 
ATOM     28  H82 UNL     1      14.280  46.367 -53.060  1.00  0.00     0.176 HD
ATOM     29  H81 UNL     1      12.538  46.025 -53.285  1.00  0.00     0.176 HD
ENDBRANCH  25  27
ENDBRANCH   6  25
TORSDOF 7
ENDMDL
MODEL 3
REMARK VINA RESULT: -6.692733838      2.187      3.124
REMARK  7 active torsions:
REMARK  status: ('A' for Active; 'I' for Inactive)
REMARK    1  A    between atoms: O1_2  and  N1_3 
REMARK       I    between atoms: N1_3  and  C2_4 
REMARK    2  A    between atoms: N1_3  and  C4_14 
REMARK       I    between atoms: C2_4  and  N3_8 
REMARK    3  A    between atoms: N3_8  and  O2_10 
REMARK    4  A    between atoms: O2_10  and  C3_11 
REMARK    5  A    between atoms: C5_17  and  N6_18 
REMARK    6  A    between atoms: C8_22  and  N7_23 
REMARK    7  A    between atoms: N7_23  and  N8_25 
ROOT
HETATM    1  C4  UNL     1      17.223  49.281 -54.177  1.00  0.00     0.728 A 
HETATM    2  N5  UNL     1      15.917  49.225 -53.943  1.00  0.00    -0.167 N 
ATOM      3  H5  UNL     1      15.320  49.710 -54.613  1.00  0.00     0.186 HD
HETATM    4  C5  UNL     1      15.297  48.615 -52.942  1.00  0.00     0.164 A 
HETATM    5  S1  UNL     1      16.379  47.820 -51.860  1.00  0.00    -0.015 SA
HETATM    6  C8  UNL     1      18.017  48.004 -52.328  1.00  0.00     0.181 A 
HETATM    7  N9  UNL     1      18.174  48.727 -53.443  1.00  0.00    -0.166 N 
ATOM      8  H9  UNL     1      19.132  48.865 -53.764  1.00  0.00     0.186 HD
ENDROOT
BRANCH   1   9
HETATM    9  N1  UNL     1      17.616  50.024 -55.352  1.00  0.00     0.130 N 
HETATM   10  C2  UNL     1      17.066  49.801 -56.626  1.00  0.00     0.738 C 
HETATM   11  N2  UNL     1      17.205  48.649 -57.187  1.00  0.00    -0.230 N 
HETATM   12  N3  UNL     1      16.349  50.795 -57.346  1.00  0.00    -0.084 N 
ATOM     13  H22 UNL     1      17.719  47.936 -56.670  1.00  0.00     0.174 HD
ATOM     14  H21 UNL     1      16.806  48.488 -58.111  1.00  0.00     0.174 HD
ATOM     15  H3  UNL     1      16.594  51.774 -57.194  1.00  0.00     0.214 HD
BRANCH   9  16
HETATM   16  O1  UNL     1      18.565  50.996 -55.257  1.00  0.00    -0.251 OA
HETATM   17  C1  UNL     1      17.984  52.076 -54.595  1.00  0.00     0.239 C 
ENDBRANCH   9  16
BRANCH  12  18
HETATM   18  O2  UNL     1      15.359  50.511 -58.222  1.00  0.00    -0.169 OA
BRANCH  18  19
HETATM   19  C3  UNL     1      15.144  51.353 -59.305  1.00  0.00     0.395 C 
HETATM   20  N4  UNL     1      15.162  52.769 -59.179  1.00  0.00    -0.031 NA
HETATM   21  O3  UNL     1      14.919  50.880 -60.460  1.00  0.00    -0.240 OA
ENDBRANCH  18  19
ENDBRANCH  12  18
ENDBRANCH   1   9
BRANCH   4  22
HETATM   22  N6  UNL     1      13.899  48.594 -52.751  1.00  0.00    -0.370 N 
HETATM   23  C6  UNL     1      13.059  47.887 -53.677  1.00  0.00     0.151 C 
HETATM   24  C7  UNL     1      13.320  49.280 -51.629  1.00  0.00     0.151 C 
ENDBRANCH   4  22
BRANCH   6  25
HETATM   25  N7  UNL     1      19.013  47.492 -51.661  1.00  0.00    -0.286 N 
ATOM     26  H7  UNL     1      18.937  47.268 -50.669  1.00  0.00     0.188 HD
BRANCH  25  27
HETATM   27  N8  UNL     1      20.182  47.265 -52.374  1.00  0.00    -0.343 N 
ATOM     28  H82 UNL     1      20.409  46.336 -52.725  1.00  0.00     0.176 HD
ATOM     29  H81 UNL     1      20.787  48.073 -52.521  1.00  0.00     0.176 HD
ENDBRANCH  25  27
ENDBRANCH   6  25
TORSDOF 7
ENDMDL
MODEL 4
REMARK VINA RESULT: -6.657219892      2.220      3.182
REMARK  7 active torsions:
REMARK  status: ('A' for Active; 'I' for Inactive)
REMARK    1  A    between atoms: O1_2  and  N1_3 
REMARK       I    between atoms: N1_3  and  C2_4 
REMARK    2  A    between atoms: N1_3  and  C4_14 
REMARK       I    between atoms: C2_4  and  N3_8 
REMARK    3  A    between atoms: N3_8  and  O2_10 
REMARK    4  A    between atoms: O2_10  and  C3_11 
REMARK    5  A    between atoms: C5_17  and  N6_18 
REMARK    6  A    between atoms: C8_22  and  N7_23 
REMARK    7  A    between atoms: N7_23  and  N8_25 
ROOT
HETATM    1  C4  UNL     1      16.706  48.674 -54.168  1.00  0.00     0.728 A 
HETATM    2  N5  UNL     1      15.722  49.464 -53.758  1.00  0.00    -0.167 N 
ATOM      3  H5  UNL     1      15.222  49.974 -54.486  1.00  0.00     0.186 HD
HETATM    4  C5  UNL     1      15.311  49.671 -52.514  1.00  0.00     0.164 A 
HETATM    5  S1  UNL     1      16.208  48.772 -51.348  1.00  0.00    -0.015 SA
HETATM    6  C8  UNL     1      17.432  47.812 -52.068  1.00  0.00     0.181 A 
HETATM    7  N9  UNL     1      17.481  47.925 -53.400  1.00  0.00    -0.166 N 
ATOM      8  H9  UNL     1      18.194  47.373 -53.876  1.00  0.00     0.186 HD
ENDROOT
BRANCH   1   9
HETATM    9  N1  UNL     1      16.932  48.646 -55.595  1.00  0.00     0.130 N 
HETATM   10  C2  UNL     1      15.935  48.943 -56.540  1.00  0.00     0.738 C 
HETATM   11  N2  UNL     1      14.874  48.215 -56.594  1.00  0.00    -0.230 N 
HETATM   12  N3  UNL     1      16.035  50.023 -57.459  1.00  0.00    -0.084 N 
ATOM     13  H22 UNL     1      14.803  47.440 -55.935  1.00  0.00     0.174 HD
ATOM     14  H21 UNL     1      14.151  48.431 -57.280  1.00  0.00     0.174 HD
ATOM     15  H3  UNL     1      16.963  50.310 -57.769  1.00  0.00     0.214 HD
BRANCH   9  16
HETATM   16  O1  UNL     1      18.161  48.319 -56.084  1.00  0.00    -0.251 OA
HETATM   17  C1  UNL     1      19.008  49.394 -55.821  1.00  0.00     0.239 C 
ENDBRANCH   9  16
BRANCH  12  18
HETATM   18  O2  UNL     1      14.962  50.690 -57.943  1.00  0.00    -0.169 OA
BRANCH  18  19
HETATM   19  C3  UNL     1      15.082  51.411 -59.122  1.00  0.00     0.395 C 
HETATM   20  N4  UNL     1      15.443  52.787 -59.135  1.00  0.00    -0.031 NA
HETATM   21  O3  UNL     1      14.871  50.861 -60.245  1.00  0.00    -0.240 OA
ENDBRANCH  18  19
ENDBRANCH  12  18
ENDBRANCH   1   9
BRANCH   4  22
HETATM   22  N6  UNL     1      14.254  50.529 -52.144  1.00  0.00    -0.370 N 
HETATM   23  C6  UNL     1      14.459  51.950 -52.120  1.00  0.00     0.151 C 
HETATM   24  C7  UNL     1      12.975  49.978 -51.793  1.00  0.00     0.151 C 
ENDBRANCH   4  22
BRANCH   6  25
HETATM   25  N7  UNL     1      18.237  47.048 -51.384  1.00  0.00    -0.286 N 
ATOM     26  H7  UNL     1      17.907  46.485 -50.601  1.00  0.00     0.188 HD
BRANCH  25  27
HETATM   27  N8  UNL     1      19.567  47.043 -51.779  1.00  0.00    -0.343 N 
ATOM     28  H82 UNL     1      19.821  47.123 -52.763  1.00  0.00     0.176 HD
ATOM     29  H81 UNL     1      20.261  46.955 -51.036  1.00  0.00     0.176 HD
ENDBRANCH  25  27
ENDBRANCH   6  25
TORSDOF 7
ENDMDL
MODEL 5
REMARK VINA RESULT: -6.530294032      2.244      3.701
REMARK  7 active torsions:
REMARK  status: ('A' for Active; 'I' for Inactive)
REMARK    1  A    between atoms: O1_2  and  N1_3 
REMARK       I    between atoms: N1_3  and  C2_4 
REMARK    2  A    between atoms: N1_3  and  C4_14 
REMARK       I    between atoms: C2_4  and  N3_8 
REMARK    3  A    between atoms: N3_8  and  O2_10 
REMARK    4  A    between atoms: O2_10  and  C3_11 
REMARK    5  A    between atoms: C5_17  and  N6_18 
REMARK    6  A    between atoms: C8_22  and  N7_23 
REMARK    7  A    between atoms: N7_23  and  N8_25 
ROOT
HETATM    1  C4  UNL     1      16.307  49.238 -54.202  1.00  0.00     0.728 A 
HETATM    2  N5  UNL     1      16.982  48.837 -53.132  1.00  0.00    -0.167 N 
ATOM      3  H5  UNL     1      17.945  49.166 -53.059  1.00  0.00     0.186 HD
HETATM    4  C5  UNL     1      16.555  48.061 -52.145  1.00  0.00     0.164 A 
HETATM    5  S1  UNL     1      14.919  47.552 -52.346  1.00  0.00    -0.015 SA
HETATM    6  C8  UNL     1      14.218  48.169 -53.782  1.00  0.00     0.181 A 
HETATM    7  N9  UNL     1      15.054  48.934 -54.496  1.00  0.00    -0.166 N 
ATOM      8  H9  UNL     1      14.683  49.325 -55.361  1.00  0.00     0.186 HD
ENDROOT
BRANCH   1   9
HETATM    9  N1  UNL     1      17.034  50.086 -55.119  1.00  0.00     0.130 N 
HETATM   10  C2  UNL     1      16.892  50.013 -56.515  1.00  0.00     0.738 C 
HETATM   11  N2  UNL     1      17.197  48.922 -57.129  1.00  0.00    -0.230 N 
HETATM   12  N3  UNL     1      16.423  51.098 -57.305  1.00  0.00    -0.084 N 
ATOM     13  H22 UNL     1      17.533  48.144 -56.562  1.00  0.00     0.174 HD
ATOM     14  H21 UNL     1      17.094  48.870 -58.142  1.00  0.00     0.174 HD
ATOM     15  H3  UNL     1      16.609  52.047 -56.982  1.00  0.00     0.214 HD
BRANCH   9  16
HETATM   16  O1  UNL     1      17.908  51.014 -54.640  1.00  0.00    -0.251 OA
HETATM   17  C1  UNL     1      17.152  52.079 -54.152  1.00  0.00     0.239 C 
ENDBRANCH   9  16
BRANCH  12  18
HETATM   18  O2  UNL     1      15.743  50.936 -58.463  1.00  0.00    -0.169 OA
BRANCH  18  19
HETATM   19  C3  UNL     1      15.737  51.960 -59.400  1.00  0.00     0.395 C 
HETATM   20  N4  UNL     1      16.591  51.950 -60.538  1.00  0.00    -0.031 NA
HETATM   21  O3  UNL     1      14.960  52.954 -59.271  1.00  0.00    -0.240 OA
ENDBRANCH  18  19
ENDBRANCH  12  18
ENDBRANCH   1   9
BRANCH   4  22
HETATM   22  N6  UNL     1      17.328  47.672 -51.031  1.00  0.00    -0.370 N 
HETATM   23  C6  UNL     1      16.739  47.655 -49.721  1.00  0.00     0.151 C 
HETATM   24  C7  UNL     1      18.701  47.293 -51.210  1.00  0.00     0.151 C 
ENDBRANCH   4  22
BRANCH   6  25
HETATM   25  N7  UNL     1      12.992  47.918 -54.145  1.00  0.00    -0.286 N 
ATOM     26  H7  UNL     1      12.772  47.520 -55.058  1.00  0.00     0.188 HD
BRANCH  25  27
HETATM   27  N8  UNL     1      12.001  48.220 -53.222  1.00  0.00    -0.343 N 
ATOM     28  H82 UNL     1      11.622  47.501 -52.606  1.00  0.00     0.176 HD
ATOM     29  H81 UNL     1      11.682  49.189 -53.198  1.00  0.00     0.176 HD
ENDBRANCH  25  27
ENDBRANCH   6  25
TORSDOF 7
ENDMDL
