MODEL 1
REMARK VINA RESULT: -7.994338258      0.000      0.000
REMARK  11 active torsions:
REMARK  status: ('A' for Active; 'I' for Inactive)
REMARK    1  A    between atoms: C2_3  and  O1_4 
REMARK    2  A    between atoms: C2_3  and  C3_6 
REMARK    3  A    between atoms: C3_6  and  N2_7 
REMARK    4  A    between atoms: C3_6  and  C4_11 
REMARK    5  A    between atoms: C4_11  and  S1_12 
REMARK    6  A    between atoms: S1_12  and  C5_13 
REMARK    7  A    between atoms: C5_13  and  C6_14 
REMARK    8  A    between atoms: C6_14  and  N3_15 
REMARK    9  A    between atoms: N3_15  and  C7_17 
REMARK   10  A    between atoms: C8_20  and  N5_21 
REMARK   11  A    between atoms: C12_31  and  N8_32 
ROOT
HETATM    1  N1  UNL     1      36.407  49.299  18.070  1.00  0.00    -0.194 NA
HETATM    2  C1  UNL     1      36.597  50.411  18.293  1.00  0.00     0.093 C 
HETATM    3  C2  UNL     1      36.841  51.797  18.602  1.00  0.00     0.255 C 
ENDROOT
BRANCH   3   4
HETATM    4  O1  UNL     1      38.166  51.891  19.072  1.00  0.00    -0.379 OA
ATOM      5  H1  UNL     1      38.549  52.666  18.680  1.00  0.00     0.211 HD
ENDBRANCH   3   4
BRANCH   3   6
HETATM    6  C3  UNL     1      36.726  52.736  17.439  1.00  0.00     0.235 C 
BRANCH   6   7
HETATM    7  N2  UNL     1      35.570  52.269  16.655  1.00  0.00    -0.071 N 
ATOM      8  H23 UNL     1      35.442  51.257  16.683  1.00  0.00     0.274 HD
ATOM      9  H22 UNL     1      34.671  52.519  17.065  1.00  0.00     0.274 HD
ATOM     10  H21 UNL     1      35.704  52.636  15.713  1.00  0.00     0.274 HD
ENDBRANCH   6   7
BRANCH   6  11
HETATM   11  C4  UNL     1      37.888  52.755  16.511  1.00  0.00     0.110 C 
BRANCH  11  12
HETATM   12  S1  UNL     1      38.391  54.362  15.919  1.00  0.00    -0.165 SA
BRANCH  12  13
HETATM   13  C5  UNL     1      38.028  55.688  17.101  1.00  0.00     0.094 C 
BRANCH  13  14
HETATM   14  C6  UNL     1      37.336  56.853  16.433  1.00  0.00     0.148 C 
BRANCH  14  15
HETATM   15  N3  UNL     1      37.055  57.931  17.320  1.00  0.00    -0.224 N 
ATOM     16  H3  UNL     1      36.222  58.480  17.114  1.00  0.00     0.177 HD
BRANCH  15  17
HETATM   17  C7  UNL     1      37.734  58.289  18.351  1.00  0.00     0.714 A 
HETATM   18  N4  UNL     1      38.963  58.832  18.226  1.00  0.00    -0.021 N 
HETATM   19  C8  UNL     1      39.661  59.200  19.310  1.00  0.00     0.705 A 
ATOM     20  H4  UNL     1      39.365  58.964  17.298  1.00  0.00     0.203 HD
HETATM   21  N6  UNL     1      39.095  59.009  20.513  1.00  0.00    -0.021 N 
HETATM   22  C9  UNL     1      37.858  58.463  20.642  1.00  0.00     0.719 A 
ATOM     23  H6  UNL     1      39.608  59.281  21.352  1.00  0.00     0.203 HD
HETATM   24  N7  UNL     1      37.092  58.177  21.722  1.00  0.00    -0.188 N 
HETATM   25  N10 UNL     1      37.147  58.089  19.564  1.00  0.00     0.026 N 
HETATM   26  C10 UNL     1      35.924  57.634  21.344  1.00  0.00     0.080 A 
ATOM     27  H7  UNL     1      37.365  58.350  22.689  1.00  0.00     0.184 HD
HETATM   28  C11 UNL     1      34.806  57.170  22.027  1.00  0.00     0.070 A 
HETATM   29  C15 UNL     1      35.956  57.576  19.946  1.00  0.00     0.104 A 
HETATM   30  C12 UNL     1      33.738  56.657  21.329  1.00  0.00     0.129 A 
HETATM   31  C13 UNL     1      33.795  56.611  19.953  1.00  0.00     0.081 A 
HETATM   32  N9  UNL     1      32.666  56.071  19.262  1.00  0.00    -0.100 NA
HETATM   33  C14 UNL     1      34.888  57.063  19.242  1.00  0.00     0.062 A 
BRANCH  19  34
HETATM   34  N5  UNL     1      40.850  59.726  19.210  1.00  0.00    -0.234 N 
ATOM     35  H52 UNL     1      41.180  60.103  18.321  1.00  0.00     0.174 HD
ATOM     36  H51 UNL     1      41.480  59.776  20.010  1.00  0.00     0.174 HD
ENDBRANCH  19  34
BRANCH  30  37
HETATM   37  N8  UNL     1      32.585  56.178  22.045  1.00  0.00    -0.114 N 
HETATM   38  O2  UNL     1      31.556  56.844  22.189  1.00  0.00    -0.532 OA
HETATM   39  O3  UNL     1      32.665  54.917  22.579  1.00  0.00    -0.532 OA
ENDBRANCH  30  37
ENDBRANCH  15  17
ENDBRANCH  14  15
ENDBRANCH  13  14
ENDBRANCH  12  13
ENDBRANCH  11  12
ENDBRANCH   6  11
ENDBRANCH   3   6
TORSDOF 11
ENDMDL
MODEL 2
REMARK VINA RESULT: -7.896958060      2.977      6.530
REMARK  11 active torsions:
REMARK  status: ('A' for Active; 'I' for Inactive)
REMARK    1  A    between atoms: C2_3  and  O1_4 
REMARK    2  A    between atoms: C2_3  and  C3_6 
REMARK    3  A    between atoms: C3_6  and  N2_7 
REMARK    4  A    between atoms: C3_6  and  C4_11 
REMARK    5  A    between atoms: C4_11  and  S1_12 
REMARK    6  A    between atoms: S1_12  and  C5_13 
REMARK    7  A    between atoms: C5_13  and  C6_14 
REMARK    8  A    between atoms: C6_14  and  N3_15 
REMARK    9  A    between atoms: N3_15  and  C7_17 
REMARK   10  A    between atoms: C8_20  and  N5_21 
REMARK   11  A    between atoms: C12_31  and  N8_32 
ROOT
HETATM    1  N1  UNL     1      34.948  54.904  16.947  1.00  0.00    -0.194 NA
HETATM    2  C1  UNL     1      34.820  55.647  17.815  1.00  0.00     0.093 C 
HETATM    3  C2  UNL     1      34.629  56.570  18.905  1.00  0.00     0.255 C 
ENDROOT
BRANCH   3   4
HETATM    4  O1  UNL     1      34.096  55.836  19.983  1.00  0.00    -0.379 OA
ATOM      5  H1  UNL     1      34.079  56.415  20.736  1.00  0.00     0.211 HD
ENDBRANCH   3   4
BRANCH   3   6
HETATM    6  C3  UNL     1      35.879  57.230  19.404  1.00  0.00     0.235 C 
BRANCH   6   7
HETATM    7  N2  UNL     1      35.626  57.562  20.816  1.00  0.00    -0.071 N 
ATOM      8  H23 UNL     1      36.402  58.049  21.266  1.00  0.00     0.274 HD
ATOM      9  H22 UNL     1      34.930  58.296  20.944  1.00  0.00     0.274 HD
ATOM     10  H21 UNL     1      35.378  56.683  21.271  1.00  0.00     0.274 HD
ENDBRANCH   6   7
BRANCH   6  11
HETATM   11  C4  UNL     1      36.246  58.503  18.729  1.00  0.00     0.110 C 
BRANCH  11  12
HETATM   12  S1  UNL     1      37.796  58.502  17.843  1.00  0.00    -0.165 SA
BRANCH  12  13
HETATM   13  C5  UNL     1      38.159  56.902  17.073  1.00  0.00     0.094 C 
BRANCH  13  14
HETATM   14  C6  UNL     1      39.622  56.544  17.198  1.00  0.00     0.148 C 
BRANCH  14  15
HETATM   15  N3  UNL     1      40.018  55.470  16.352  1.00  0.00    -0.224 N 
ATOM     16  H3  UNL     1      40.796  54.899  16.680  1.00  0.00     0.177 HD
BRANCH  15  17
HETATM   17  C7  UNL     1      39.506  55.140  15.221  1.00  0.00     0.714 A 
HETATM   18  N4  UNL     1      39.829  55.798  14.087  1.00  0.00    -0.021 N 
HETATM   19  C8  UNL     1      39.286  55.444  12.913  1.00  0.00     0.705 A 
ATOM     20  H4  UNL     1      40.491  56.573  14.124  1.00  0.00     0.203 HD
HETATM   21  N6  UNL     1      38.418  54.419  12.909  1.00  0.00    -0.021 N 
HETATM   22  C9  UNL     1      38.093  53.754  14.048  1.00  0.00     0.719 A 
ATOM     23  H6  UNL     1      37.993  54.132  12.028  1.00  0.00     0.203 HD
HETATM   24  N7  UNL     1      37.263  52.712  14.294  1.00  0.00    -0.188 N 
HETATM   25  N10 UNL     1      38.628  54.098  15.232  1.00  0.00     0.026 N 
HETATM   26  C10 UNL     1      37.268  52.399  15.599  1.00  0.00     0.080 A 
ATOM     27  H7  UNL     1      36.711  52.230  13.585  1.00  0.00     0.184 HD
HETATM   28  C11 UNL     1      36.619  51.442  16.368  1.00  0.00     0.070 A 
HETATM   29  C15 UNL     1      38.153  53.296  16.210  1.00  0.00     0.104 A 
HETATM   30  C12 UNL     1      36.845  51.377  17.723  1.00  0.00     0.129 A 
HETATM   31  C13 UNL     1      37.721  52.272  18.300  1.00  0.00     0.081 A 
HETATM   32  N9  UNL     1      37.931  52.175  19.710  1.00  0.00    -0.100 NA
HETATM   33  C14 UNL     1      38.384  53.236  17.567  1.00  0.00     0.062 A 
BRANCH  19  34
HETATM   34  N5  UNL     1      39.584  56.068  11.808  1.00  0.00    -0.234 N 
ATOM     35  H52 UNL     1      40.392  56.689  11.762  1.00  0.00     0.174 HD
ATOM     36  H51 UNL     1      39.024  55.954  10.963  1.00  0.00     0.174 HD
ENDBRANCH  19  34
BRANCH  30  37
HETATM   37  N8  UNL     1      36.168  50.382  18.511  1.00  0.00    -0.114 N 
HETATM   38  O2  UNL     1      35.006  50.511  18.907  1.00  0.00    -0.532 OA
HETATM   39  O3  UNL     1      36.874  49.248  18.819  1.00  0.00    -0.532 OA
ENDBRANCH  30  37
ENDBRANCH  15  17
ENDBRANCH  14  15
ENDBRANCH  13  14
ENDBRANCH  12  13
ENDBRANCH  11  12
ENDBRANCH   6  11
ENDBRANCH   3   6
TORSDOF 11
ENDMDL
MODEL 3
REMARK VINA RESULT: -7.774034782      1.345      1.536
REMARK  11 active torsions:
REMARK  status: ('A' for Active; 'I' for Inactive)
REMARK    1  A    between atoms: C2_3  and  O1_4 
REMARK    2  A    between atoms: C2_3  and  C3_6 
REMARK    3  A    between atoms: C3_6  and  N2_7 
REMARK    4  A    between atoms: C3_6  and  C4_11 
REMARK    5  A    between atoms: C4_11  and  S1_12 
REMARK    6  A    between atoms: S1_12  and  C5_13 
REMARK    7  A    between atoms: C5_13  and  C6_14 
REMARK    8  A    between atoms: C6_14  and  N3_15 
REMARK    9  A    between atoms: N3_15  and  C7_17 
REMARK   10  A    between atoms: C8_20  and  N5_21 
REMARK   11  A    between atoms: C12_31  and  N8_32 
ROOT
HETATM    1  N1  UNL     1      35.298  50.826  18.504  1.00  0.00    -0.194 NA
HETATM    2  C1  UNL     1      36.214  51.353  18.050  1.00  0.00     0.093 C 
HETATM    3  C2  UNL     1      37.377  51.985  17.480  1.00  0.00     0.255 C 
ENDROOT
BRANCH   3   4
HETATM    4  O1  UNL     1      37.654  51.328  16.266  1.00  0.00    -0.379 OA
ATOM      5  H1  UNL     1      37.169  50.512  16.270  1.00  0.00     0.211 HD
ENDBRANCH   3   4
BRANCH   3   6
HETATM    6  C3  UNL     1      37.214  53.441  17.159  1.00  0.00     0.235 C 
BRANCH   6   7
HETATM    7  N2  UNL     1      35.768  53.658  16.985  1.00  0.00    -0.071 N 
ATOM      8  H23 UNL     1      35.543  54.330  16.251  1.00  0.00     0.274 HD
ATOM      9  H22 UNL     1      35.283  52.860  16.574  1.00  0.00     0.274 HD
ATOM     10  H21 UNL     1      35.411  53.921  17.903  1.00  0.00     0.274 HD
ENDBRANCH   6   7
BRANCH   6  11
HETATM   11  C4  UNL     1      37.865  53.898  15.904  1.00  0.00     0.110 C 
BRANCH  11  12
HETATM   12  S1  UNL     1      38.839  55.390  16.025  1.00  0.00    -0.165 SA
BRANCH  12  13
HETATM   13  C5  UNL     1      38.046  56.661  17.046  1.00  0.00     0.094 C 
BRANCH  13  14
HETATM   14  C6  UNL     1      39.065  57.475  17.809  1.00  0.00     0.148 C 
BRANCH  14  15
HETATM   15  N3  UNL     1      38.488  58.511  18.597  1.00  0.00    -0.224 N 
ATOM     16  H3  UNL     1      37.707  59.015  18.179  1.00  0.00     0.177 HD
BRANCH  15  17
HETATM   17  C7  UNL     1      38.841  58.882  19.775  1.00  0.00     0.714 A 
HETATM   18  N4  UNL     1      40.029  59.485  19.993  1.00  0.00    -0.021 N 
HETATM   19  C8  UNL     1      40.386  59.866  21.228  1.00  0.00     0.705 A 
ATOM     20  H4  UNL     1      40.662  59.651  19.210  1.00  0.00     0.203 HD
HETATM   21  N6  UNL     1      39.525  59.628  22.230  1.00  0.00    -0.021 N 
HETATM   22  C9  UNL     1      38.328  59.022  22.014  1.00  0.00     0.719 A 
ATOM     23  H6  UNL     1      39.775  59.909  23.178  1.00  0.00     0.203 HD
HETATM   24  N7  UNL     1      37.312  58.682  22.842  1.00  0.00    -0.188 N 
HETATM   25  N10 UNL     1      37.957  58.634  20.781  1.00  0.00     0.026 N 
HETATM   26  C10 UNL     1      36.319  58.092  22.159  1.00  0.00     0.080 A 
ATOM     27  H7  UNL     1      37.302  58.851  23.848  1.00  0.00     0.184 HD
HETATM   28  C11 UNL     1      35.083  57.565  22.508  1.00  0.00     0.070 A 
HETATM   29  C15 UNL     1      36.734  58.060  20.822  1.00  0.00     0.104 A 
HETATM   30  C12 UNL     1      34.272  57.014  21.544  1.00  0.00     0.129 A 
HETATM   31  C13 UNL     1      34.704  56.995  20.235  1.00  0.00     0.081 A 
HETATM   32  N9  UNL     1      33.834  56.414  19.261  1.00  0.00    -0.100 NA
HETATM   33  C14 UNL     1      35.925  57.510  19.851  1.00  0.00     0.062 A 
BRANCH  19  34
HETATM   34  N5  UNL     1      41.530  60.449  21.458  1.00  0.00    -0.234 N 
ATOM     35  H52 UNL     1      42.079  60.211  22.284  1.00  0.00     0.174 HD
ATOM     36  H51 UNL     1      41.907  61.153  20.824  1.00  0.00     0.174 HD
ENDBRANCH  19  34
BRANCH  30  37
HETATM   37  N8  UNL     1      32.993  56.469  21.916  1.00  0.00    -0.114 N 
HETATM   38  O2  UNL     1      31.954  57.136  21.929  1.00  0.00    -0.532 OA
HETATM   39  O3  UNL     1      32.960  55.144  22.265  1.00  0.00    -0.532 OA
ENDBRANCH  30  37
ENDBRANCH  15  17
ENDBRANCH  14  15
ENDBRANCH  13  14
ENDBRANCH  12  13
ENDBRANCH  11  12
ENDBRANCH   6  11
ENDBRANCH   3   6
TORSDOF 11
ENDMDL
MODEL 4
REMARK VINA RESULT: -7.773685218      2.983      4.952
REMARK  11 active torsions:
REMARK  status: ('A' for Active; 'I' for Inactive)
REMARK    1  A    between atoms: C2_3  and  O1_4 
REMARK    2  A    between atoms: C2_3  and  C3_6 
REMARK    3  A    between atoms: C3_6  and  N2_7 
REMARK    4  A    between atoms: C3_6  and  C4_11 
REMARK    5  A    between atoms: C4_11  and  S1_12 
REMARK    6  A    between atoms: S1_12  and  C5_13 
REMARK    7  A    between atoms: C5_13  and  C6_14 
REMARK    8  A    between atoms: C6_14  and  N3_15 
REMARK    9  A    between atoms: N3_15  and  C7_17 
REMARK   10  A    between atoms: C8_20  and  N5_21 
REMARK   11  A    between atoms: C12_31  and  N8_32 
ROOT
HETATM    1  N1  UNL     1      36.396  49.169  18.055  1.00  0.00    -0.194 NA
HETATM    2  C1  UNL     1      36.573  50.279  18.301  1.00  0.00     0.093 C 
HETATM    3  C2  UNL     1      36.799  51.661  18.639  1.00  0.00     0.255 C 
ENDROOT
BRANCH   3   4
HETATM    4  O1  UNL     1      38.045  51.732  19.290  1.00  0.00    -0.379 OA
ATOM      5  H1  UNL     1      37.872  51.822  20.220  1.00  0.00     0.211 HD
ENDBRANCH   3   4
BRANCH   3   6
HETATM    6  C3  UNL     1      36.865  52.598  17.470  1.00  0.00     0.235 C 
BRANCH   6   7
HETATM    7  N2  UNL     1      35.577  52.461  16.769  1.00  0.00    -0.071 N 
ATOM      8  H23 UNL     1      34.774  52.428  17.396  1.00  0.00     0.274 HD
ATOM      9  H22 UNL     1      35.301  53.300  16.258  1.00  0.00     0.274 HD
ATOM     10  H21 UNL     1      35.667  51.636  16.177  1.00  0.00     0.274 HD
ENDBRANCH   6   7
BRANCH   6  11
HETATM   11  C4  UNL     1      37.925  52.302  16.470  1.00  0.00     0.110 C 
BRANCH  11  12
HETATM   12  S1  UNL     1      38.217  53.563  15.241  1.00  0.00    -0.165 SA
BRANCH  12  13
HETATM   13  C5  UNL     1      38.665  55.161  15.971  1.00  0.00     0.094 C 
BRANCH  13  14
HETATM   14  C6  UNL     1      37.448  56.025  16.206  1.00  0.00     0.148 C 
BRANCH  14  15
HETATM   15  N3  UNL     1      37.124  56.188  17.582  1.00  0.00    -0.224 N 
ATOM     16  H3  UNL     1      37.836  55.898  18.252  1.00  0.00     0.177 HD
BRANCH  15  17
HETATM   17  C7  UNL     1      36.035  56.658  18.076  1.00  0.00     0.714 A 
HETATM   18  N4  UNL     1      34.850  56.049  17.865  1.00  0.00    -0.021 N 
HETATM   19  C8  UNL     1      33.721  56.551  18.386  1.00  0.00     0.705 A 
ATOM     20  H4  UNL     1      34.812  55.197  17.304  1.00  0.00     0.203 HD
HETATM   21  N6  UNL     1      33.814  57.673  19.118  1.00  0.00    -0.021 N 
HETATM   22  C9  UNL     1      35.006  58.289  19.332  1.00  0.00     0.719 A 
ATOM     23  H6  UNL     1      32.968  58.073  19.523  1.00  0.00     0.203 HD
HETATM   24  N7  UNL     1      35.349  59.404  20.020  1.00  0.00    -0.188 N 
HETATM   25  N10 UNL     1      36.146  57.797  18.817  1.00  0.00     0.026 N 
HETATM   26  C10 UNL     1      36.671  59.619  19.945  1.00  0.00     0.080 A 
ATOM     27  H7  UNL     1      34.693  59.999  20.526  1.00  0.00     0.184 HD
HETATM   28  C11 UNL     1      37.525  60.591  20.453  1.00  0.00     0.070 A 
HETATM   29  C15 UNL     1      37.191  58.578  19.166  1.00  0.00     0.104 A 
HETATM   30  C12 UNL     1      38.873  60.528  20.190  1.00  0.00     0.129 A 
HETATM   31  C13 UNL     1      39.359  59.493  19.420  1.00  0.00     0.081 A 
HETATM   32  N9  UNL     1      40.766  59.462  19.169  1.00  0.00    -0.100 NA
HETATM   33  C14 UNL     1      38.542  58.511  18.900  1.00  0.00     0.062 A 
BRANCH  19  34
HETATM   34  N5  UNL     1      32.566  55.977  18.192  1.00  0.00    -0.234 N 
ATOM     35  H52 UNL     1      32.359  55.069  18.609  1.00  0.00     0.174 HD
ATOM     36  H51 UNL     1      31.841  56.415  17.624  1.00  0.00     0.174 HD
ENDBRANCH  19  34
BRANCH  30  37
HETATM   37  N8  UNL     1      39.749  61.540  20.720  1.00  0.00    -0.114 N 
HETATM   38  O2  UNL     1      40.018  62.582  20.118  1.00  0.00    -0.532 OA
HETATM   39  O3  UNL     1      40.293  61.304  21.957  1.00  0.00    -0.532 OA
ENDBRANCH  30  37
ENDBRANCH  15  17
ENDBRANCH  14  15
ENDBRANCH  13  14
ENDBRANCH  12  13
ENDBRANCH  11  12
ENDBRANCH   6  11
ENDBRANCH   3   6
TORSDOF 11
ENDMDL
MODEL 5
REMARK VINA RESULT: -7.763508791      3.615      5.929
REMARK  11 active torsions:
REMARK  status: ('A' for Active; 'I' for Inactive)
REMARK    1  A    between atoms: C2_3  and  O1_4 
REMARK    2  A    between atoms: C2_3  and  C3_6 
REMARK    3  A    between atoms: C3_6  and  N2_7 
REMARK    4  A    between atoms: C3_6  and  C4_11 
REMARK    5  A    between atoms: C4_11  and  S1_12 
REMARK    6  A    between atoms: S1_12  and  C5_13 
REMARK    7  A    between atoms: C5_13  and  C6_14 
REMARK    8  A    between atoms: C6_14  and  N3_15 
REMARK    9  A    between atoms: N3_15  and  C7_17 
REMARK   10  A    between atoms: C8_20  and  N5_21 
REMARK   11  A    between atoms: C12_31  and  N8_32 
ROOT
HETATM    1  N1  UNL     1      35.297  50.713  18.449  1.00  0.00    -0.194 NA
HETATM    2  C1  UNL     1      36.184  51.316  18.033  1.00  0.00     0.093 C 
HETATM    3  C2  UNL     1      37.310  52.045  17.507  1.00  0.00     0.255 C 
ENDROOT
BRANCH   3   4
HETATM    4  O1  UNL     1      37.563  51.544  16.215  1.00  0.00    -0.379 OA
ATOM      5  H1  UNL     1      38.210  52.113  15.814  1.00  0.00     0.211 HD
ENDBRANCH   3   4
BRANCH   3   6
HETATM    6  C3  UNL     1      37.100  53.523  17.367  1.00  0.00     0.235 C 
BRANCH   6   7
HETATM    7  N2  UNL     1      35.685  53.698  16.999  1.00  0.00    -0.071 N 
ATOM      8  H23 UNL     1      35.036  53.407  17.731  1.00  0.00     0.274 HD
ATOM      9  H22 UNL     1      35.393  54.674  16.955  1.00  0.00     0.274 HD
ATOM     10  H21 UNL     1      35.560  53.196  16.120  1.00  0.00     0.274 HD
ENDBRANCH   6   7
BRANCH   6  11
HETATM   11  C4  UNL     1      37.899  54.186  16.303  1.00  0.00     0.110 C 
BRANCH  11  12
HETATM   12  S1  UNL     1      38.476  55.836  16.669  1.00  0.00    -0.165 SA
BRANCH  12  13
HETATM   13  C5  UNL     1      37.120  56.993  16.998  1.00  0.00     0.094 C 
BRANCH  13  14
HETATM   14  C6  UNL     1      37.636  58.361  17.376  1.00  0.00     0.148 C 
BRANCH  14  15
HETATM   15  N3  UNL     1      37.689  58.579  18.782  1.00  0.00    -0.224 N 
ATOM     16  H3  UNL     1      38.056  57.813  19.345  1.00  0.00     0.177 HD
BRANCH  15  17
HETATM   17  C7  UNL     1      37.326  59.633  19.421  1.00  0.00     0.714 A 
HETATM   18  N4  UNL     1      36.058  60.091  19.354  1.00  0.00    -0.021 N 
HETATM   19  C8  UNL     1      35.692  61.192  20.026  1.00  0.00     0.705 A 
ATOM     20  H4  UNL     1      35.371  59.593  18.787  1.00  0.00     0.203 HD
HETATM   21  N6  UNL     1      36.628  61.817  20.760  1.00  0.00    -0.021 N 
HETATM   22  C9  UNL     1      37.905  61.358  20.829  1.00  0.00     0.719 A 
ATOM     23  H6  UNL     1      36.373  62.657  21.279  1.00  0.00     0.203 HD
HETATM   24  N7  UNL     1      39.002  61.803  21.487  1.00  0.00    -0.188 N 
HETATM   25  N10 UNL     1      38.285  60.255  20.162  1.00  0.00     0.026 N 
HETATM   26  C10 UNL     1      40.055  61.007  21.246  1.00  0.00     0.080 A 
ATOM     27  H7  UNL     1      39.025  62.630  22.085  1.00  0.00     0.184 HD
HETATM   28  C11 UNL     1      41.382  61.005  21.657  1.00  0.00     0.070 A 
HETATM   29  C15 UNL     1      39.593  60.002  20.387  1.00  0.00     0.104 A 
HETATM   30  C12 UNL     1      42.236  60.020  21.220  1.00  0.00     0.129 A 
HETATM   31  C13 UNL     1      41.757  59.042  20.375  1.00  0.00     0.081 A 
HETATM   32  N9  UNL     1      42.674  58.035  19.943  1.00  0.00    -0.100 NA
HETATM   33  C14 UNL     1      40.445  59.012  19.947  1.00  0.00     0.062 A 
BRANCH  19  34
HETATM   34  N5  UNL     1      34.472  61.651  19.973  1.00  0.00    -0.234 N 
ATOM     35  H52 UNL     1      33.698  61.115  20.365  1.00  0.00     0.174 HD
ATOM     36  H51 UNL     1      34.259  62.550  19.542  1.00  0.00     0.174 HD
ENDBRANCH  19  34
BRANCH  30  37
HETATM   37  N8  UNL     1      43.609  60.027  21.651  1.00  0.00    -0.114 N 
HETATM   38  O2  UNL     1      44.444  60.835  21.233  1.00  0.00    -0.532 OA
HETATM   39  O3  UNL     1      43.976  59.079  22.571  1.00  0.00    -0.532 OA
ENDBRANCH  30  37
ENDBRANCH  15  17
ENDBRANCH  14  15
ENDBRANCH  13  14
ENDBRANCH  12  13
ENDBRANCH  11  12
ENDBRANCH   6  11
ENDBRANCH   3   6
TORSDOF 11
ENDMDL
