MODEL 1
REMARK VINA RESULT: -9.995650303      0.000      0.000
REMARK  11 active torsions:
REMARK  status: ('A' for Active; 'I' for Inactive)
REMARK    1  A    between atoms: N1_2  and  C2_5 
REMARK    2  A    between atoms: C2_5  and  C3_6 
REMARK    3  A    between atoms: C6_9  and  C7_10 
REMARK    4  A    between atoms: C7_10  and  S1_11 
REMARK    5  A    between atoms: S1_11  and  C8_12 
REMARK    6  A    between atoms: C9_17  and  N4_18 
REMARK    7  A    between atoms: N4_18  and  N5_20 
REMARK    8  A    between atoms: N7_25  and  N8_26 
REMARK    9  A    between atoms: N8_26  and  C10_28 
REMARK   10  A    between atoms: C12_34  and  N11_35 
REMARK   11  A    between atoms: C14_41  and  O3_42 
ROOT
HETATM    1  C8  UNL     1      38.098  54.077  16.481  1.00  0.00     0.199 A 
HETATM    2  N2  UNL     1      38.605  52.916  16.830  1.00  0.00    -0.263 N 
ATOM      3  H2  UNL     1      39.607  52.764  16.705  1.00  0.00     0.189 HD
HETATM    4  N3  UNL     1      37.838  51.884  17.363  1.00  0.00    -0.127 N 
ATOM      5  H3  UNL     1      38.286  51.004  17.618  1.00  0.00     0.205 HD
HETATM    6  C9  UNL     1      36.437  52.041  17.556  1.00  0.00     0.732 A 
HETATM    7  N6  UNL     1      35.940  53.172  17.214  1.00  0.00    -0.105 N 
ATOM      8  H6  UNL     1      34.938  53.322  17.336  1.00  0.00     0.208 HD
HETATM    9  N7  UNL     1      36.714  54.211  16.681  1.00  0.00    -0.142 N 
ENDROOT
BRANCH   1  10
HETATM   10  S1  UNL     1      39.205  55.262  15.820  1.00  0.00    -0.085 SA
BRANCH  10  11
HETATM   11  C7  UNL     1      40.368  54.705  14.583  1.00  0.00     0.121 C 
BRANCH  11  12
HETATM   12  C6  UNL     1      39.642  53.916  13.529  1.00  0.00    -0.046 A 
HETATM   13  C5  UNL     1      39.090  54.404  12.398  1.00  0.00     0.009 A 
HETATM   14  C4  UNL     1      38.419  53.600  11.471  1.00  0.00     0.012 A 
HETATM   15  C3  UNL     1      38.292  52.251  11.685  1.00  0.00     0.000 A 
HETATM   16  C14 UNL     1      38.853  51.745  12.838  1.00  0.00     0.074 A 
HETATM   17  C13 UNL     1      39.510  52.531  13.746  1.00  0.00     0.045 A 
BRANCH  15  18
HETATM   18  C2  UNL     1      37.588  51.356  10.732  1.00  0.00     0.273 C 
BRANCH  18  19
HETATM   19  N1  UNL     1      36.500  50.645  11.378  1.00  0.00    -0.075 N 
HETATM   20  C1  UNL     1      35.278  51.398  11.345  1.00  0.00     0.267 C 
ATOM     21  H12 UNL     1      36.746  50.376  12.331  1.00  0.00     0.277 HD
ATOM     22  H11 UNL     1      36.375  49.715  10.977  1.00  0.00     0.277 HD
ENDBRANCH  18  19
ENDBRANCH  15  18
BRANCH  16  23
HETATM   23  O3  UNL     1      38.732  50.365  13.071  1.00  0.00    -0.360 OA
ATOM     24  H3  UNL     1      39.450  49.806  12.796  1.00  0.00     0.217 HD
ENDBRANCH  16  23
ENDBRANCH  11  12
ENDBRANCH  10  11
ENDBRANCH   1  10
BRANCH   9  25
HETATM   25  N8  UNL     1      36.048  55.403  16.413  1.00  0.00    -0.107 N 
ATOM     26  H8  UNL     1      35.860  55.684  15.451  1.00  0.00     0.208 HD
BRANCH  25  27
HETATM   27  C10 UNL     1      35.672  56.145  17.392  1.00  0.00     0.714 A 
HETATM   28  N9  UNL     1      36.382  57.193  17.832  1.00  0.00    -0.185 N 
HETATM   29  C11 UNL     1      35.942  57.955  18.878  1.00  0.00     0.215 A 
ATOM     30  H9  UNL     1      37.266  57.426  17.379  1.00  0.00     0.185 HD
HETATM   31  N10 UNL     1      34.792  57.663  19.479  1.00  0.00    -0.187 N 
HETATM   32  C12 UNL     1      34.079  56.613  19.040  1.00  0.00     0.691 A 
ATOM     33  H10 UNL     1      34.457  58.228  20.260  1.00  0.00     0.185 HD
HETATM   34  N12 UNL     1      34.513  55.860  18.007  1.00  0.00    -0.021 N 
ATOM     35  H12 UNL     1      33.956  55.067  17.690  1.00  0.00     0.203 HD
BRANCH  32  36
HETATM   36  N11 UNL     1      32.971  56.316  19.606  1.00  0.00    -0.234 N 
ATOM     37 2H11 UNL     1      32.746  56.733  20.510  1.00  0.00     0.174 HD
ATOM     38 1H11 UNL     1      32.327  55.670  19.151  1.00  0.00     0.174 HD
ENDBRANCH  32  36
ENDBRANCH  25  27
ENDBRANCH   9  25
BRANCH   6  39
HETATM   39  N4  UNL     1      35.697  50.958  18.102  1.00  0.00    -0.069 N 
ATOM     40  H4  UNL     1      34.678  50.996  18.085  1.00  0.00     0.212 HD
BRANCH  39  41
HETATM   41  N5  UNL     1      36.326  49.842  18.662  1.00  0.00    -0.024 N 
HETATM   42  O1  UNL     1      36.440  48.823  17.946  1.00  0.00    -0.516 OA
HETATM   43  O2  UNL     1      36.810  49.838  19.952  1.00  0.00    -0.516 OA
ENDBRANCH  39  41
ENDBRANCH   6  39
TORSDOF 11
ENDMDL
MODEL 2
REMARK VINA RESULT: -9.980977444      0.491      1.100
REMARK  11 active torsions:
REMARK  status: ('A' for Active; 'I' for Inactive)
REMARK    1  A    between atoms: N1_2  and  C2_5 
REMARK    2  A    between atoms: C2_5  and  C3_6 
REMARK    3  A    between atoms: C6_9  and  C7_10 
REMARK    4  A    between atoms: C7_10  and  S1_11 
REMARK    5  A    between atoms: S1_11  and  C8_12 
REMARK    6  A    between atoms: C9_17  and  N4_18 
REMARK    7  A    between atoms: N4_18  and  N5_20 
REMARK    8  A    between atoms: N7_25  and  N8_26 
REMARK    9  A    between atoms: N8_26  and  C10_28 
REMARK   10  A    between atoms: C12_34  and  N11_35 
REMARK   11  A    between atoms: C14_41  and  O3_42 
ROOT
HETATM    1  C8  UNL     1      38.015  54.076  16.569  1.00  0.00     0.199 A 
HETATM    2  N2  UNL     1      38.537  52.909  16.874  1.00  0.00    -0.263 N 
ATOM      3  H2  UNL     1      39.530  52.757  16.693  1.00  0.00     0.189 HD
HETATM    4  N3  UNL     1      37.798  51.871  17.433  1.00  0.00    -0.127 N 
ATOM      5  H3  UNL     1      38.257  50.987  17.652  1.00  0.00     0.205 HD
HETATM    6  C9  UNL     1      36.410  52.027  17.703  1.00  0.00     0.732 A 
HETATM    7  N6  UNL     1      35.897  53.164  17.404  1.00  0.00    -0.105 N 
ATOM      8  H6  UNL     1      34.903  53.314  17.582  1.00  0.00     0.208 HD
HETATM    9  N7  UNL     1      36.643  54.209  16.844  1.00  0.00    -0.142 N 
ENDROOT
BRANCH   1  10
HETATM   10  S1  UNL     1      39.087  55.267  15.865  1.00  0.00    -0.085 SA
BRANCH  10  11
HETATM   11  C7  UNL     1      40.284  54.696  14.667  1.00  0.00     0.121 C 
BRANCH  11  12
HETATM   12  C6  UNL     1      39.585  53.911  13.593  1.00  0.00    -0.046 A 
HETATM   13  C5  UNL     1      39.030  54.408  12.466  1.00  0.00     0.009 A 
HETATM   14  C4  UNL     1      38.386  53.607  11.519  1.00  0.00     0.012 A 
HETATM   15  C3  UNL     1      38.289  52.252  11.705  1.00  0.00     0.000 A 
HETATM   16  C14 UNL     1      38.852  51.736  12.853  1.00  0.00     0.074 A 
HETATM   17  C13 UNL     1      39.484  52.519  13.781  1.00  0.00     0.045 A 
BRANCH  15  18
HETATM   18  C2  UNL     1      37.613  51.360  10.730  1.00  0.00     0.273 C 
BRANCH  18  19
HETATM   19  N1  UNL     1      36.527  50.624  11.348  1.00  0.00    -0.075 N 
HETATM   20  C1  UNL     1      35.316  51.395  11.385  1.00  0.00     0.267 C 
ATOM     21  H12 UNL     1      36.784  50.291  12.277  1.00  0.00     0.277 HD
ATOM     22  H11 UNL     1      36.380  49.724  10.891  1.00  0.00     0.277 HD
ENDBRANCH  18  19
ENDBRANCH  15  18
BRANCH  16  23
HETATM   23  O3  UNL     1      38.762  50.349  13.057  1.00  0.00    -0.360 OA
ATOM     24  H3  UNL     1      38.423  50.048  13.892  1.00  0.00     0.217 HD
ENDBRANCH  16  23
ENDBRANCH  11  12
ENDBRANCH  10  11
ENDBRANCH   1  10
BRANCH   9  25
HETATM   25  N8  UNL     1      35.967  55.405  16.629  1.00  0.00    -0.107 N 
ATOM     26  H8  UNL     1      35.924  55.813  15.695  1.00  0.00     0.208 HD
BRANCH  25  27
HETATM   27  C10 UNL     1      35.397  55.991  17.621  1.00  0.00     0.714 A 
HETATM   28  N9  UNL     1      34.067  56.037  17.779  1.00  0.00    -0.185 N 
HETATM   29  C11 UNL     1      33.505  56.672  18.850  1.00  0.00     0.215 A 
ATOM     30  H9  UNL     1      33.464  55.591  17.088  1.00  0.00     0.185 HD
HETATM   31  N10 UNL     1      34.279  57.258  19.760  1.00  0.00    -0.187 N 
HETATM   32  C12 UNL     1      35.613  57.214  19.603  1.00  0.00     0.691 A 
ATOM     33  H10 UNL     1      33.866  57.734  20.563  1.00  0.00     0.185 HD
HETATM   34  N12 UNL     1      36.168  56.587  18.544  1.00  0.00    -0.021 N 
ATOM     35  H12 UNL     1      37.182  56.565  18.445  1.00  0.00     0.203 HD
BRANCH  32  36
HETATM   36  N11 UNL     1      36.372  57.773  20.467  1.00  0.00    -0.234 N 
ATOM     37 2H11 UNL     1      36.041  58.604  20.958  1.00  0.00     0.174 HD
ATOM     38 1H11 UNL     1      37.296  57.385  20.655  1.00  0.00     0.174 HD
ENDBRANCH  32  36
ENDBRANCH  25  27
ENDBRANCH   9  25
BRANCH   6  39
HETATM   39  N4  UNL     1      35.697  50.939  18.274  1.00  0.00    -0.069 N 
ATOM     40  H4  UNL     1      34.681  50.991  18.340  1.00  0.00     0.212 HD
BRANCH  39  41
HETATM   41  N5  UNL     1      36.350  49.797  18.748  1.00  0.00    -0.024 N 
HETATM   42  O1  UNL     1      36.554  48.867  17.936  1.00  0.00    -0.516 OA
HETATM   43  O2  UNL     1      36.763  49.673  20.057  1.00  0.00    -0.516 OA
ENDBRANCH  39  41
ENDBRANCH   6  39
TORSDOF 11
ENDMDL
MODEL 3
REMARK VINA RESULT: -9.777291178      1.044      1.340
REMARK  11 active torsions:
REMARK  status: ('A' for Active; 'I' for Inactive)
REMARK    1  A    between atoms: N1_2  and  C2_5 
REMARK    2  A    between atoms: C2_5  and  C3_6 
REMARK    3  A    between atoms: C6_9  and  C7_10 
REMARK    4  A    between atoms: C7_10  and  S1_11 
REMARK    5  A    between atoms: S1_11  and  C8_12 
REMARK    6  A    between atoms: C9_17  and  N4_18 
REMARK    7  A    between atoms: N4_18  and  N5_20 
REMARK    8  A    between atoms: N7_25  and  N8_26 
REMARK    9  A    between atoms: N8_26  and  C10_28 
REMARK   10  A    between atoms: C12_34  and  N11_35 
REMARK   11  A    between atoms: C14_41  and  O3_42 
ROOT
HETATM    1  C8  UNL     1      38.139  54.076  16.475  1.00  0.00     0.199 A 
HETATM    2  N2  UNL     1      38.637  52.907  16.812  1.00  0.00    -0.263 N 
ATOM      3  H2  UNL     1      39.636  52.747  16.680  1.00  0.00     0.189 HD
HETATM    4  N3  UNL     1      37.863  51.879  17.341  1.00  0.00    -0.127 N 
ATOM      5  H3  UNL     1      38.304  50.993  17.587  1.00  0.00     0.205 HD
HETATM    6  C9  UNL     1      36.465  52.048  17.543  1.00  0.00     0.732 A 
HETATM    7  N6  UNL     1      35.976  53.187  17.213  1.00  0.00    -0.105 N 
ATOM      8  H6  UNL     1      34.977  53.345  17.342  1.00  0.00     0.208 HD
HETATM    9  N7  UNL     1      36.757  54.222  16.684  1.00  0.00    -0.142 N 
ENDROOT
BRANCH   1  10
HETATM   10  S1  UNL     1      39.254  55.255  15.816  1.00  0.00    -0.085 SA
BRANCH  10  11
HETATM   11  C7  UNL     1      40.426  54.690  14.592  1.00  0.00     0.121 C 
BRANCH  11  12
HETATM   12  C6  UNL     1      39.696  53.966  13.495  1.00  0.00    -0.046 A 
HETATM   13  C5  UNL     1      39.266  52.686  13.525  1.00  0.00     0.009 A 
HETATM   14  C4  UNL     1      38.603  52.082  12.452  1.00  0.00     0.012 A 
HETATM   15  C3  UNL     1      38.360  52.785  11.301  1.00  0.00     0.000 A 
HETATM   16  C14 UNL     1      38.796  54.092  11.262  1.00  0.00     0.074 A 
HETATM   17  C13 UNL     1      39.445  54.685  12.311  1.00  0.00     0.045 A 
BRANCH  15  18
HETATM   18  C2  UNL     1      37.661  52.188  10.135  1.00  0.00     0.273 C 
BRANCH  18  19
HETATM   19  N1  UNL     1      36.886  51.024  10.521  1.00  0.00    -0.075 N 
HETATM   20  C1  UNL     1      35.603  51.391  11.051  1.00  0.00     0.267 C 
ATOM     21  H12 UNL     1      37.403  50.432  11.173  1.00  0.00     0.277 HD
ATOM     22  H11 UNL     1      36.794  50.365   9.747  1.00  0.00     0.277 HD
ENDBRANCH  18  19
ENDBRANCH  15  18
BRANCH  16  23
HETATM   23  O3  UNL     1      38.554  54.826  10.088  1.00  0.00    -0.360 OA
ATOM     24  H3  UNL     1      38.122  55.668  10.176  1.00  0.00     0.217 HD
ENDBRANCH  16  23
ENDBRANCH  11  12
ENDBRANCH  10  11
ENDBRANCH   1  10
BRANCH   9  25
HETATM   25  N8  UNL     1      36.101  55.422  16.429  1.00  0.00    -0.107 N 
ATOM     26  H8  UNL     1      35.919  55.717  15.470  1.00  0.00     0.208 HD
BRANCH  25  27
HETATM   27  C10 UNL     1      35.728  56.155  17.417  1.00  0.00     0.714 A 
HETATM   28  N9  UNL     1      36.452  57.181  17.883  1.00  0.00    -0.185 N 
HETATM   29  C11 UNL     1      36.014  57.933  18.936  1.00  0.00     0.215 A 
ATOM     30  H9  UNL     1      37.345  57.405  17.445  1.00  0.00     0.185 HD
HETATM   31  N10 UNL     1      34.851  57.653  19.519  1.00  0.00    -0.187 N 
HETATM   32  C12 UNL     1      34.123  56.624  19.053  1.00  0.00     0.691 A 
ATOM     33  H10 UNL     1      34.517  58.211  20.306  1.00  0.00     0.185 HD
HETATM   34  N12 UNL     1      34.556  55.881  18.012  1.00  0.00    -0.021 N 
ATOM     35  H12 UNL     1      33.989  55.105  17.675  1.00  0.00     0.203 HD
BRANCH  32  36
HETATM   36  N11 UNL     1      33.004  56.339  19.601  1.00  0.00    -0.234 N 
ATOM     37 2H11 UNL     1      32.992  55.752  20.435  1.00  0.00     0.174 HD
ATOM     38 1H11 UNL     1      32.138  56.700  19.201  1.00  0.00     0.174 HD
ENDBRANCH  32  36
ENDBRANCH  25  27
ENDBRANCH   9  25
BRANCH   6  39
HETATM   39  N4  UNL     1      35.717  50.968  18.085  1.00  0.00    -0.069 N 
ATOM     40  H4  UNL     1      34.698  51.014  18.071  1.00  0.00     0.212 HD
BRANCH  39  41
HETATM   41  N5  UNL     1      36.339  49.845  18.639  1.00  0.00    -0.024 N 
HETATM   42  O1  UNL     1      36.454  48.831  17.915  1.00  0.00    -0.516 OA
HETATM   43  O2  UNL     1      36.815  49.827  19.932  1.00  0.00    -0.516 OA
ENDBRANCH  39  41
ENDBRANCH   6  39
TORSDOF 11
ENDMDL
MODEL 4
REMARK VINA RESULT: -9.738149476      1.155      1.740
REMARK  11 active torsions:
REMARK  status: ('A' for Active; 'I' for Inactive)
REMARK    1  A    between atoms: N1_2  and  C2_5 
REMARK    2  A    between atoms: C2_5  and  C3_6 
REMARK    3  A    between atoms: C6_9  and  C7_10 
REMARK    4  A    between atoms: C7_10  and  S1_11 
REMARK    5  A    between atoms: S1_11  and  C8_12 
REMARK    6  A    between atoms: C9_17  and  N4_18 
REMARK    7  A    between atoms: N4_18  and  N5_20 
REMARK    8  A    between atoms: N7_25  and  N8_26 
REMARK    9  A    between atoms: N8_26  and  C10_28 
REMARK   10  A    between atoms: C12_34  and  N11_35 
REMARK   11  A    between atoms: C14_41  and  O3_42 
ROOT
HETATM    1  C8  UNL     1      38.050  54.111  16.573  1.00  0.00     0.199 A 
HETATM    2  N2  UNL     1      38.558  52.932  16.852  1.00  0.00    -0.263 N 
ATOM      3  H2  UNL     1      39.548  52.770  16.662  1.00  0.00     0.189 HD
HETATM    4  N3  UNL     1      37.808  51.893  17.395  1.00  0.00    -0.127 N 
ATOM      5  H3  UNL     1      38.256  50.999  17.594  1.00  0.00     0.205 HD
HETATM    6  C9  UNL     1      36.424  52.063  17.676  1.00  0.00     0.732 A 
HETATM    7  N6  UNL     1      35.924  53.212  17.402  1.00  0.00    -0.105 N 
ATOM      8  H6  UNL     1      34.934  53.371  17.588  1.00  0.00     0.208 HD
HETATM    9  N7  UNL     1      36.682  54.258  16.858  1.00  0.00    -0.142 N 
ENDROOT
BRANCH   1  10
HETATM   10  S1  UNL     1      39.134  55.302  15.886  1.00  0.00    -0.085 SA
BRANCH  10  11
HETATM   11  C7  UNL     1      40.347  54.731  14.704  1.00  0.00     0.121 C 
BRANCH  11  12
HETATM   12  C6  UNL     1      39.655  54.003  13.585  1.00  0.00    -0.046 A 
HETATM   13  C5  UNL     1      39.254  52.713  13.593  1.00  0.00     0.009 A 
HETATM   14  C4  UNL     1      38.625  52.106  12.502  1.00  0.00     0.012 A 
HETATM   15  C3  UNL     1      38.386  52.818  11.354  1.00  0.00     0.000 A 
HETATM   16  C14 UNL     1      38.792  54.135  11.338  1.00  0.00     0.074 A 
HETATM   17  C13 UNL     1      39.408  54.731  12.405  1.00  0.00     0.045 A 
BRANCH  15  18
HETATM   18  C2  UNL     1      37.723  52.218  10.169  1.00  0.00     0.273 C 
BRANCH  18  19
HETATM   19  N1  UNL     1      36.946  51.048  10.531  1.00  0.00    -0.075 N 
HETATM   20  C1  UNL     1      35.659  51.405  11.057  1.00  0.00     0.267 C 
ATOM     21  H12 UNL     1      37.458  50.447  11.178  1.00  0.00     0.277 HD
ATOM     22  H11 UNL     1      36.861  50.401   9.747  1.00  0.00     0.277 HD
ENDBRANCH  18  19
ENDBRANCH  15  18
BRANCH  16  23
HETATM   23  O3  UNL     1      38.553  54.877  10.169  1.00  0.00    -0.360 OA
ATOM     24  H3  UNL     1      38.923  55.751  10.118  1.00  0.00     0.217 HD
ENDBRANCH  16  23
ENDBRANCH  11  12
ENDBRANCH  10  11
ENDBRANCH   1  10
BRANCH   9  25
HETATM   25  N8  UNL     1      36.020  55.467  16.670  1.00  0.00    -0.107 N 
ATOM     26  H8  UNL     1      35.985  55.897  15.746  1.00  0.00     0.208 HD
BRANCH  25  27
HETATM   27  C10 UNL     1      35.454  56.035  17.674  1.00  0.00     0.714 A 
HETATM   28  N9  UNL     1      34.126  56.058  17.850  1.00  0.00    -0.185 N 
HETATM   29  C11 UNL     1      33.569  56.674  18.934  1.00  0.00     0.215 A 
ATOM     30  H9  UNL     1      33.521  55.607  17.164  1.00  0.00     0.185 HD
HETATM   31  N10 UNL     1      34.345  57.267  19.839  1.00  0.00    -0.187 N 
HETATM   32  C12 UNL     1      35.677  57.245  19.663  1.00  0.00     0.691 A 
ATOM     33  H10 UNL     1      33.935  57.729  20.651  1.00  0.00     0.185 HD
HETATM   34  N12 UNL     1      36.227  56.636  18.592  1.00  0.00    -0.021 N 
ATOM     35  H12 UNL     1      37.240  56.632  18.479  1.00  0.00     0.203 HD
BRANCH  32  36
HETATM   36  N11 UNL     1      36.438  57.811  20.521  1.00  0.00    -0.234 N 
ATOM     37 2H11 UNL     1      37.443  57.636  20.487  1.00  0.00     0.174 HD
ATOM     38 1H11 UNL     1      36.036  58.427  21.226  1.00  0.00     0.174 HD
ENDBRANCH  32  36
ENDBRANCH  25  27
ENDBRANCH   9  25
BRANCH   6  39
HETATM   39  N4  UNL     1      35.700  50.973  18.230  1.00  0.00    -0.069 N 
ATOM     40  H4  UNL     1      34.681  51.020  18.264  1.00  0.00     0.212 HD
BRANCH  39  41
HETATM   41  N5  UNL     1      36.344  49.836  18.728  1.00  0.00    -0.024 N 
HETATM   42  O1  UNL     1      36.542  48.889  17.935  1.00  0.00    -0.516 OA
HETATM   43  O2  UNL     1      36.754  49.737  20.040  1.00  0.00    -0.516 OA
ENDBRANCH  39  41
ENDBRANCH   6  39
TORSDOF 11
ENDMDL
MODEL 5
REMARK VINA RESULT: -9.339183715      1.624      1.894
REMARK  11 active torsions:
REMARK  status: ('A' for Active; 'I' for Inactive)
REMARK    1  A    between atoms: N1_2  and  C2_5 
REMARK    2  A    between atoms: C2_5  and  C3_6 
REMARK    3  A    between atoms: C6_9  and  C7_10 
REMARK    4  A    between atoms: C7_10  and  S1_11 
REMARK    5  A    between atoms: S1_11  and  C8_12 
REMARK    6  A    between atoms: C9_17  and  N4_18 
REMARK    7  A    between atoms: N4_18  and  N5_20 
REMARK    8  A    between atoms: N7_25  and  N8_26 
REMARK    9  A    between atoms: N8_26  and  C10_28 
REMARK   10  A    between atoms: C12_34  and  N11_35 
REMARK   11  A    between atoms: C14_41  and  O3_42 
ROOT
HETATM    1  C8  UNL     1      38.348  53.920  16.170  1.00  0.00     0.199 A 
HETATM    2  N2  UNL     1      38.707  52.705  16.520  1.00  0.00    -0.263 N 
ATOM      3  H2  UNL     1      39.664  52.405  16.332  1.00  0.00     0.189 HD
HETATM    4  N3  UNL     1      37.839  51.807  17.135  1.00  0.00    -0.127 N 
ATOM      5  H3  UNL     1      38.172  50.877  17.387  1.00  0.00     0.205 HD
HETATM    6  C9  UNL     1      36.492  52.171  17.416  1.00  0.00     0.732 A 
HETATM    7  N6  UNL     1      36.140  53.355  17.074  1.00  0.00    -0.105 N 
ATOM      8  H6  UNL     1      35.181  53.652  17.258  1.00  0.00     0.208 HD
HETATM    9  N7  UNL     1      37.015  54.259  16.458  1.00  0.00    -0.142 N 
ENDROOT
BRANCH   1  10
HETATM   10  S1  UNL     1      39.565  54.916  15.399  1.00  0.00    -0.085 SA
BRANCH  10  11
HETATM   11  C7  UNL     1      39.123  55.723  13.867  1.00  0.00     0.121 C 
BRANCH  11  12
HETATM   12  C6  UNL     1      38.650  54.696  12.876  1.00  0.00    -0.046 A 
HETATM   13  C5  UNL     1      37.761  53.706  13.107  1.00  0.00     0.009 A 
HETATM   14  C4  UNL     1      37.382  52.781  12.129  1.00  0.00     0.012 A 
HETATM   15  C3  UNL     1      37.916  52.847  10.868  1.00  0.00     0.000 A 
HETATM   16  C14 UNL     1      38.824  53.854  10.623  1.00  0.00     0.074 A 
HETATM   17  C13 UNL     1      39.196  54.761  11.579  1.00  0.00     0.045 A 
BRANCH  15  18
HETATM   18  C2  UNL     1      37.546  51.887   9.796  1.00  0.00     0.273 C 
BRANCH  18  19
HETATM   19  N1  UNL     1      36.904  50.706  10.341  1.00  0.00    -0.075 N 
HETATM   20  C1  UNL     1      37.844  49.643  10.560  1.00  0.00     0.267 C 
ATOM     21  H12 UNL     1      36.128  50.400   9.753  1.00  0.00     0.277 HD
ATOM     22  H11 UNL     1      36.385  50.924  11.191  1.00  0.00     0.277 HD
ENDBRANCH  18  19
ENDBRANCH  15  18
BRANCH  16  23
HETATM   23  O3  UNL     1      39.378  53.935   9.335  1.00  0.00    -0.360 OA
ATOM     24  H3  UNL     1      40.301  54.150   9.264  1.00  0.00     0.217 HD
ENDBRANCH  16  23
ENDBRANCH  11  12
ENDBRANCH  10  11
ENDBRANCH   1  10
BRANCH   9  25
HETATM   25  N8  UNL     1      36.511  55.529  16.199  1.00  0.00    -0.107 N 
ATOM     26  H8  UNL     1      35.956  55.702  15.360  1.00  0.00     0.208 HD
BRANCH  25  27
HETATM   27  C10 UNL     1      36.752  56.481  17.028  1.00  0.00     0.714 A 
HETATM   28  N9  UNL     1      37.520  57.537  16.728  1.00  0.00    -0.185 N 
HETATM   29  C11 UNL     1      37.749  58.526  17.642  1.00  0.00     0.215 A 
ATOM     30  H9  UNL     1      37.942  57.604  15.801  1.00  0.00     0.185 HD
HETATM   31  N10 UNL     1      37.206  58.453  18.855  1.00  0.00    -0.187 N 
HETATM   32  C12 UNL     1      36.435  57.395  19.157  1.00  0.00     0.691 A 
ATOM     33  H10 UNL     1      37.372  59.188  19.543  1.00  0.00     0.185 HD
HETATM   34  N12 UNL     1      36.210  56.417  18.254  1.00  0.00    -0.021 N 
ATOM     35  H12 UNL     1      35.623  55.623  18.505  1.00  0.00     0.203 HD
BRANCH  32  36
HETATM   36  N11 UNL     1      35.906  57.306  20.318  1.00  0.00    -0.234 N 
ATOM     37 2H11 UNL     1      35.252  56.548  20.512  1.00  0.00     0.174 HD
ATOM     38 1H11 UNL     1      36.143  57.991  21.036  1.00  0.00     0.174 HD
ENDBRANCH  32  36
ENDBRANCH  25  27
ENDBRANCH   9  25
BRANCH   6  39
HETATM   39  N4  UNL     1      35.645  51.220  18.045  1.00  0.00    -0.069 N 
ATOM     40  H4  UNL     1      34.638  51.386  18.060  1.00  0.00     0.212 HD
BRANCH  39  41
HETATM   41  N5  UNL     1      36.150  50.062  18.643  1.00  0.00    -0.024 N 
HETATM   42  O1  UNL     1      36.467  49.113  17.892  1.00  0.00    -0.516 OA
HETATM   43  O2  UNL     1      36.304  49.943  20.007  1.00  0.00    -0.516 OA
ENDBRANCH  39  41
ENDBRANCH   6  39
TORSDOF 11
ENDMDL
