MODEL 1
REMARK VINA RESULT: -8.920031391      0.000      0.000
REMARK  10 active torsions:
REMARK  status: ('A' for Active; 'I' for Inactive)
REMARK    1  A    between atoms: C3_3  and  O1_4 
REMARK    2  A    between atoms: C4_7  and  C5_8 
REMARK    3  A    between atoms: C7_15  and  C8_16 
REMARK    4  A    between atoms: C8_16  and  C9_18 
REMARK    5  A    between atoms: C9_18  and  N4_19 
REMARK    6  A    between atoms: C9_18  and  C12_33 
REMARK       I    between atoms: N4_19  and  C10_21 
REMARK       I    between atoms: C10_21  and  N5_23 
REMARK    7  A    between atoms: N5_23  and  N6_25 
REMARK    8  A    between atoms: N6_25  and  N7_27 
REMARK    9  A    between atoms: N7_27  and  O6_31 
REMARK   10  A    between atoms: C15_38  and  O7_39 
ROOT
HETATM    1  C5  UNL     1      37.079  54.014  16.738  1.00  0.00     0.274 C 
HETATM    2  C6  UNL     1      37.594  53.270  17.884  1.00  0.00     0.119 C 
HETATM    3  N1  UNL     1      38.010  52.680  18.787  1.00  0.00    -0.193 NA
HETATM    4  N2  UNL     1      35.636  53.947  16.623  1.00  0.00    -0.017 NA
HETATM    5  O3  UNL     1      34.986  54.862  17.362  1.00  0.00    -0.159 OA
HETATM    6  N3  UNL     1      35.466  56.101  17.650  1.00  0.00    -0.226 N 
ATOM      7  H3  UNL     1      34.839  56.798  18.054  1.00  0.00     0.198 HD
HETATM    8  C7  UNL     1      36.686  56.413  17.426  1.00  0.00     0.174 C 
HETATM    9  N9  UNL     1      37.502  55.400  16.839  1.00  0.00    -0.330 N 
ATOM     10  H9  UNL     1      38.419  55.659  16.475  1.00  0.00     0.164 HD
ENDROOT
BRANCH   1  11
HETATM   11  C4  UNL     1      37.640  53.401  15.479  1.00  0.00     0.151 A 
HETATM   12  O2  UNL     1      38.050  52.140  15.344  1.00  0.00    -0.284 OA
HETATM   13  C3  UNL     1      38.479  51.928  14.127  1.00  0.00     0.192 A 
HETATM   14  C2  UNL     1      38.358  53.089  13.404  1.00  0.00     0.032 A 
HETATM   15  C1  UNL     1      38.702  53.365  11.981  1.00  0.00     0.056 C 
HETATM   16  C15 UNL     1      37.818  54.038  14.272  1.00  0.00     0.111 A 
BRANCH  13  17
HETATM   17  O1  UNL     1      38.990  50.725  13.603  1.00  0.00    -0.340 OA
ATOM     18  H1  UNL     1      39.704  50.237  13.995  1.00  0.00     0.220 HD
ENDBRANCH  13  17
BRANCH  16  19
HETATM   19  O7  UNL     1      37.540  55.334  13.941  1.00  0.00    -0.357 OA
ATOM     20  H7  UNL     1      37.710  56.087  14.496  1.00  0.00     0.217 HD
ENDBRANCH  16  19
ENDBRANCH   1  11
BRANCH   8  21
HETATM   21  C8  UNL     1      37.261  57.710  17.711  1.00  0.00     0.217 C 
HETATM   22  O4  UNL     1      37.283  58.554  16.743  1.00  0.00    -0.287 OA
BRANCH  21  23
HETATM   23  C9  UNL     1      37.820  58.172  18.994  1.00  0.00     0.167 C 
BRANCH  23  24
HETATM   24  N4  UNL     1      36.667  58.570  19.799  1.00  0.00    -0.329 N 
HETATM   25  C10 UNL     1      36.072  57.845  20.825  1.00  0.00     0.338 C 
HETATM   26  O5  UNL     1      36.443  56.723  21.236  1.00  0.00    -0.245 OA
HETATM   27  N5  UNL     1      34.924  58.398  21.504  1.00  0.00    -0.230 N 
HETATM   28  C11 UNL     1      34.340  57.635  22.590  1.00  0.00     0.184 C 
ATOM     29  H4  UNL     1      36.254  59.477  19.585  1.00  0.00     0.165 HD
BRANCH  27  30
HETATM   30  N6  UNL     1      34.379  59.591  21.113  1.00  0.00    -0.195 N 
ATOM     31  H6  UNL     1      34.866  60.447  21.376  1.00  0.00     0.213 HD
BRANCH  30  32
HETATM   32  N7  UNL     1      33.226  59.709  20.394  1.00  0.00    -0.086 N 
HETATM   33  N8  UNL     1      32.389  60.604  20.509  1.00  0.00    -0.302 N 
ATOM     34  H82 UNL     1      32.586  61.317  21.212  1.00  0.00     0.181 HD
ATOM     35  H81 UNL     1      31.527  60.693  19.971  1.00  0.00     0.181 HD
BRANCH  32  36
HETATM   36  O6  UNL     1      32.957  58.730  19.429  1.00  0.00    -0.253 OA
ATOM     37  H6  UNL     1      32.706  59.023  18.560  1.00  0.00     0.248 HD
ENDBRANCH  32  36
ENDBRANCH  30  32
ENDBRANCH  27  30
ENDBRANCH  23  24
BRANCH  23  38
HETATM   38  C12 UNL     1      38.778  59.329  18.861  1.00  0.00     0.008 C 
HETATM   39  C13 UNL     1      40.233  58.978  18.978  1.00  0.00     0.012 C 
HETATM   40  C14 UNL     1      38.533  60.276  20.056  1.00  0.00     0.012 C 
ENDBRANCH  23  38
ENDBRANCH  21  23
ENDBRANCH   8  21
TORSDOF 10
ENDMDL
MODEL 2
REMARK VINA RESULT: -8.836009988      2.248      3.298
REMARK  10 active torsions:
REMARK  status: ('A' for Active; 'I' for Inactive)
REMARK    1  A    between atoms: C3_3  and  O1_4 
REMARK    2  A    between atoms: C4_7  and  C5_8 
REMARK    3  A    between atoms: C7_15  and  C8_16 
REMARK    4  A    between atoms: C8_16  and  C9_18 
REMARK    5  A    between atoms: C9_18  and  N4_19 
REMARK    6  A    between atoms: C9_18  and  C12_33 
REMARK       I    between atoms: N4_19  and  C10_21 
REMARK       I    between atoms: C10_21  and  N5_23 
REMARK    7  A    between atoms: N5_23  and  N6_25 
REMARK    8  A    between atoms: N6_25  and  N7_27 
REMARK    9  A    between atoms: N7_27  and  O6_31 
REMARK   10  A    between atoms: C15_38  and  O7_39 
ROOT
HETATM    1  C5  UNL     1      38.387  52.838  14.629  1.00  0.00     0.274 C 
HETATM    2  C6  UNL     1      39.673  53.433  14.275  1.00  0.00     0.119 C 
HETATM    3  N1  UNL     1      40.687  53.907  13.988  1.00  0.00    -0.193 NA
HETATM    4  N2  UNL     1      38.508  51.760  15.589  1.00  0.00    -0.017 NA
HETATM    5  O3  UNL     1      38.540  52.170  16.869  1.00  0.00    -0.159 OA
HETATM    6  N3  UNL     1      37.893  53.268  17.342  1.00  0.00    -0.226 N 
ATOM      7  H3  UNL     1      37.813  53.405  18.350  1.00  0.00     0.198 HD
HETATM    8  C7  UNL     1      37.384  54.135  16.551  1.00  0.00     0.174 C 
HETATM    9  N9  UNL     1      37.511  53.870  15.154  1.00  0.00    -0.330 N 
ATOM     10  H9  UNL     1      36.965  54.429  14.498  1.00  0.00     0.164 HD
ENDROOT
BRANCH   1  11
HETATM   11  C4  UNL     1      37.780  52.239  13.385  1.00  0.00     0.151 A 
HETATM   12  O2  UNL     1      36.692  52.685  12.758  1.00  0.00    -0.284 OA
HETATM   13  C3  UNL     1      36.433  51.944  11.712  1.00  0.00     0.192 A 
HETATM   14  C2  UNL     1      37.380  50.954  11.622  1.00  0.00     0.032 A 
HETATM   15  C1  UNL     1      37.528  49.866  10.615  1.00  0.00     0.056 C 
HETATM   16  C15 UNL     1      38.248  51.142  12.698  1.00  0.00     0.111 A 
BRANCH  13  17
HETATM   17  O1  UNL     1      35.370  52.100  10.802  1.00  0.00    -0.340 OA
ATOM     18  H1  UNL     1      34.577  52.588  10.991  1.00  0.00     0.220 HD
ENDBRANCH  13  17
BRANCH  16  19
HETATM   19  O7  UNL     1      39.335  50.361  12.973  1.00  0.00    -0.357 OA
ATOM     20  H7  UNL     1      39.388  49.732  13.684  1.00  0.00     0.217 HD
ENDBRANCH  16  19
ENDBRANCH   1  11
BRANCH   8  21
HETATM   21  C8  UNL     1      36.685  55.325  16.987  1.00  0.00     0.217 C 
HETATM   22  O4  UNL     1      35.511  55.512  16.503  1.00  0.00    -0.287 OA
BRANCH  21  23
HETATM   23  C9  UNL     1      37.173  56.345  17.932  1.00  0.00     0.167 C 
BRANCH  23  24
HETATM   24  N4  UNL     1      35.984  56.832  18.627  1.00  0.00    -0.329 N 
HETATM   25  C10 UNL     1      35.862  57.110  19.983  1.00  0.00     0.338 C 
HETATM   26  O5  UNL     1      36.769  56.996  20.837  1.00  0.00    -0.245 OA
HETATM   27  N5  UNL     1      34.593  57.574  20.495  1.00  0.00    -0.230 N 
HETATM   28  C11 UNL     1      34.500  57.885  21.908  1.00  0.00     0.184 C 
ATOM     29  H4  UNL     1      35.154  56.984  18.055  1.00  0.00     0.165 HD
BRANCH  27  30
HETATM   30  N6  UNL     1      33.500  57.684  19.679  1.00  0.00    -0.195 N 
ATOM     31  H6  UNL     1      33.212  58.620  19.391  1.00  0.00     0.213 HD
BRANCH  30  32
HETATM   32  N7  UNL     1      32.770  56.626  19.226  1.00  0.00    -0.086 N 
HETATM   33  N8  UNL     1      32.806  56.153  18.090  1.00  0.00    -0.302 N 
ATOM     34  H82 UNL     1      33.443  56.606  17.435  1.00  0.00     0.181 HD
ATOM     35  H81 UNL     1      32.260  55.361  17.752  1.00  0.00     0.181 HD
BRANCH  32  36
HETATM   36  O6  UNL     1      31.895  56.004  20.127  1.00  0.00    -0.253 OA
ATOM     37  H6  UNL     1      31.174  55.501  19.767  1.00  0.00     0.248 HD
ENDBRANCH  32  36
ENDBRANCH  30  32
ENDBRANCH  27  30
ENDBRANCH  23  24
BRANCH  23  38
HETATM   38  C12 UNL     1      37.890  57.495  17.272  1.00  0.00     0.008 C 
HETATM   39  C13 UNL     1      38.992  58.119  18.081  1.00  0.00     0.012 C 
HETATM   40  C14 UNL     1      36.871  58.641  17.098  1.00  0.00     0.012 C 
ENDBRANCH  23  38
ENDBRANCH  21  23
ENDBRANCH   8  21
TORSDOF 10
ENDMDL
MODEL 3
REMARK VINA RESULT: -8.807825538      0.921      1.005
REMARK  10 active torsions:
REMARK  status: ('A' for Active; 'I' for Inactive)
REMARK    1  A    between atoms: C3_3  and  O1_4 
REMARK    2  A    between atoms: C4_7  and  C5_8 
REMARK    3  A    between atoms: C7_15  and  C8_16 
REMARK    4  A    between atoms: C8_16  and  C9_18 
REMARK    5  A    between atoms: C9_18  and  N4_19 
REMARK    6  A    between atoms: C9_18  and  C12_33 
REMARK       I    between atoms: N4_19  and  C10_21 
REMARK       I    between atoms: C10_21  and  N5_23 
REMARK    7  A    between atoms: N5_23  and  N6_25 
REMARK    8  A    between atoms: N6_25  and  N7_27 
REMARK    9  A    between atoms: N7_27  and  O6_31 
REMARK   10  A    between atoms: C15_38  and  O7_39 
ROOT
HETATM    1  C5  UNL     1      37.065  53.746  16.670  1.00  0.00     0.274 C 
HETATM    2  C6  UNL     1      37.664  53.057  17.810  1.00  0.00     0.119 C 
HETATM    3  N1  UNL     1      38.145  52.511  18.708  1.00  0.00    -0.193 NA
HETATM    4  N2  UNL     1      35.631  53.560  16.587  1.00  0.00    -0.017 NA
HETATM    5  O3  UNL     1      34.924  54.425  17.334  1.00  0.00    -0.159 OA
HETATM    6  N3  UNL     1      35.306  55.702  17.602  1.00  0.00    -0.226 N 
ATOM      7  H3  UNL     1      34.633  56.348  18.014  1.00  0.00     0.198 HD
HETATM    8  C7  UNL     1      36.492  56.110  17.350  1.00  0.00     0.174 C 
HETATM    9  N9  UNL     1      37.375  55.162  16.752  1.00  0.00    -0.330 N 
ATOM     10  H9  UNL     1      38.260  55.493  16.367  1.00  0.00     0.164 HD
ENDROOT
BRANCH   1  11
HETATM   11  C4  UNL     1      37.648  53.169  15.404  1.00  0.00     0.151 A 
HETATM   12  O2  UNL     1      38.052  51.910  15.237  1.00  0.00    -0.284 OA
HETATM   13  C3  UNL     1      38.504  51.734  14.023  1.00  0.00     0.192 A 
HETATM   14  C2  UNL     1      38.408  52.919  13.336  1.00  0.00     0.032 A 
HETATM   15  C1  UNL     1      38.785  53.239  11.931  1.00  0.00     0.056 C 
HETATM   16  C15 UNL     1      37.857  53.844  14.223  1.00  0.00     0.111 A 
BRANCH  13  17
HETATM   17  O1  UNL     1      39.017  50.545  13.471  1.00  0.00    -0.340 OA
ATOM     18  H1  UNL     1      39.383  49.835  13.986  1.00  0.00     0.220 HD
ENDBRANCH  13  17
BRANCH  16  19
HETATM   19  O7  UNL     1      37.596  55.153  13.929  1.00  0.00    -0.357 OA
ATOM     20  H7  UNL     1      37.660  55.873  14.546  1.00  0.00     0.217 HD
ENDBRANCH  16  19
ENDBRANCH   1  11
BRANCH   8  21
HETATM   21  C8  UNL     1      36.964  57.453  17.612  1.00  0.00     0.217 C 
HETATM   22  O4  UNL     1      37.094  58.226  16.596  1.00  0.00    -0.287 OA
BRANCH  21  23
HETATM   23  C9  UNL     1      37.309  58.033  18.923  1.00  0.00     0.167 C 
BRANCH  23  24
HETATM   24  N4  UNL     1      36.048  58.525  19.473  1.00  0.00    -0.329 N 
HETATM   25  C10 UNL     1      35.190  57.850  20.334  1.00  0.00     0.338 C 
HETATM   26  O5  UNL     1      35.370  56.699  20.789  1.00  0.00    -0.245 OA
HETATM   27  N5  UNL     1      33.973  58.498  20.766  1.00  0.00    -0.230 N 
HETATM   28  C11 UNL     1      33.110  57.784  21.685  1.00  0.00     0.184 C 
ATOM     29  H4  UNL     1      35.767  59.465  19.196  1.00  0.00     0.165 HD
BRANCH  27  30
HETATM   30  N6  UNL     1      33.625  59.734  20.294  1.00  0.00    -0.195 N 
ATOM     31  H6  UNL     1      32.732  59.826  19.810  1.00  0.00     0.213 HD
BRANCH  30  32
HETATM   32  N7  UNL     1      34.395  60.851  20.427  1.00  0.00    -0.086 N 
HETATM   33  N8  UNL     1      34.684  61.411  21.484  1.00  0.00    -0.302 N 
ATOM     34  H82 UNL     1      34.304  60.992  22.333  1.00  0.00     0.181 HD
ATOM     35  H81 UNL     1      35.261  62.247  21.583  1.00  0.00     0.181 HD
BRANCH  32  36
HETATM   36  O6  UNL     1      34.916  61.426  19.260  1.00  0.00    -0.253 OA
ATOM     37  H6  UNL     1      35.861  61.497  19.186  1.00  0.00     0.248 HD
ENDBRANCH  32  36
ENDBRANCH  30  32
ENDBRANCH  27  30
ENDBRANCH  23  24
BRANCH  23  38
HETATM   38  C12 UNL     1      38.311  59.157  18.848  1.00  0.00     0.008 C 
HETATM   39  C13 UNL     1      39.752  58.744  18.937  1.00  0.00     0.012 C 
HETATM   40  C14 UNL     1      38.108  60.046  20.094  1.00  0.00     0.012 C 
ENDBRANCH  23  38
ENDBRANCH  21  23
ENDBRANCH   8  21
TORSDOF 10
ENDMDL
MODEL 4
REMARK VINA RESULT: -8.807780667      2.217      3.476
REMARK  10 active torsions:
REMARK  status: ('A' for Active; 'I' for Inactive)
REMARK    1  A    between atoms: C3_3  and  O1_4 
REMARK    2  A    between atoms: C4_7  and  C5_8 
REMARK    3  A    between atoms: C7_15  and  C8_16 
REMARK    4  A    between atoms: C8_16  and  C9_18 
REMARK    5  A    between atoms: C9_18  and  N4_19 
REMARK    6  A    between atoms: C9_18  and  C12_33 
REMARK       I    between atoms: N4_19  and  C10_21 
REMARK       I    between atoms: C10_21  and  N5_23 
REMARK    7  A    between atoms: N5_23  and  N6_25 
REMARK    8  A    between atoms: N6_25  and  N7_27 
REMARK    9  A    between atoms: N7_27  and  O6_31 
REMARK   10  A    between atoms: C15_38  and  O7_39 
ROOT
HETATM    1  C5  UNL     1      39.222  53.834  14.248  1.00  0.00     0.274 C 
HETATM    2  C6  UNL     1      40.508  54.499  14.442  1.00  0.00     0.119 C 
HETATM    3  N1  UNL     1      41.524  55.030  14.589  1.00  0.00    -0.193 NA
HETATM    4  N2  UNL     1      39.209  52.473  14.743  1.00  0.00    -0.017 NA
HETATM    5  O3  UNL     1      38.932  52.372  16.054  1.00  0.00    -0.159 OA
HETATM    6  N3  UNL     1      38.121  53.222  16.738  1.00  0.00    -0.226 N 
ATOM      7  H3  UNL     1      37.814  52.971  17.678  1.00  0.00     0.198 HD
HETATM    8  C7  UNL     1      37.735  54.330  16.228  1.00  0.00     0.174 C 
HETATM    9  N9  UNL     1      38.182  54.608  14.902  1.00  0.00    -0.330 N 
ATOM     10  H9  UNL     1      37.752  55.380  14.392  1.00  0.00     0.164 HD
ENDROOT
BRANCH   1  11
HETATM   11  C4  UNL     1      38.945  53.756  12.767  1.00  0.00     0.151 A 
HETATM   12  O2  UNL     1      39.384  54.615  11.847  1.00  0.00    -0.284 OA
HETATM   13  C3  UNL     1      38.967  54.262  10.659  1.00  0.00     0.192 A 
HETATM   14  C2  UNL     1      38.214  53.119  10.773  1.00  0.00     0.032 A 
HETATM   15  C1  UNL     1      37.524  52.324   9.718  1.00  0.00     0.056 C 
HETATM   16  C15 UNL     1      38.198  52.792  12.129  1.00  0.00     0.111 A 
BRANCH  13  17
HETATM   17  O1  UNL     1      39.224  54.916   9.439  1.00  0.00    -0.340 OA
ATOM     18  H1  UNL     1      39.748  55.704   9.360  1.00  0.00     0.220 HD
ENDBRANCH  13  17
BRANCH  16  19
HETATM   19  O7  UNL     1      37.553  51.716  12.668  1.00  0.00    -0.357 OA
ATOM     20  H7  UNL     1      36.979  51.747  13.425  1.00  0.00     0.217 HD
ENDBRANCH  16  19
ENDBRANCH   1  11
BRANCH   8  21
HETATM   21  C8  UNL     1      36.875  55.280  16.901  1.00  0.00     0.217 C 
HETATM   22  O4  UNL     1      35.624  55.222  16.621  1.00  0.00    -0.287 OA
BRANCH  21  23
HETATM   23  C9  UNL     1      37.279  56.306  17.880  1.00  0.00     0.167 C 
BRANCH  23  24
HETATM   24  N4  UNL     1      36.035  56.777  18.484  1.00  0.00    -0.329 N 
HETATM   25  C10 UNL     1      35.810  57.057  19.827  1.00  0.00     0.338 C 
HETATM   26  O5  UNL     1      36.654  56.957  20.745  1.00  0.00    -0.245 OA
HETATM   27  N5  UNL     1      34.501  57.504  20.243  1.00  0.00    -0.230 N 
HETATM   28  C11 UNL     1      34.300  57.816  21.644  1.00  0.00     0.184 C 
ATOM     29  H4  UNL     1      35.247  56.917  17.852  1.00  0.00     0.165 HD
BRANCH  27  30
HETATM   30  N6  UNL     1      33.469  57.598  19.349  1.00  0.00    -0.195 N 
ATOM     31  H6  UNL     1      33.206  58.527  19.020  1.00  0.00     0.213 HD
BRANCH  30  32
HETATM   32  N7  UNL     1      32.770  56.530  18.868  1.00  0.00    -0.086 N 
HETATM   33  N8  UNL     1      32.836  56.075  17.727  1.00  0.00    -0.302 N 
ATOM     34  H82 UNL     1      33.474  56.550  17.089  1.00  0.00     0.181 HD
ATOM     35  H81 UNL     1      32.313  55.276  17.368  1.00  0.00     0.181 HD
BRANCH  32  36
HETATM   36  O6  UNL     1      31.894  55.877  19.745  1.00  0.00    -0.253 OA
ATOM     37  H6  UNL     1      32.111  54.990  20.008  1.00  0.00     0.248 HD
ENDBRANCH  32  36
ENDBRANCH  30  32
ENDBRANCH  27  30
ENDBRANCH  23  24
BRANCH  23  38
HETATM   38  C12 UNL     1      38.029  57.465  17.274  1.00  0.00     0.008 C 
HETATM   39  C13 UNL     1      39.022  58.136  18.180  1.00  0.00     0.012 C 
HETATM   40  C14 UNL     1      37.001  58.577  16.972  1.00  0.00     0.012 C 
ENDBRANCH  23  38
ENDBRANCH  21  23
ENDBRANCH   8  21
TORSDOF 10
ENDMDL
MODEL 5
REMARK VINA RESULT: -8.766632767      2.556      4.145
REMARK  10 active torsions:
REMARK  status: ('A' for Active; 'I' for Inactive)
REMARK    1  A    between atoms: C3_3  and  O1_4 
REMARK    2  A    between atoms: C4_7  and  C5_8 
REMARK    3  A    between atoms: C7_15  and  C8_16 
REMARK    4  A    between atoms: C8_16  and  C9_18 
REMARK    5  A    between atoms: C9_18  and  N4_19 
REMARK    6  A    between atoms: C9_18  and  C12_33 
REMARK       I    between atoms: N4_19  and  C10_21 
REMARK       I    between atoms: C10_21  and  N5_23 
REMARK    7  A    between atoms: N5_23  and  N6_25 
REMARK    8  A    between atoms: N6_25  and  N7_27 
REMARK    9  A    between atoms: N7_27  and  O6_31 
REMARK   10  A    between atoms: C15_38  and  O7_39 
ROOT
HETATM    1  C5  UNL     1      36.589  54.199  17.272  1.00  0.00     0.274 C 
HETATM    2  C6  UNL     1      36.406  52.986  18.065  1.00  0.00     0.119 C 
HETATM    3  N1  UNL     1      36.270  52.026  18.693  1.00  0.00    -0.193 NA
HETATM    4  N2  UNL     1      35.453  54.497  16.424  1.00  0.00    -0.017 NA
HETATM    5  O3  UNL     1      34.478  55.187  17.041  1.00  0.00    -0.159 OA
HETATM    6  N3  UNL     1      34.684  56.090  18.036  1.00  0.00    -0.226 N 
ATOM      7  H3  UNL     1      33.919  56.703  18.319  1.00  0.00     0.198 HD
HETATM    8  C7  UNL     1      35.815  56.188  18.624  1.00  0.00     0.174 C 
HETATM    9  N9  UNL     1      36.847  55.317  18.162  1.00  0.00    -0.330 N 
ATOM     10  H9  UNL     1      37.805  55.487  18.470  1.00  0.00     0.164 HD
ENDROOT
BRANCH   1  11
HETATM   11  C4  UNL     1      37.769  53.996  16.354  1.00  0.00     0.151 A 
HETATM   12  O2  UNL     1      38.172  52.829  15.852  1.00  0.00    -0.284 OA
HETATM   13  C3  UNL     1      39.222  52.998  15.093  1.00  0.00     0.192 A 
HETATM   14  C2  UNL     1      39.551  54.331  15.077  1.00  0.00     0.032 A 
HETATM   15  C1  UNL     1      40.656  55.032  14.366  1.00  0.00     0.056 C 
HETATM   16  C15 UNL     1      38.617  54.975  15.889  1.00  0.00     0.111 A 
BRANCH  13  17
HETATM   17  O1  UNL     1      39.932  52.005  14.390  1.00  0.00    -0.340 OA
ATOM     18  H1  UNL     1      39.814  51.072  14.525  1.00  0.00     0.220 HD
ENDBRANCH  13  17
BRANCH  16  19
HETATM   19  O7  UNL     1      38.591  56.318  16.141  1.00  0.00    -0.357 OA
ATOM     20  H7  UNL     1      38.372  56.711  16.978  1.00  0.00     0.217 HD
ENDBRANCH  16  19
ENDBRANCH   1  11
BRANCH   8  21
HETATM   21  C8  UNL     1      36.101  57.124  19.689  1.00  0.00     0.217 C 
HETATM   22  O4  UNL     1      36.227  56.634  20.868  1.00  0.00    -0.287 OA
BRANCH  21  23
HETATM   23  C9  UNL     1      36.269  58.584  19.568  1.00  0.00     0.167 C 
BRANCH  23  24
HETATM   24  N4  UNL     1      37.597  58.868  20.106  1.00  0.00    -0.329 N 
HETATM   25  C10 UNL     1      38.809  58.798  19.428  1.00  0.00     0.338 C 
HETATM   26  O5  UNL     1      38.955  58.484  18.226  1.00  0.00    -0.245 OA
HETATM   27  N5  UNL     1      40.030  59.106  20.136  1.00  0.00    -0.230 N 
HETATM   28  C11 UNL     1      41.277  59.052  19.398  1.00  0.00     0.184 C 
ATOM     29  H4  UNL     1      37.640  59.149  21.086  1.00  0.00     0.165 HD
BRANCH  27  30
HETATM   30  N6  UNL     1      40.017  59.404  21.471  1.00  0.00    -0.195 N 
ATOM     31  H6  UNL     1      39.223  59.081  22.024  1.00  0.00     0.213 HD
BRANCH  30  32
HETATM   32  N7  UNL     1      40.996  60.105  22.111  1.00  0.00    -0.086 N 
HETATM   33  N8  UNL     1      40.916  61.269  22.501  1.00  0.00    -0.302 N 
ATOM     34  H82 UNL     1      40.033  61.745  22.320  1.00  0.00     0.181 HD
ATOM     35  H81 UNL     1      41.649  61.793  22.980  1.00  0.00     0.181 HD
BRANCH  32  36
HETATM   36  O6  UNL     1      42.210  59.451  22.359  1.00  0.00    -0.253 OA
ATOM     37  H6  UNL     1      42.976  59.988  22.526  1.00  0.00     0.248 HD
ENDBRANCH  32  36
ENDBRANCH  30  32
ENDBRANCH  27  30
ENDBRANCH  23  24
BRANCH  23  38
HETATM   38  C12 UNL     1      35.230  59.382  20.313  1.00  0.00     0.008 C 
HETATM   39  C13 UNL     1      33.805  58.982  20.060  1.00  0.00     0.012 C 
HETATM   40  C14 UNL     1      35.299  60.835  19.796  1.00  0.00     0.012 C 
ENDBRANCH  23  38
ENDBRANCH  21  23
ENDBRANCH   8  21
TORSDOF 10
ENDMDL
