MODEL 1
REMARK VINA RESULT: -7.407460431      0.000      0.000
REMARK  15 active torsions:
REMARK  status: ('A' for Active; 'I' for Inactive)
REMARK    1  A    between atoms: O1_2  and  C2_3 
REMARK    2  A    between atoms: C7_8  and  O2_9 
REMARK    3  A    between atoms: C9_12  and  O3_13 
REMARK    4  A    between atoms: C9_12  and  C10_15 
REMARK    5  A    between atoms: C12_20  and  N1_21 
REMARK    6  A    between atoms: C13_23  and  C14_24 
REMARK    7  A    between atoms: C14_24  and  N2_25 
REMARK    8  A    between atoms: C15_29  and  O7_30 
REMARK    9  A    between atoms: C16_32  and  C17_33 
REMARK   10  A    between atoms: C17_33  and  O8_34 
REMARK   11  A    between atoms: C17_33  and  C18_36 
REMARK   12  A    between atoms: C18_36  and  O9_37 
REMARK   13  A    between atoms: C18_36  and  C19_39 
REMARK   14  A    between atoms: C19_39  and  O10_40 
REMARK   15  A    between atoms: C19_39  and  O11_42 
ROOT
HETATM    1  C2  UNL     1      78.448  90.097 111.641  1.00  0.00     0.101 A 
HETATM    2  C3  UNL     1      79.277  89.018 111.612  1.00  0.00     0.040 A 
HETATM    3  C4  UNL     1      78.883  87.784 112.070  1.00  0.00     0.021 A 
HETATM    4  C5  UNL     1      77.611  87.652 112.573  1.00  0.00     0.049 A 
HETATM    5  C6  UNL     1      76.721  88.738 112.630  1.00  0.00     0.005 A 
HETATM    6  C7  UNL     1      77.139  89.986 112.152  1.00  0.00     0.106 A 
HETATM    7  C8  UNL     1      75.392  88.562 113.225  1.00  0.00     0.116 C 
HETATM    8  C9  UNL     1      75.353  88.923 114.659  1.00  0.00     0.219 C 
HETATM    9  C11 UNL     1      73.986  88.666 115.255  1.00  0.00     0.197 C 
HETATM   10  O6  UNL     1      73.333  89.472 115.853  1.00  0.00    -0.292 OA
HETATM   11  C12 UNL     1      73.471  87.293 115.050  1.00  0.00     0.186 C 
HETATM   12  C15 UNL     1      73.484  87.096 113.527  1.00  0.00     0.187 C 
HETATM   13  C16 UNL     1      74.839  87.155 112.930  1.00  0.00     0.139 C 
HETATM   14  O12 UNL     1      75.784  86.260 113.411  1.00  0.00    -0.300 OA
HETATM   15  C20 UNL     1      77.098  86.334 112.993  1.00  0.00     0.295 C 
HETATM   16  O13 UNL     1      77.882  85.363 112.946  1.00  0.00    -0.259 OA
ENDROOT
BRANCH  13  17
HETATM   17  C17 UNL     1      74.712  86.998 111.443  1.00  0.00     0.190 C 
BRANCH  17  18
HETATM   18  O8  UNL     1      74.156  88.121 110.874  1.00  0.00    -0.390 OA
ATOM     19  H8  UNL     1      73.879  87.949 109.982  1.00  0.00     0.210 HD
ENDBRANCH  17  18
BRANCH  17  20
HETATM   20  C18 UNL     1      74.060  85.703 111.068  1.00  0.00     0.204 C 
BRANCH  20  21
HETATM   21  O9  UNL     1      72.676  85.758 111.039  1.00  0.00    -0.388 OA
ATOM     22  H9  UNL     1      72.321  86.069 110.215  1.00  0.00     0.210 HD
ENDBRANCH  20  21
BRANCH  20  23
HETATM   23  C19 UNL     1      74.552  85.221 109.691  1.00  0.00     0.285 C 
BRANCH  23  24
HETATM   24  O10 UNL     1      75.163  86.259 109.003  1.00  0.00    -0.369 OA
ATOM     25  H10 UNL     1      74.981  86.195 108.074  1.00  0.00     0.212 HD
ENDBRANCH  23  24
BRANCH  23  26
HETATM   26  O11 UNL     1      73.550  84.612 108.973  1.00  0.00    -0.369 OA
ATOM     27  H11 UNL     1      73.815  84.431 108.079  1.00  0.00     0.212 HD
ENDBRANCH  23  26
ENDBRANCH  20  23
ENDBRANCH  17  20
ENDBRANCH  13  17
BRANCH  12  28
HETATM   28  O7  UNL     1      72.769  88.222 113.038  1.00  0.00    -0.390 OA
ATOM     29  H7  UNL     1      73.394  88.654 112.468  1.00  0.00     0.210 HD
ENDBRANCH  12  28
BRANCH   8  30
HETATM   30  O3  UNL     1      75.523  90.336 114.755  1.00  0.00    -0.371 OA
ATOM     31  H3  UNL     1      74.659  90.731 114.762  1.00  0.00     0.211 HD
ENDBRANCH   8  30
BRANCH   8  32
HETATM   32  C10 UNL     1      76.393  88.386 115.553  1.00  0.00     0.218 C 
HETATM   33  O4  UNL     1      76.260  87.298 116.148  1.00  0.00    -0.645 OA
HETATM   34  O5  UNL     1      77.601  89.062 115.795  1.00  0.00    -0.645 OA
ENDBRANCH   8  32
BRANCH  11  35
HETATM   35  N1  UNL     1      72.093  87.172 115.436  1.00  0.00    -0.387 N 
HETATM   36  C13 UNL     1      71.498  86.022 115.468  1.00  0.00     0.083 C 
ATOM     37  H1  UNL     1      71.571  88.011 115.690  1.00  0.00     0.159 HD
BRANCH  36  38
HETATM   38  C14 UNL     1      72.182  84.750 115.116  1.00  0.00     0.273 C 
BRANCH  38  39
HETATM   39  N2  UNL     1      71.660  84.333 113.828  1.00  0.00    -0.075 N 
ATOM     40  H23 UNL     1      70.642  84.271 113.809  1.00  0.00     0.274 HD
ATOM     41  H22 UNL     1      71.760  85.044 113.105  1.00  0.00     0.274 HD
ATOM     42  H21 UNL     1      72.119  83.454 113.592  1.00  0.00     0.274 HD
ENDBRANCH  38  39
ENDBRANCH  36  38
ENDBRANCH  11  35
BRANCH   6  43
HETATM   43  O2  UNL     1      76.391  91.111 112.126  1.00  0.00    -0.357 OA
ATOM     44  H2  UNL     1      75.465  90.995 111.948  1.00  0.00     0.217 HD
ENDBRANCH   6  43
BRANCH   1  45
HETATM   45  O1  UNL     1      78.865  91.345 111.169  1.00  0.00    -0.353 OA
HETATM   46  C1  UNL     1      79.971  91.980 111.787  1.00  0.00     0.210 C 
ENDBRANCH   1  45
TORSDOF 15
ENDMDL
MODEL 2
REMARK VINA RESULT: -6.994910990      0.768      1.079
REMARK  15 active torsions:
REMARK  status: ('A' for Active; 'I' for Inactive)
REMARK    1  A    between atoms: O1_2  and  C2_3 
REMARK    2  A    between atoms: C7_8  and  O2_9 
REMARK    3  A    between atoms: C9_12  and  O3_13 
REMARK    4  A    between atoms: C9_12  and  C10_15 
REMARK    5  A    between atoms: C12_20  and  N1_21 
REMARK    6  A    between atoms: C13_23  and  C14_24 
REMARK    7  A    between atoms: C14_24  and  N2_25 
REMARK    8  A    between atoms: C15_29  and  O7_30 
REMARK    9  A    between atoms: C16_32  and  C17_33 
REMARK   10  A    between atoms: C17_33  and  O8_34 
REMARK   11  A    between atoms: C17_33  and  C18_36 
REMARK   12  A    between atoms: C18_36  and  O9_37 
REMARK   13  A    between atoms: C18_36  and  C19_39 
REMARK   14  A    between atoms: C19_39  and  O10_40 
REMARK   15  A    between atoms: C19_39  and  O11_42 
ROOT
HETATM    1  C2  UNL     1      78.481  89.796 111.471  1.00  0.00     0.101 A 
HETATM    2  C3  UNL     1      79.335  88.752 111.657  1.00  0.00     0.040 A 
HETATM    3  C4  UNL     1      78.930  87.576 112.239  1.00  0.00     0.021 A 
HETATM    4  C5  UNL     1      77.621  87.466 112.642  1.00  0.00     0.049 A 
HETATM    5  C6  UNL     1      76.704  88.517 112.476  1.00  0.00     0.005 A 
HETATM    6  C7  UNL     1      77.135  89.707 111.875  1.00  0.00     0.106 A 
HETATM    7  C8  UNL     1      75.330  88.373 112.970  1.00  0.00     0.116 C 
HETATM    8  C9  UNL     1      75.151  88.916 114.334  1.00  0.00     0.219 C 
HETATM    9  C11 UNL     1      73.742  88.690 114.837  1.00  0.00     0.197 C 
HETATM   10  O6  UNL     1      73.018  89.544 115.263  1.00  0.00    -0.292 OA
HETATM   11  C12 UNL     1      73.281  87.285 114.772  1.00  0.00     0.186 C 
HETATM   12  C15 UNL     1      73.438  86.892 113.295  1.00  0.00     0.187 C 
HETATM   13  C16 UNL     1      74.840  86.922 112.817  1.00  0.00     0.139 C 
HETATM   14  O12 UNL     1      75.758  86.130 113.494  1.00  0.00    -0.300 OA
HETATM   15  C20 UNL     1      77.102  86.196 113.187  1.00  0.00     0.295 C 
HETATM   16  O13 UNL     1      77.911  85.255 113.337  1.00  0.00    -0.259 OA
ENDROOT
BRANCH  13  17
HETATM   17  C17 UNL     1      74.854  86.568 111.359  1.00  0.00     0.190 C 
BRANCH  17  18
HETATM   18  O8  UNL     1      74.350  87.597 110.597  1.00  0.00    -0.390 OA
ATOM     19  H8  UNL     1      73.942  88.258 111.144  1.00  0.00     0.210 HD
ENDBRANCH  17  18
BRANCH  17  20
HETATM   20  C18 UNL     1      74.244  85.224 111.100  1.00  0.00     0.204 C 
BRANCH  20  21
HETATM   21  O9  UNL     1      73.173  85.253 110.222  1.00  0.00    -0.388 OA
ATOM     22  H9  UNL     1      73.167  86.010 109.648  1.00  0.00     0.210 HD
ENDBRANCH  20  21
BRANCH  20  23
HETATM   23  C19 UNL     1      75.294  84.244 110.547  1.00  0.00     0.285 C 
BRANCH  23  24
HETATM   24  O10 UNL     1      74.720  83.394 109.613  1.00  0.00    -0.369 OA
ATOM     25  H10 UNL     1      73.850  83.695 109.380  1.00  0.00     0.212 HD
ENDBRANCH  23  24
BRANCH  23  26
HETATM   26  O11 UNL     1      75.953  83.578 111.552  1.00  0.00    -0.369 OA
ATOM     27  H11 UNL     1      76.864  83.838 111.612  1.00  0.00     0.212 HD
ENDBRANCH  23  26
ENDBRANCH  20  23
ENDBRANCH  17  20
ENDBRANCH  13  17
BRANCH  12  28
HETATM   28  O7  UNL     1      72.744  87.919 112.600  1.00  0.00    -0.390 OA
ATOM     29  H7  UNL     1      73.357  88.186 111.925  1.00  0.00     0.210 HD
ENDBRANCH  12  28
BRANCH   8  30
HETATM   30  O3  UNL     1      75.279  90.335 114.257  1.00  0.00    -0.371 OA
ATOM     31  H3  UNL     1      74.457  90.715 114.544  1.00  0.00     0.211 HD
ENDBRANCH   8  30
BRANCH   8  32
HETATM   32  C10 UNL     1      76.117  88.538 115.380  1.00  0.00     0.218 C 
HETATM   33  O4  UNL     1      77.171  89.177 115.573  1.00  0.00    -0.645 OA
HETATM   34  O5  UNL     1      75.917  87.434 116.227  1.00  0.00    -0.645 OA
ENDBRANCH   8  32
BRANCH  11  35
HETATM   35  N1  UNL     1      71.877  87.167 115.048  1.00  0.00    -0.387 N 
HETATM   36  C13 UNL     1      71.328  86.018 115.284  1.00  0.00     0.083 C 
ATOM     37  H1  UNL     1      71.298  88.007 115.058  1.00  0.00     0.159 HD
BRANCH  36  38
HETATM   38  C14 UNL     1      72.095  84.744 115.290  1.00  0.00     0.273 C 
BRANCH  38  39
HETATM   39  N2  UNL     1      71.765  84.047 114.062  1.00  0.00    -0.075 N 
ATOM     40  H23 UNL     1      70.814  84.227 113.741  1.00  0.00     0.274 HD
ATOM     41  H22 UNL     1      72.250  84.419 113.246  1.00  0.00     0.274 HD
ATOM     42  H21 UNL     1      71.953  83.057 114.222  1.00  0.00     0.274 HD
ENDBRANCH  38  39
ENDBRANCH  36  38
ENDBRANCH  11  35
BRANCH   6  43
HETATM   43  O2  UNL     1      76.366  90.791 111.634  1.00  0.00    -0.357 OA
ATOM     44  H2  UNL     1      75.935  91.175 112.389  1.00  0.00     0.217 HD
ENDBRANCH   6  43
BRANCH   1  45
HETATM   45  O1  UNL     1      78.911  90.986 110.875  1.00  0.00    -0.353 OA
HETATM   46  C1  UNL     1      79.891  91.770 111.533  1.00  0.00     0.210 C 
ENDBRANCH   1  45
TORSDOF 15
ENDMDL
MODEL 3
REMARK VINA RESULT: -6.850532081      2.909      5.905
REMARK  15 active torsions:
REMARK  status: ('A' for Active; 'I' for Inactive)
REMARK    1  A    between atoms: O1_2  and  C2_3 
REMARK    2  A    between atoms: C7_8  and  O2_9 
REMARK    3  A    between atoms: C9_12  and  O3_13 
REMARK    4  A    between atoms: C9_12  and  C10_15 
REMARK    5  A    between atoms: C12_20  and  N1_21 
REMARK    6  A    between atoms: C13_23  and  C14_24 
REMARK    7  A    between atoms: C14_24  and  N2_25 
REMARK    8  A    between atoms: C15_29  and  O7_30 
REMARK    9  A    between atoms: C16_32  and  C17_33 
REMARK   10  A    between atoms: C17_33  and  O8_34 
REMARK   11  A    between atoms: C17_33  and  C18_36 
REMARK   12  A    between atoms: C18_36  and  O9_37 
REMARK   13  A    between atoms: C18_36  and  C19_39 
REMARK   14  A    between atoms: C19_39  and  O10_40 
REMARK   15  A    between atoms: C19_39  and  O11_42 
ROOT
HETATM    1  C2  UNL     1      74.946  88.819 119.080  1.00  0.00     0.101 A 
HETATM    2  C3  UNL     1      73.636  89.137 118.889  1.00  0.00     0.040 A 
HETATM    3  C4  UNL     1      72.983  88.860 117.712  1.00  0.00     0.021 A 
HETATM    4  C5  UNL     1      73.689  88.246 116.706  1.00  0.00     0.049 A 
HETATM    5  C6  UNL     1      75.044  87.903 116.853  1.00  0.00     0.005 A 
HETATM    6  C7  UNL     1      75.690  88.188 118.062  1.00  0.00     0.106 A 
HETATM    7  C8  UNL     1      75.770  87.298 115.731  1.00  0.00     0.116 C 
HETATM    8  C9  UNL     1      76.487  88.294 114.907  1.00  0.00     0.219 C 
HETATM    9  C11 UNL     1      77.168  87.642 113.723  1.00  0.00     0.197 C 
HETATM   10  O6  UNL     1      78.327  87.757 113.447  1.00  0.00    -0.292 OA
HETATM   11  C12 UNL     1      76.279  86.812 112.879  1.00  0.00     0.186 C 
HETATM   12  C15 UNL     1      75.682  85.777 113.845  1.00  0.00     0.187 C 
HETATM   13  C16 UNL     1      74.849  86.372 114.915  1.00  0.00     0.139 C 
HETATM   14  O12 UNL     1      73.770  87.152 114.520  1.00  0.00    -0.300 OA
HETATM   15  C20 UNL     1      73.020  87.838 115.455  1.00  0.00     0.295 C 
HETATM   16  O13 UNL     1      71.816  88.138 115.315  1.00  0.00    -0.259 OA
ENDROOT
BRANCH  13  17
HETATM   17  C17 UNL     1      74.368  85.270 115.813  1.00  0.00     0.190 C 
BRANCH  17  18
HETATM   18  O8  UNL     1      75.351  84.889 116.697  1.00  0.00    -0.390 OA
ATOM     19  H8  UNL     1      75.636  83.999 116.525  1.00  0.00     0.210 HD
ENDBRANCH  17  18
BRANCH  17  20
HETATM   20  C18 UNL     1      73.733  84.153 115.042  1.00  0.00     0.204 C 
BRANCH  20  21
HETATM   21  O9  UNL     1      74.142  82.892 115.443  1.00  0.00    -0.388 OA
ATOM     22  H9  UNL     1      73.810  82.188 114.897  1.00  0.00     0.210 HD
ENDBRANCH  20  21
BRANCH  20  23
HETATM   23  C19 UNL     1      72.199  84.218 115.147  1.00  0.00     0.285 C 
BRANCH  23  24
HETATM   24  O10 UNL     1      71.677  82.962 115.419  1.00  0.00    -0.369 OA
ATOM     25  H10 UNL     1      70.880  83.038 115.931  1.00  0.00     0.212 HD
ENDBRANCH  23  24
BRANCH  23  26
HETATM   26  O11 UNL     1      71.635  84.811 114.042  1.00  0.00    -0.369 OA
ATOM     27  H11 UNL     1      71.059  84.216 113.576  1.00  0.00     0.212 HD
ENDBRANCH  23  26
ENDBRANCH  20  23
ENDBRANCH  17  20
ENDBRANCH  13  17
BRANCH  12  28
HETATM   28  O7  UNL     1      76.822  85.212 114.476  1.00  0.00    -0.390 OA
ATOM     29  H7  UNL     1      76.516  85.012 115.353  1.00  0.00     0.210 HD
ENDBRANCH  12  28
BRANCH   8  30
HETATM   30  O3  UNL     1      77.558  88.816 115.690  1.00  0.00    -0.371 OA
ATOM     31  H3  UNL     1      77.901  88.106 116.220  1.00  0.00     0.211 HD
ENDBRANCH   8  30
BRANCH   8  32
HETATM   32  C10 UNL     1      75.764  89.497 114.462  1.00  0.00     0.218 C 
HETATM   33  O4  UNL     1      75.811  90.572 115.093  1.00  0.00    -0.645 OA
HETATM   34  O5  UNL     1      74.974  89.515 113.299  1.00  0.00    -0.645 OA
ENDBRANCH   8  32
BRANCH  11  35
HETATM   35  N1  UNL     1      77.015  86.047 111.912  1.00  0.00    -0.387 N 
HETATM   36  C13 UNL     1      76.511  85.749 110.758  1.00  0.00     0.083 C 
ATOM     37  H1  UNL     1      77.958  85.730 112.140  1.00  0.00     0.159 HD
BRANCH  36  38
HETATM   38  C14 UNL     1      75.146  86.170 110.342  1.00  0.00     0.273 C 
BRANCH  38  39
HETATM   39  N2  UNL     1      75.012  85.837 108.936  1.00  0.00    -0.075 N 
ATOM     40  H23 UNL     1      75.788  85.280 108.580  1.00  0.00     0.274 HD
ATOM     41  H22 UNL     1      74.272  85.159 108.754  1.00  0.00     0.274 HD
ATOM     42  H21 UNL     1      74.884  86.715 108.434  1.00  0.00     0.274 HD
ENDBRANCH  38  39
ENDBRANCH  36  38
ENDBRANCH  11  35
BRANCH   6  43
HETATM   43  O2  UNL     1      76.978  87.903 118.354  1.00  0.00    -0.357 OA
ATOM     44  H2  UNL     1      77.577  88.640 118.370  1.00  0.00     0.217 HD
ENDBRANCH   6  43
BRANCH   1  45
HETATM   45  O1  UNL     1      75.594  89.106 120.285  1.00  0.00    -0.353 OA
HETATM   46  C1  UNL     1      75.279  88.339 121.434  1.00  0.00     0.210 C 
ENDBRANCH   1  45
TORSDOF 15
ENDMDL
MODEL 4
REMARK VINA RESULT: -6.683988966      2.314      4.701
REMARK  15 active torsions:
REMARK  status: ('A' for Active; 'I' for Inactive)
REMARK    1  A    between atoms: O1_2  and  C2_3 
REMARK    2  A    between atoms: C7_8  and  O2_9 
REMARK    3  A    between atoms: C9_12  and  O3_13 
REMARK    4  A    between atoms: C9_12  and  C10_15 
REMARK    5  A    between atoms: C12_20  and  N1_21 
REMARK    6  A    between atoms: C13_23  and  C14_24 
REMARK    7  A    between atoms: C14_24  and  N2_25 
REMARK    8  A    between atoms: C15_29  and  O7_30 
REMARK    9  A    between atoms: C16_32  and  C17_33 
REMARK   10  A    between atoms: C17_33  and  O8_34 
REMARK   11  A    between atoms: C17_33  and  C18_36 
REMARK   12  A    between atoms: C18_36  and  O9_37 
REMARK   13  A    between atoms: C18_36  and  C19_39 
REMARK   14  A    between atoms: C19_39  and  O10_40 
REMARK   15  A    between atoms: C19_39  and  O11_42 
ROOT
HETATM    1  C2  UNL     1      75.616  86.329 110.400  1.00  0.00     0.101 A 
HETATM    2  C3  UNL     1      76.968  86.346 110.558  1.00  0.00     0.040 A 
HETATM    3  C4  UNL     1      77.557  86.637 111.765  1.00  0.00     0.021 A 
HETATM    4  C5  UNL     1      76.742  86.918 112.835  1.00  0.00     0.049 A 
HETATM    5  C6  UNL     1      75.341  86.918 112.720  1.00  0.00     0.005 A 
HETATM    6  C7  UNL     1      74.760  86.613 111.483  1.00  0.00     0.106 A 
HETATM    7  C8  UNL     1      74.514  87.277 113.877  1.00  0.00     0.116 C 
HETATM    8  C9  UNL     1      74.149  88.710 113.898  1.00  0.00     0.219 C 
HETATM    9  C11 UNL     1      73.353  89.057 115.138  1.00  0.00     0.197 C 
HETATM   10  O6  UNL     1      72.289  89.605 115.141  1.00  0.00    -0.292 OA
HETATM   11  C12 UNL     1      73.994  88.665 116.413  1.00  0.00     0.186 C 
HETATM   12  C15 UNL     1      74.228  87.152 116.281  1.00  0.00     0.187 C 
HETATM   13  C16 UNL     1      75.157  86.787 115.187  1.00  0.00     0.139 C 
HETATM   14  O12 UNL     1      76.430  87.340 115.223  1.00  0.00    -0.300 OA
HETATM   15  C20 UNL     1      77.310  87.144 114.178  1.00  0.00     0.295 C 
HETATM   16  O13 UNL     1      78.554  87.146 114.289  1.00  0.00    -0.259 OA
ENDROOT
BRANCH  13  17
HETATM   17  C17 UNL     1      75.263  85.291 115.132  1.00  0.00     0.190 C 
BRANCH  17  18
HETATM   18  O8  UNL     1      74.272  84.754 114.344  1.00  0.00    -0.390 OA
ATOM     19  H8  UNL     1      74.623  84.449 113.515  1.00  0.00     0.210 HD
ENDBRANCH  17  18
BRANCH  17  20
HETATM   20  C18 UNL     1      75.392  84.686 116.497  1.00  0.00     0.204 C 
BRANCH  20  21
HETATM   21  O9  UNL     1      74.906  83.391 116.585  1.00  0.00    -0.388 OA
ATOM     22  H9  UNL     1      74.576  83.162 117.446  1.00  0.00     0.210 HD
ENDBRANCH  20  21
BRANCH  20  23
HETATM   23  C19 UNL     1      76.861  84.682 116.957  1.00  0.00     0.285 C 
BRANCH  23  24
HETATM   24  O10 UNL     1      77.108  85.755 117.801  1.00  0.00    -0.369 OA
ATOM     25  H10 UNL     1      77.908  86.199 117.547  1.00  0.00     0.212 HD
ENDBRANCH  23  24
BRANCH  23  26
HETATM   26  O11 UNL     1      77.731  84.616 115.895  1.00  0.00    -0.369 OA
ATOM     27  H11 UNL     1      77.783  83.740 115.533  1.00  0.00     0.212 HD
ENDBRANCH  23  26
ENDBRANCH  20  23
ENDBRANCH  17  20
ENDBRANCH  13  17
BRANCH  12  28
HETATM   28  O7  UNL     1      72.950  86.646 115.923  1.00  0.00    -0.390 OA
ATOM     29  H7  UNL     1      72.355  87.114 116.497  1.00  0.00     0.210 HD
ENDBRANCH  12  28
BRANCH   8  30
HETATM   30  O3  UNL     1      73.247  88.944 112.819  1.00  0.00    -0.371 OA
ATOM     31  H3  UNL     1      73.375  88.254 112.179  1.00  0.00     0.211 HD
ENDBRANCH   8  30
BRANCH   8  32
HETATM   32  C10 UNL     1      75.206  89.713 113.690  1.00  0.00     0.218 C 
HETATM   33  O4  UNL     1      75.722  90.341 114.637  1.00  0.00    -0.645 OA
HETATM   34  O5  UNL     1      75.705  90.030 112.414  1.00  0.00    -0.645 OA
ENDBRANCH   8  32
BRANCH  11  35
HETATM   35  N1  UNL     1      73.105  88.814 117.531  1.00  0.00    -0.387 N 
HETATM   36  C13 UNL     1      73.552  89.004 118.731  1.00  0.00     0.083 C 
ATOM     37  H1  UNL     1      72.097  88.770 117.376  1.00  0.00     0.159 HD
BRANCH  36  38
HETATM   38  C14 UNL     1      75.003  89.082 119.048  1.00  0.00     0.273 C 
BRANCH  38  39
HETATM   39  N2  UNL     1      75.391  87.785 119.569  1.00  0.00    -0.075 N 
ATOM     40  H23 UNL     1      76.064  87.299 118.975  1.00  0.00     0.274 HD
ATOM     41  H22 UNL     1      75.975  87.846 120.402  1.00  0.00     0.274 HD
ATOM     42  H21 UNL     1      74.533  87.256 119.718  1.00  0.00     0.274 HD
ENDBRANCH  38  39
ENDBRANCH  36  38
ENDBRANCH  11  35
BRANCH   6  43
HETATM   43  O2  UNL     1      73.435  86.558 111.227  1.00  0.00    -0.357 OA
ATOM     44  H2  UNL     1      72.870  87.009 111.842  1.00  0.00     0.217 HD
ENDBRANCH   6  43
BRANCH   1  45
HETATM   45  O1  UNL     1      75.034  86.029 109.164  1.00  0.00    -0.353 OA
HETATM   46  C1  UNL     1      75.071  84.693 108.693  1.00  0.00     0.210 C 
ENDBRANCH   1  45
TORSDOF 15
ENDMDL
MODEL 5
REMARK VINA RESULT: -6.601664314      2.300      5.438
REMARK  15 active torsions:
REMARK  status: ('A' for Active; 'I' for Inactive)
REMARK    1  A    between atoms: O1_2  and  C2_3 
REMARK    2  A    between atoms: C7_8  and  O2_9 
REMARK    3  A    between atoms: C9_12  and  O3_13 
REMARK    4  A    between atoms: C9_12  and  C10_15 
REMARK    5  A    between atoms: C12_20  and  N1_21 
REMARK    6  A    between atoms: C13_23  and  C14_24 
REMARK    7  A    between atoms: C14_24  and  N2_25 
REMARK    8  A    between atoms: C15_29  and  O7_30 
REMARK    9  A    between atoms: C16_32  and  C17_33 
REMARK   10  A    between atoms: C17_33  and  O8_34 
REMARK   11  A    between atoms: C17_33  and  C18_36 
REMARK   12  A    between atoms: C18_36  and  O9_37 
REMARK   13  A    between atoms: C18_36  and  C19_39 
REMARK   14  A    between atoms: C19_39  and  O10_40 
REMARK   15  A    between atoms: C19_39  and  O11_42 
ROOT
HETATM    1  C2  UNL     1      73.905  88.554 117.167  1.00  0.00     0.101 A 
HETATM    2  C3  UNL     1      75.133  88.208 117.642  1.00  0.00     0.040 A 
HETATM    3  C4  UNL     1      76.090  87.636 116.839  1.00  0.00     0.021 A 
HETATM    4  C5  UNL     1      75.781  87.411 115.519  1.00  0.00     0.049 A 
HETATM    5  C6  UNL     1      74.526  87.746 114.983  1.00  0.00     0.005 A 
HETATM    6  C7  UNL     1      73.566  88.333 115.818  1.00  0.00     0.106 A 
HETATM    7  C8  UNL     1      74.223  87.437 113.582  1.00  0.00     0.116 C 
HETATM    8  C9  UNL     1      73.542  86.135 113.415  1.00  0.00     0.219 C 
HETATM    9  C11 UNL     1      73.307  85.820 111.954  1.00  0.00     0.197 C 
HETATM   10  O6  UNL     1      72.248  85.534 111.473  1.00  0.00    -0.292 OA
HETATM   11  C12 UNL     1      74.518  85.886 111.105  1.00  0.00     0.186 C 
HETATM   12  C15 UNL     1      75.059  87.309 111.309  1.00  0.00     0.187 C 
HETATM   13  C16 UNL     1      75.477  87.592 112.702  1.00  0.00     0.139 C 
HETATM   14  O12 UNL     1      76.443  86.763 113.256  1.00  0.00    -0.300 OA
HETATM   15  C20 UNL     1      76.797  86.887 114.585  1.00  0.00     0.295 C 
HETATM   16  O13 UNL     1      77.916  86.587 115.051  1.00  0.00    -0.259 OA
ENDROOT
BRANCH  13  17
HETATM   17  C17 UNL     1      75.938  89.019 112.780  1.00  0.00     0.190 C 
BRANCH  17  18
HETATM   18  O8  UNL     1      74.868  89.878 112.879  1.00  0.00    -0.390 OA
ATOM     19  H8  UNL     1      75.009  90.659 112.357  1.00  0.00     0.210 HD
ENDBRANCH  17  18
BRANCH  17  20
HETATM   20  C18 UNL     1      76.926  89.350 111.704  1.00  0.00     0.204 C 
BRANCH  20  21
HETATM   21  O9  UNL     1      76.805  90.638 111.207  1.00  0.00    -0.388 OA
ATOM     22  H9  UNL     1      77.062  90.725 110.297  1.00  0.00     0.210 HD
ENDBRANCH  20  21
BRANCH  20  23
HETATM   23  C19 UNL     1      78.368  89.162 112.209  1.00  0.00     0.285 C 
BRANCH  23  24
HETATM   24  O10 UNL     1      78.875  87.942 111.787  1.00  0.00    -0.369 OA
ATOM     25  H10 UNL     1      78.669  87.795 110.872  1.00  0.00     0.212 HD
ENDBRANCH  23  24
BRANCH  23  26
HETATM   26  O11 UNL     1      78.464  89.348 113.567  1.00  0.00    -0.369 OA
ATOM     27  H11 UNL     1      78.901  88.621 113.994  1.00  0.00     0.212 HD
ENDBRANCH  23  26
ENDBRANCH  20  23
ENDBRANCH  17  20
ENDBRANCH  13  17
BRANCH  12  28
HETATM   28  O7  UNL     1      73.936  88.136 111.040  1.00  0.00    -0.390 OA
ATOM     29  H7  UNL     1      74.229  89.002 111.297  1.00  0.00     0.210 HD
ENDBRANCH  12  28
BRANCH   8  30
HETATM   30  O3  UNL     1      72.233  86.256 113.969  1.00  0.00    -0.371 OA
ATOM     31  H3  UNL     1      71.848  87.054 113.628  1.00  0.00     0.211 HD
ENDBRANCH   8  30
BRANCH   8  32
HETATM   32  C10 UNL     1      74.098  84.953 114.094  1.00  0.00     0.218 C 
HETATM   33  O4  UNL     1      74.860  84.151 113.516  1.00  0.00    -0.645 OA
HETATM   34  O5  UNL     1      73.810  84.649 115.436  1.00  0.00    -0.645 OA
ENDBRANCH   8  32
BRANCH  11  35
HETATM   35  N1  UNL     1      74.200  85.799 109.707  1.00  0.00    -0.387 N 
HETATM   36  C13 UNL     1      74.731  84.894 108.947  1.00  0.00     0.083 C 
ATOM     37  H1  UNL     1      73.541  86.465 109.303  1.00  0.00     0.159 HD
BRANCH  36  38
HETATM   38  C14 UNL     1      75.698  83.884 109.452  1.00  0.00     0.273 C 
BRANCH  38  39
HETATM   39  N2  UNL     1      76.545  83.515 108.333  1.00  0.00    -0.075 N 
ATOM     40  H23 UNL     1      76.040  83.458 107.449  1.00  0.00     0.274 HD
ATOM     41  H22 UNL     1      77.196  84.252 108.062  1.00  0.00     0.274 HD
ATOM     42  H21 UNL     1      77.010  82.644 108.587  1.00  0.00     0.274 HD
ENDBRANCH  38  39
ENDBRANCH  36  38
ENDBRANCH  11  35
BRANCH   6  43
HETATM   43  O2  UNL     1      72.328  88.723 115.442  1.00  0.00    -0.357 OA
ATOM     44  H2  UNL     1      72.088  88.546 114.540  1.00  0.00     0.217 HD
ENDBRANCH   6  43
BRANCH   1  45
HETATM   45  O1  UNL     1      72.944  89.137 117.999  1.00  0.00    -0.353 OA
HETATM   46  C1  UNL     1      73.158  89.140 119.400  1.00  0.00     0.210 C 
ENDBRANCH   1  45
TORSDOF 15
ENDMDL
