MODEL 1
REMARK VINA RESULT: -7.303510047      0.000      0.000
REMARK  14 active torsions:
REMARK  status: ('A' for Active; 'I' for Inactive)
REMARK    1  A    between atoms: N1_1  and  C1_4 
REMARK    2  A    between atoms: C1_4  and  O1_6 
REMARK    3  A    between atoms: O1_6  and  C2_7 
REMARK    4  A    between atoms: C2_7  and  N3_8 
REMARK    5  A    between atoms: C3_12  and  C4_13 
REMARK    6  A    between atoms: C4_13  and  N4_14 
REMARK    7  A    between atoms: C5_19  and  N5_20 
REMARK       I    between atoms: N7_24  and  C7_26 
REMARK    8  A    between atoms: C7_26  and  C8_28 
REMARK    9  A    between atoms: C8_28  and  N8_29 
REMARK   10  A    between atoms: C8_28  and  C9_33 
REMARK   11  A    between atoms: C9_33  and  C10_34 
REMARK   12  A    between atoms: C14_42  and  N11_43 
REMARK   13  A    between atoms: C17_52  and  O4_53 
REMARK   14  A    between atoms: C18_55  and  O5_56 
ROOT
HETATM    1  N5  UNL     1      75.726  87.690 117.861  1.00  0.00    -0.241 N 
HETATM    2  N6  UNL     1      75.608  88.377 118.974  1.00  0.00    -0.278 N 
ATOM      3  H6  UNL     1      75.161  89.291 119.034  1.00  0.00     0.189 HD
HETATM    4  C6  UNL     1      76.141  87.737 120.017  1.00  0.00     0.140 A 
HETATM    5  N7  UNL     1      76.225  88.064 121.246  1.00  0.00    -0.309 N 
ATOM      6  H7  UNL     1      76.685  87.403 121.873  1.00  0.00     0.170 HD
HETATM    7  C7  UNL     1      75.738  89.262 121.818  1.00  0.00     0.254 C 
HETATM    8  O3  UNL     1      74.680  89.800 121.410  1.00  0.00    -0.271 OA
HETATM    9  C13 UNL     1      76.650  86.527 119.531  1.00  0.00     0.099 A 
HETATM   10  C14 UNL     1      77.303  85.475 120.139  1.00  0.00     0.117 A 
HETATM   11  N12 UNL     1      77.663  84.431 119.329  1.00  0.00    -0.338 N 
ATOM     12  H12 UNL     1      78.149  83.628 119.729  1.00  0.00     0.168 HD
HETATM   13  C15 UNL     1      77.386  84.450 118.020  1.00  0.00     0.183 A 
HETATM   14  N13 UNL     1      76.752  85.476 117.434  1.00  0.00    -0.336 N 
ATOM     15  H13 UNL     1      76.558  85.454 116.433  1.00  0.00     0.168 HD
HETATM   16  C16 UNL     1      76.366  86.545 118.181  1.00  0.00     0.143 A 
ENDROOT
BRANCH   1  17
HETATM   17  C5  UNL     1      75.300  87.993 116.508  1.00  0.00     0.278 C 
HETATM   18  O2  UNL     1      74.128  88.688 116.564  1.00  0.00    -0.350 OA
HETATM   19  C3  UNL     1      73.492  88.864 115.361  1.00  0.00     0.216 C 
HETATM   20  C2  UNL     1      74.461  89.018 114.177  1.00  0.00     0.287 C 
HETATM   21  C18 UNL     1      75.680  89.672 114.771  1.00  0.00     0.217 C 
HETATM   22  C17 UNL     1      76.338  88.665 115.687  1.00  0.00     0.202 C 
BRANCH  19  23
HETATM   23  C4  UNL     1      72.394  87.903 115.087  1.00  0.00     0.266 C 
BRANCH  23  24
HETATM   24  N4  UNL     1      71.128  88.457 114.780  1.00  0.00    -0.077 N 
ATOM     25  H43 UNL     1      70.940  89.247 115.397  1.00  0.00     0.274 HD
ATOM     26  H42 UNL     1      71.172  88.933 113.878  1.00  0.00     0.274 HD
ATOM     27  H41 UNL     1      70.333  87.817 114.791  1.00  0.00     0.274 HD
ENDBRANCH  23  24
ENDBRANCH  19  23
BRANCH  20  28
HETATM   28  O1  UNL     1      74.776  87.826 113.605  1.00  0.00    -0.280 OA
BRANCH  28  29
HETATM   29  C1  UNL     1      74.948  87.482 112.311  1.00  0.00     0.227 C 
HETATM   30  N2  UNL     1      76.007  88.123 111.531  1.00  0.00    -0.057 NA
BRANCH  29  31
HETATM   31  N1  UNL     1      74.211  86.618 111.769  1.00  0.00    -0.368 N 
ATOM     32  H12 UNL     1      74.029  86.640 110.765  1.00  0.00     0.159 HD
ATOM     33  H11 UNL     1      73.787  85.886 112.339  1.00  0.00     0.159 HD
ENDBRANCH  29  31
ENDBRANCH  28  29
ENDBRANCH  20  28
BRANCH  20  34
HETATM   34  N3  UNL     1      73.874  89.949 113.216  1.00  0.00    -0.041 N 
ATOM     35  H33 UNL     1      74.595  90.420 112.669  1.00  0.00     0.278 HD
ATOM     36  H32 UNL     1      73.398  89.453 112.464  1.00  0.00     0.278 HD
ATOM     37  H31 UNL     1      73.253  90.622 113.666  1.00  0.00     0.278 HD
ENDBRANCH  20  34
BRANCH  21  38
HETATM   38  O5  UNL     1      76.579  90.166 113.841  1.00  0.00    -0.388 OA
ATOM     39  H5  UNL     1      76.180  90.511 113.051  1.00  0.00     0.210 HD
ENDBRANCH  21  38
BRANCH  22  40
HETATM   40  O4  UNL     1      77.347  89.256 116.453  1.00  0.00    -0.388 OA
ATOM     41  H4  UNL     1      77.837  89.917 115.979  1.00  0.00     0.210 HD
ENDBRANCH  22  40
ENDBRANCH   1  17
BRANCH  10  42
HETATM   42  N11 UNL     1      77.571  85.446 121.383  1.00  0.00    -0.385 N 
ATOM     43 2H11 UNL     1      77.059  84.823 122.007  1.00  0.00     0.157 HD
ATOM     44 1H11 UNL     1      78.293  86.024 121.813  1.00  0.00     0.157 HD
ENDBRANCH  10  42
BRANCH   7  45
HETATM   45  C8  UNL     1      76.469  89.908 122.917  1.00  0.00     0.280 C 
BRANCH  45  46
HETATM   46  N8  UNL     1      76.363  91.361 122.861  1.00  0.00    -0.066 N 
ATOM     47  H83 UNL     1      75.492  91.652 122.419  1.00  0.00     0.275 HD
ATOM     48  H82 UNL     1      76.212  91.757 123.789  1.00  0.00     0.275 HD
ATOM     49  H81 UNL     1      77.170  91.784 122.404  1.00  0.00     0.275 HD
ENDBRANCH  45  46
BRANCH  45  50
HETATM   50  C9  UNL     1      77.951  89.594 122.906  1.00  0.00     0.101 C 
BRANCH  50  51
HETATM   51  C10 UNL     1      78.206  88.769 124.115  1.00  0.00     0.028 A 
HETATM   52  C11 UNL     1      78.026  89.076 125.447  1.00  0.00     0.114 A 
HETATM   53  N9  UNL     1      78.397  88.007 126.183  1.00  0.00    -0.360 N 
HETATM   54  C12 UNL     1      78.799  87.047 125.365  1.00  0.00     0.180 A 
ATOM     55  H9  UNL     1      78.370  87.948 127.201  1.00  0.00     0.166 HD
HETATM   56  N10 UNL     1      78.690  87.494 124.114  1.00  0.00    -0.355 N 
ATOM     57  H10 UNL     1      78.932  86.960 123.279  1.00  0.00     0.166 HD
ENDBRANCH  50  51
ENDBRANCH  45  50
ENDBRANCH   7  45
TORSDOF 14
ENDMDL
MODEL 2
REMARK VINA RESULT: -7.088436423      1.287      1.442
REMARK  14 active torsions:
REMARK  status: ('A' for Active; 'I' for Inactive)
REMARK    1  A    between atoms: N1_1  and  C1_4 
REMARK    2  A    between atoms: C1_4  and  O1_6 
REMARK    3  A    between atoms: O1_6  and  C2_7 
REMARK    4  A    between atoms: C2_7  and  N3_8 
REMARK    5  A    between atoms: C3_12  and  C4_13 
REMARK    6  A    between atoms: C4_13  and  N4_14 
REMARK    7  A    between atoms: C5_19  and  N5_20 
REMARK       I    between atoms: N7_24  and  C7_26 
REMARK    8  A    between atoms: C7_26  and  C8_28 
REMARK    9  A    between atoms: C8_28  and  N8_29 
REMARK   10  A    between atoms: C8_28  and  C9_33 
REMARK   11  A    between atoms: C9_33  and  C10_34 
REMARK   12  A    between atoms: C14_42  and  N11_43 
REMARK   13  A    between atoms: C17_52  and  O4_53 
REMARK   14  A    between atoms: C18_55  and  O5_56 
ROOT
HETATM    1  N5  UNL     1      75.319  87.398 117.393  1.00  0.00    -0.241 N 
HETATM    2  N6  UNL     1      75.323  88.110 118.497  1.00  0.00    -0.278 N 
ATOM      3  H6  UNL     1      74.770  88.956 118.631  1.00  0.00     0.189 HD
HETATM    4  C6  UNL     1      76.135  87.595 119.423  1.00  0.00     0.140 A 
HETATM    5  N7  UNL     1      76.410  87.983 120.605  1.00  0.00    -0.309 N 
ATOM      6  H7  UNL     1      77.073  87.420 121.138  1.00  0.00     0.170 HD
HETATM    7  C7  UNL     1      75.876  89.127 121.244  1.00  0.00     0.254 C 
HETATM    8  O3  UNL     1      74.693  89.497 121.046  1.00  0.00    -0.271 OA
HETATM    9  C13 UNL     1      76.708  86.446 118.864  1.00  0.00     0.099 A 
HETATM   10  C14 UNL     1      77.610  85.521 119.346  1.00  0.00     0.117 A 
HETATM   11  N12 UNL     1      77.952  84.503 118.497  1.00  0.00    -0.338 N 
ATOM     12  H12 UNL     1      78.616  83.793 118.804  1.00  0.00     0.168 HD
HETATM   13  C15 UNL     1      77.425  84.427 117.269  1.00  0.00     0.183 A 
HETATM   14  N13 UNL     1      76.548  85.329 116.805  1.00  0.00    -0.336 N 
ATOM     15  H13 UNL     1      76.169  85.237 115.863  1.00  0.00     0.168 HD
HETATM   16  C16 UNL     1      76.167  86.367 117.597  1.00  0.00     0.143 A 
ENDROOT
BRANCH   1  17
HETATM   17  C5  UNL     1      74.599  87.580 116.148  1.00  0.00     0.278 C 
HETATM   18  O2  UNL     1      73.283  87.801 116.432  1.00  0.00    -0.350 OA
HETATM   19  C3  UNL     1      72.439  87.783 115.350  1.00  0.00     0.216 C 
HETATM   20  C2  UNL     1      73.084  88.325 114.065  1.00  0.00     0.287 C 
HETATM   21  C18 UNL     1      74.075  89.352 114.545  1.00  0.00     0.217 C 
HETATM   22  C17 UNL     1      75.186  88.615 115.260  1.00  0.00     0.202 C 
BRANCH  19  23
HETATM   23  C4  UNL     1      71.719  86.501 115.140  1.00  0.00     0.266 C 
BRANCH  23  24
HETATM   24  N4  UNL     1      70.312  86.530 115.300  1.00  0.00    -0.077 N 
ATOM     25  H43 UNL     1      70.070  87.115 116.099  1.00  0.00     0.274 HD
ATOM     26  H42 UNL     1      69.892  87.068 114.541  1.00  0.00     0.274 HD
ATOM     27  H41 UNL     1      69.843  85.628 115.381  1.00  0.00     0.274 HD
ENDBRANCH  23  24
ENDBRANCH  19  23
BRANCH  20  28
HETATM   28  O1  UNL     1      73.700  87.352 113.343  1.00  0.00    -0.280 OA
BRANCH  28  29
HETATM   29  C1  UNL     1      73.769  87.147 112.010  1.00  0.00     0.227 C 
HETATM   30  N2  UNL     1      74.473  88.116 111.168  1.00  0.00    -0.057 NA
BRANCH  29  31
HETATM   31  N1  UNL     1      73.236  86.135 111.483  1.00  0.00    -0.368 N 
ATOM     32  H12 UNL     1      72.429  86.229 110.868  1.00  0.00     0.159 HD
ATOM     33  H11 UNL     1      73.615  85.208 111.676  1.00  0.00     0.159 HD
ENDBRANCH  29  31
ENDBRANCH  28  29
ENDBRANCH  20  28
BRANCH  20  34
HETATM   34  N3  UNL     1      72.059  89.019 113.288  1.00  0.00    -0.041 N 
ATOM     35  H33 UNL     1      71.560  89.701 113.860  1.00  0.00     0.278 HD
ATOM     36  H32 UNL     1      72.476  89.653 112.607  1.00  0.00     0.278 HD
ATOM     37  H31 UNL     1      71.413  88.369 112.841  1.00  0.00     0.278 HD
ENDBRANCH  20  34
BRANCH  21  38
HETATM   38  O5  UNL     1      74.578  90.175 113.552  1.00  0.00    -0.388 OA
ATOM     39  H5  UNL     1      74.449  91.104 113.706  1.00  0.00     0.210 HD
ENDBRANCH  21  38
BRANCH  22  40
HETATM   40  O4  UNL     1      76.034  89.500 115.933  1.00  0.00    -0.388 OA
ATOM     41  H4  UNL     1      75.656  90.364 116.048  1.00  0.00     0.210 HD
ENDBRANCH  22  40
ENDBRANCH   1  17
BRANCH  10  42
HETATM   42  N11 UNL     1      78.118  85.584 120.512  1.00  0.00    -0.385 N 
ATOM     43 2H11 UNL     1      77.519  85.707 121.328  1.00  0.00     0.157 HD
ATOM     44 1H11 UNL     1      79.119  85.515 120.691  1.00  0.00     0.157 HD
ENDBRANCH  10  42
BRANCH   7  45
HETATM   45  C8  UNL     1      76.707  89.914 122.166  1.00  0.00     0.280 C 
BRANCH  45  46
HETATM   46  N8  UNL     1      78.000  89.284 122.406  1.00  0.00    -0.066 N 
ATOM     47  H83 UNL     1      77.892  88.386 122.877  1.00  0.00     0.275 HD
ATOM     48  H82 UNL     1      78.421  88.960 121.536  1.00  0.00     0.275 HD
ATOM     49  H81 UNL     1      78.633  89.897 122.919  1.00  0.00     0.275 HD
ENDBRANCH  45  46
BRANCH  45  50
HETATM   50  C9  UNL     1      76.069  90.098 123.527  1.00  0.00     0.101 C 
BRANCH  50  51
HETATM   51  C10 UNL     1      76.566  88.979 124.369  1.00  0.00     0.028 A 
HETATM   52  C11 UNL     1      76.210  87.647 124.367  1.00  0.00     0.114 A 
HETATM   53  N9  UNL     1      76.934  87.012 125.313  1.00  0.00    -0.360 N 
HETATM   54  C12 UNL     1      77.727  87.893 125.903  1.00  0.00     0.180 A 
ATOM     55  H9  UNL     1      76.880  86.019 125.536  1.00  0.00     0.166 HD
HETATM   56  N10 UNL     1      77.515  89.084 125.343  1.00  0.00    -0.355 N 
ATOM     57  H10 UNL     1      77.992  89.947 125.605  1.00  0.00     0.166 HD
ENDBRANCH  50  51
ENDBRANCH  45  50
ENDBRANCH   7  45
TORSDOF 14
ENDMDL
MODEL 3
REMARK VINA RESULT: -7.028996189      1.344      1.639
REMARK  14 active torsions:
REMARK  status: ('A' for Active; 'I' for Inactive)
REMARK    1  A    between atoms: N1_1  and  C1_4 
REMARK    2  A    between atoms: C1_4  and  O1_6 
REMARK    3  A    between atoms: O1_6  and  C2_7 
REMARK    4  A    between atoms: C2_7  and  N3_8 
REMARK    5  A    between atoms: C3_12  and  C4_13 
REMARK    6  A    between atoms: C4_13  and  N4_14 
REMARK    7  A    between atoms: C5_19  and  N5_20 
REMARK       I    between atoms: N7_24  and  C7_26 
REMARK    8  A    between atoms: C7_26  and  C8_28 
REMARK    9  A    between atoms: C8_28  and  N8_29 
REMARK   10  A    between atoms: C8_28  and  C9_33 
REMARK   11  A    between atoms: C9_33  and  C10_34 
REMARK   12  A    between atoms: C14_42  and  N11_43 
REMARK   13  A    between atoms: C17_52  and  O4_53 
REMARK   14  A    between atoms: C18_55  and  O5_56 
ROOT
HETATM    1  N5  UNL     1      75.845  87.004 117.556  1.00  0.00    -0.241 N 
HETATM    2  N6  UNL     1      75.792  87.471 118.783  1.00  0.00    -0.278 N 
ATOM      3  H6  UNL     1      75.311  88.331 119.044  1.00  0.00     0.189 HD
HETATM    4  C6  UNL     1      76.441  86.687 119.646  1.00  0.00     0.140 A 
HETATM    5  N7  UNL     1      76.615  86.790 120.904  1.00  0.00    -0.309 N 
ATOM      6  H7  UNL     1      77.156  86.056 121.361  1.00  0.00     0.170 HD
HETATM    7  C7  UNL     1      76.126  87.835 121.722  1.00  0.00     0.254 C 
HETATM    8  O3  UNL     1      75.014  88.374 121.502  1.00  0.00    -0.271 OA
HETATM    9  C13 UNL     1      76.960  85.616 118.908  1.00  0.00     0.099 A 
HETATM   10  C14 UNL     1      77.709  84.512 119.260  1.00  0.00     0.117 A 
HETATM   11  N12 UNL     1      78.044  83.655 118.246  1.00  0.00    -0.338 N 
ATOM     12  H12 UNL     1      78.598  82.824 118.452  1.00  0.00     0.168 HD
HETATM   13  C15 UNL     1      77.656  83.893 116.987  1.00  0.00     0.183 A 
HETATM   14  N13 UNL     1      76.928  84.968 116.650  1.00  0.00    -0.336 N 
ATOM     15  H13 UNL     1      76.651  85.116 115.680  1.00  0.00     0.168 HD
HETATM   16  C16 UNL     1      76.561  85.861 117.609  1.00  0.00     0.143 A 
ENDROOT
BRANCH   1  17
HETATM   17  C5  UNL     1      75.291  87.520 116.319  1.00  0.00     0.278 C 
HETATM   18  O2  UNL     1      74.026  87.969 116.559  1.00  0.00    -0.350 OA
HETATM   19  C3  UNL     1      73.297  88.293 115.443  1.00  0.00     0.216 C 
HETATM   20  C2  UNL     1      74.151  88.873 114.305  1.00  0.00     0.287 C 
HETATM   21  C18 UNL     1      75.279  89.583 115.005  1.00  0.00     0.217 C 
HETATM   22  C17 UNL     1      76.151  88.529 115.650  1.00  0.00     0.202 C 
BRANCH  19  23
HETATM   23  C4  UNL     1      72.357  87.239 114.982  1.00  0.00     0.266 C 
BRANCH  23  24
HETATM   24  N4  UNL     1      70.976  87.520 115.110  1.00  0.00    -0.077 N 
ATOM     25  H43 UNL     1      70.730  87.585 116.098  1.00  0.00     0.274 HD
ATOM     26  H42 UNL     1      70.791  88.477 114.809  1.00  0.00     0.274 HD
ATOM     27  H41 UNL     1      70.333  86.883 114.639  1.00  0.00     0.274 HD
ENDBRANCH  23  24
ENDBRANCH  19  23
BRANCH  20  28
HETATM   28  O1  UNL     1      74.623  87.912 113.468  1.00  0.00    -0.280 OA
BRANCH  28  29
HETATM   29  C1  UNL     1      74.861  87.933 112.139  1.00  0.00     0.227 C 
HETATM   30  N2  UNL     1      75.960  88.747 111.617  1.00  0.00    -0.057 NA
BRANCH  29  31
HETATM   31  N1  UNL     1      74.151  87.262 111.345  1.00  0.00    -0.368 N 
ATOM     32  H12 UNL     1      74.555  86.505 110.793  1.00  0.00     0.159 HD
ATOM     33  H11 UNL     1      73.159  87.479 111.248  1.00  0.00     0.159 HD
ENDBRANCH  29  31
ENDBRANCH  28  29
ENDBRANCH  20  28
BRANCH  20  34
HETATM   34  N3  UNL     1      73.359  89.877 113.597  1.00  0.00    -0.041 N 
ATOM     35  H33 UNL     1      73.765  90.807 113.698  1.00  0.00     0.278 HD
ATOM     36  H32 UNL     1      73.447  89.772 112.586  1.00  0.00     0.278 HD
ATOM     37  H31 UNL     1      72.381  89.866 113.885  1.00  0.00     0.278 HD
ENDBRANCH  20  34
BRANCH  21  38
HETATM   38  O5  UNL     1      76.024  90.421 114.193  1.00  0.00    -0.388 OA
ATOM     39  H5  UNL     1      75.766  90.417 113.278  1.00  0.00     0.210 HD
ENDBRANCH  21  38
BRANCH  22  40
HETATM   40  O4  UNL     1      77.094  89.103 116.508  1.00  0.00    -0.388 OA
ATOM     41  H4  UNL     1      77.940  88.672 116.474  1.00  0.00     0.210 HD
ENDBRANCH  22  40
ENDBRANCH   1  17
BRANCH  10  42
HETATM   42  N11 UNL     1      78.084  84.276 120.453  1.00  0.00    -0.385 N 
ATOM     43 2H11 UNL     1      78.893  84.758 120.843  1.00  0.00     0.157 HD
ATOM     44 1H11 UNL     1      77.611  83.612 121.067  1.00  0.00     0.157 HD
ENDBRANCH  10  42
BRANCH   7  45
HETATM   45  C8  UNL     1      76.919  88.314 122.863  1.00  0.00     0.280 C 
BRANCH  45  46
HETATM   46  N8  UNL     1      76.235  88.096 124.132  1.00  0.00    -0.066 N 
ATOM     47  H83 UNL     1      76.413  87.158 124.492  1.00  0.00     0.275 HD
ATOM     48  H82 UNL     1      76.661  88.639 124.882  1.00  0.00     0.275 HD
ATOM     49  H81 UNL     1      75.234  88.281 124.061  1.00  0.00     0.275 HD
ENDBRANCH  45  46
BRANCH  45  50
HETATM   50  C9  UNL     1      77.215  89.798 122.796  1.00  0.00     0.101 C 
BRANCH  50  51
HETATM   51  C10 UNL     1      78.617  89.961 123.260  1.00  0.00     0.028 A 
HETATM   52  C11 UNL     1      79.614  89.020 123.400  1.00  0.00     0.114 A 
HETATM   53  N9  UNL     1      80.723  89.641 123.855  1.00  0.00    -0.360 N 
HETATM   54  C12 UNL     1      80.457  90.929 124.003  1.00  0.00     0.180 A 
ATOM     55  H9  UNL     1      81.617  89.193 124.051  1.00  0.00     0.166 HD
HETATM   56  N10 UNL     1      79.189  91.136 123.648  1.00  0.00    -0.355 N 
ATOM     57  H10 UNL     1      78.717  92.041 123.664  1.00  0.00     0.166 HD
ENDBRANCH  50  51
ENDBRANCH  45  50
ENDBRANCH   7  45
TORSDOF 14
ENDMDL
MODEL 4
REMARK VINA RESULT: -6.962060173      5.426      8.851
REMARK  14 active torsions:
REMARK  status: ('A' for Active; 'I' for Inactive)
REMARK    1  A    between atoms: N1_1  and  C1_4 
REMARK    2  A    between atoms: C1_4  and  O1_6 
REMARK    3  A    between atoms: O1_6  and  C2_7 
REMARK    4  A    between atoms: C2_7  and  N3_8 
REMARK    5  A    between atoms: C3_12  and  C4_13 
REMARK    6  A    between atoms: C4_13  and  N4_14 
REMARK    7  A    between atoms: C5_19  and  N5_20 
REMARK       I    between atoms: N7_24  and  C7_26 
REMARK    8  A    between atoms: C7_26  and  C8_28 
REMARK    9  A    between atoms: C8_28  and  N8_29 
REMARK   10  A    between atoms: C8_28  and  C9_33 
REMARK   11  A    between atoms: C9_33  and  C10_34 
REMARK   12  A    between atoms: C14_42  and  N11_43 
REMARK   13  A    between atoms: C17_52  and  O4_53 
REMARK   14  A    between atoms: C18_55  and  O5_56 
ROOT
HETATM    1  N5  UNL     1      72.751  83.972 114.660  1.00  0.00    -0.241 N 
HETATM    2  N6  UNL     1      72.416  82.944 115.407  1.00  0.00    -0.278 N 
ATOM      3  H6  UNL     1      72.365  82.973 116.425  1.00  0.00     0.189 HD
HETATM    4  C6  UNL     1      72.150  81.859 114.678  1.00  0.00     0.140 A 
HETATM    5  N7  UNL     1      71.796  80.684 115.022  1.00  0.00    -0.309 N 
ATOM      6  H7  UNL     1      71.647  80.005 114.275  1.00  0.00     0.170 HD
HETATM    7  C7  UNL     1      71.590  80.239 116.349  1.00  0.00     0.254 C 
HETATM    8  O3  UNL     1      71.109  80.996 117.227  1.00  0.00    -0.271 OA
HETATM    9  C13 UNL     1      72.331  82.219 113.336  1.00  0.00     0.099 A 
HETATM   10  C14 UNL     1      72.202  81.521 112.154  1.00  0.00     0.117 A 
HETATM   11  N12 UNL     1      72.467  82.215 111.004  1.00  0.00    -0.338 N 
ATOM     12  H12 UNL     1      72.387  81.745 110.103  1.00  0.00     0.168 HD
HETATM   13  C15 UNL     1      72.829  83.503 111.047  1.00  0.00     0.183 A 
HETATM   14  N13 UNL     1      72.953  84.178 112.200  1.00  0.00    -0.336 N 
ATOM     15  H13 UNL     1      73.231  85.159 112.191  1.00  0.00     0.168 HD
HETATM   16  C16 UNL     1      72.705  83.547 113.379  1.00  0.00     0.143 A 
ENDROOT
BRANCH   1  17
HETATM   17  C5  UNL     1      73.116  85.329 115.019  1.00  0.00     0.278 C 
HETATM   18  O2  UNL     1      74.028  85.790 114.117  1.00  0.00    -0.350 OA
HETATM   19  C3  UNL     1      74.624  86.982 114.443  1.00  0.00     0.216 C 
HETATM   20  C2  UNL     1      73.694  87.939 115.206  1.00  0.00     0.287 C 
HETATM   21  C18 UNL     1      72.318  87.617 114.691  1.00  0.00     0.217 C 
HETATM   22  C17 UNL     1      71.954  86.237 115.192  1.00  0.00     0.202 C 
BRANCH  19  23
HETATM   23  C4  UNL     1      75.966  86.860 115.067  1.00  0.00     0.266 C 
BRANCH  23  24
HETATM   24  N4  UNL     1      76.717  88.053 115.196  1.00  0.00    -0.077 N 
ATOM     25  H43 UNL     1      77.169  88.271 114.309  1.00  0.00     0.274 HD
ATOM     26  H42 UNL     1      76.084  88.848 115.283  1.00  0.00     0.274 HD
ATOM     27  H41 UNL     1      77.407  88.080 115.948  1.00  0.00     0.274 HD
ENDBRANCH  23  24
ENDBRANCH  19  23
BRANCH  20  28
HETATM   28  O1  UNL     1      73.765  87.769 116.552  1.00  0.00    -0.280 OA
BRANCH  28  29
HETATM   29  C1  UNL     1      73.957  88.659 117.549  1.00  0.00     0.227 C 
HETATM   30  N2  UNL     1      75.213  89.407 117.615  1.00  0.00    -0.057 NA
BRANCH  29  31
HETATM   31  N1  UNL     1      73.069  88.854 118.420  1.00  0.00    -0.368 N 
ATOM     32  H12 UNL     1      72.147  89.202 118.159  1.00  0.00     0.159 HD
ATOM     33  H11 UNL     1      73.275  88.665 119.401  1.00  0.00     0.159 HD
ENDBRANCH  29  31
ENDBRANCH  28  29
ENDBRANCH  20  28
BRANCH  20  34
HETATM   34  N3  UNL     1      74.013  89.309 114.808  1.00  0.00    -0.041 N 
ATOM     35  H33 UNL     1      73.310  89.966 115.146  1.00  0.00     0.278 HD
ATOM     36  H32 UNL     1      74.823  89.663 115.318  1.00  0.00     0.278 HD
ATOM     37  H31 UNL     1      74.145  89.395 113.800  1.00  0.00     0.278 HD
ENDBRANCH  20  34
BRANCH  21  38
HETATM   38  O5  UNL     1      71.345  88.544 115.027  1.00  0.00    -0.388 OA
ATOM     39  H5  UNL     1      71.682  89.398 115.272  1.00  0.00     0.210 HD
ENDBRANCH  21  38
BRANCH  22  40
HETATM   40  O4  UNL     1      70.790  85.763 114.580  1.00  0.00    -0.388 OA
ATOM     41  H4  UNL     1      70.631  86.152 113.729  1.00  0.00     0.210 HD
ENDBRANCH  22  40
ENDBRANCH   1  17
BRANCH  10  42
HETATM   42  N11 UNL     1      71.859  80.296 112.102  1.00  0.00    -0.385 N 
ATOM     43 2H11 UNL     1      71.965  79.696 112.919  1.00  0.00     0.157 HD
ATOM     44 1H11 UNL     1      71.469  79.860 111.266  1.00  0.00     0.157 HD
ENDBRANCH  10  42
BRANCH   7  45
HETATM   45  C8  UNL     1      71.939  78.863 116.730  1.00  0.00     0.280 C 
BRANCH  45  46
HETATM   46  N8  UNL     1      71.692  77.920 115.646  1.00  0.00    -0.066 N 
ATOM     47  H83 UNL     1      72.471  77.899 114.988  1.00  0.00     0.275 HD
ATOM     48  H82 UNL     1      71.736  76.956 115.976  1.00  0.00     0.275 HD
ATOM     49  H81 UNL     1      70.811  78.110 115.170  1.00  0.00     0.275 HD
ENDBRANCH  45  46
BRANCH  45  50
HETATM   50  C9  UNL     1      71.144  78.358 117.916  1.00  0.00     0.101 C 
BRANCH  50  51
HETATM   51  C10 UNL     1      72.018  78.538 119.104  1.00  0.00     0.028 A 
HETATM   52  C11 UNL     1      73.035  77.740 119.581  1.00  0.00     0.114 A 
HETATM   53  N9  UNL     1      73.541  78.315 120.692  1.00  0.00    -0.360 N 
HETATM   54  C12 UNL     1      72.881  79.437 120.927  1.00  0.00     0.180 A 
ATOM     55  H9  UNL     1      74.305  77.945 121.257  1.00  0.00     0.166 HD
HETATM   56  N10 UNL     1      71.958  79.585 119.977  1.00  0.00    -0.355 N 
ATOM     57  H10 UNL     1      71.304  80.365 119.912  1.00  0.00     0.166 HD
ENDBRANCH  50  51
ENDBRANCH  45  50
ENDBRANCH   7  45
TORSDOF 14
ENDMDL
MODEL 5
REMARK VINA RESULT: -6.909410724      5.821      9.659
REMARK  14 active torsions:
REMARK  status: ('A' for Active; 'I' for Inactive)
REMARK    1  A    between atoms: N1_1  and  C1_4 
REMARK    2  A    between atoms: C1_4  and  O1_6 
REMARK    3  A    between atoms: O1_6  and  C2_7 
REMARK    4  A    between atoms: C2_7  and  N3_8 
REMARK    5  A    between atoms: C3_12  and  C4_13 
REMARK    6  A    between atoms: C4_13  and  N4_14 
REMARK    7  A    between atoms: C5_19  and  N5_20 
REMARK       I    between atoms: N7_24  and  C7_26 
REMARK    8  A    between atoms: C7_26  and  C8_28 
REMARK    9  A    between atoms: C8_28  and  N8_29 
REMARK   10  A    between atoms: C8_28  and  C9_33 
REMARK   11  A    between atoms: C9_33  and  C10_34 
REMARK   12  A    between atoms: C14_42  and  N11_43 
REMARK   13  A    between atoms: C17_52  and  O4_53 
REMARK   14  A    between atoms: C18_55  and  O5_56 
ROOT
HETATM    1  N5  UNL     1      72.718  83.941 114.716  1.00  0.00    -0.241 N 
HETATM    2  N6  UNL     1      72.363  82.935 115.483  1.00  0.00    -0.278 N 
ATOM      3  H6  UNL     1      72.304  82.986 116.500  1.00  0.00     0.189 HD
HETATM    4  C6  UNL     1      72.087  81.838 114.775  1.00  0.00     0.140 A 
HETATM    5  N7  UNL     1      71.713  80.676 115.141  1.00  0.00    -0.309 N 
ATOM      6  H7  UNL     1      71.560  79.983 114.408  1.00  0.00     0.170 HD
HETATM    7  C7  UNL     1      71.490  80.262 116.475  1.00  0.00     0.254 C 
HETATM    8  O3  UNL     1      71.013  81.045 117.333  1.00  0.00    -0.271 OA
HETATM    9  C13 UNL     1      72.283  82.166 113.427  1.00  0.00     0.099 A 
HETATM   10  C14 UNL     1      72.154  81.444 112.260  1.00  0.00     0.117 A 
HETATM   11  N12 UNL     1      72.438  82.110 111.097  1.00  0.00    -0.338 N 
ATOM     12  H12 UNL     1      72.358  81.622 110.205  1.00  0.00     0.168 HD
HETATM   13  C15 UNL     1      72.818  83.393 111.115  1.00  0.00     0.183 A 
HETATM   14  N13 UNL     1      72.943  84.091 112.254  1.00  0.00    -0.336 N 
ATOM     15  H13 UNL     1      73.235  85.067 112.227  1.00  0.00     0.168 HD
HETATM   16  C16 UNL     1      72.677  83.489 113.445  1.00  0.00     0.143 A 
ENDROOT
BRANCH   1  17
HETATM   17  C5  UNL     1      73.100  85.299 115.049  1.00  0.00     0.278 C 
HETATM   18  O2  UNL     1      74.002  85.739 114.127  1.00  0.00    -0.350 OA
HETATM   19  C3  UNL     1      74.614  86.931 114.426  1.00  0.00     0.216 C 
HETATM   20  C2  UNL     1      73.704  87.908 115.188  1.00  0.00     0.287 C 
HETATM   21  C18 UNL     1      72.316  87.589 114.698  1.00  0.00     0.217 C 
HETATM   22  C17 UNL     1      71.949  86.221 115.226  1.00  0.00     0.202 C 
BRANCH  19  23
HETATM   23  C4  UNL     1      75.964  86.806 115.031  1.00  0.00     0.266 C 
BRANCH  23  24
HETATM   24  N4  UNL     1      76.736  87.991 115.109  1.00  0.00    -0.077 N 
ATOM     25  H43 UNL     1      77.501  87.946 114.437  1.00  0.00     0.274 HD
ATOM     26  H42 UNL     1      76.202  88.773 114.731  1.00  0.00     0.274 HD
ATOM     27  H41 UNL     1      77.102  88.238 116.029  1.00  0.00     0.274 HD
ENDBRANCH  23  24
ENDBRANCH  19  23
BRANCH  20  28
HETATM   28  O1  UNL     1      73.793  87.757 116.535  1.00  0.00    -0.280 OA
BRANCH  28  29
HETATM   29  C1  UNL     1      74.002  88.661 117.516  1.00  0.00     0.227 C 
HETATM   30  N2  UNL     1      75.264  89.403 117.554  1.00  0.00    -0.057 NA
BRANCH  29  31
HETATM   31  N1  UNL     1      73.128  88.874 118.396  1.00  0.00    -0.368 N 
ATOM     32  H12 UNL     1      72.948  89.818 118.738  1.00  0.00     0.159 HD
ATOM     33  H11 UNL     1      72.591  88.094 118.774  1.00  0.00     0.159 HD
ENDBRANCH  29  31
ENDBRANCH  28  29
ENDBRANCH  20  28
BRANCH  20  34
HETATM   34  N3  UNL     1      74.028  89.269 114.765  1.00  0.00    -0.041 N 
ATOM     35  H33 UNL     1      74.306  89.846 115.558  1.00  0.00     0.278 HD
ATOM     36  H32 UNL     1      74.898  89.293 114.234  1.00  0.00     0.278 HD
ATOM     37  H31 UNL     1      73.265  89.699 114.243  1.00  0.00     0.278 HD
ENDBRANCH  20  34
BRANCH  21  38
HETATM   38  O5  UNL     1      71.357  88.530 115.035  1.00  0.00    -0.388 OA
ATOM     39  H5  UNL     1      70.461  88.250 114.887  1.00  0.00     0.210 HD
ENDBRANCH  21  38
BRANCH  22  40
HETATM   40  O4  UNL     1      70.771  85.747 114.639  1.00  0.00    -0.388 OA
ATOM     41  H4  UNL     1      70.766  84.805 114.521  1.00  0.00     0.210 HD
ENDBRANCH  22  40
ENDBRANCH   1  17
BRANCH  10  42
HETATM   42  N11 UNL     1      71.793  80.224 112.230  1.00  0.00    -0.385 N 
ATOM     43 2H11 UNL     1      72.396  79.499 112.619  1.00  0.00     0.157 HD
ATOM     44 1H11 UNL     1      70.908  79.911 111.831  1.00  0.00     0.157 HD
ENDBRANCH  10  42
BRANCH   7  45
HETATM   45  C8  UNL     1      71.816  78.890 116.888  1.00  0.00     0.280 C 
BRANCH  45  46
HETATM   46  N8  UNL     1      71.659  78.703 118.326  1.00  0.00    -0.066 N 
ATOM     47  H83 UNL     1      72.045  79.490 118.846  1.00  0.00     0.275 HD
ATOM     48  H82 UNL     1      70.682  78.789 118.606  1.00  0.00     0.275 HD
ATOM     49  H81 UNL     1      72.059  77.819 118.640  1.00  0.00     0.275 HD
ENDBRANCH  45  46
BRANCH  45  50
HETATM   50  C9  UNL     1      73.244  78.500 116.567  1.00  0.00     0.101 C 
BRANCH  50  51
HETATM   51  C10 UNL     1      73.158  77.413 115.558  1.00  0.00     0.028 A 
HETATM   52  C11 UNL     1      73.651  77.362 114.272  1.00  0.00     0.114 A 
HETATM   53  N9  UNL     1      73.324  76.166 113.739  1.00  0.00    -0.360 N 
HETATM   54  C12 UNL     1      72.647  75.471 114.639  1.00  0.00     0.180 A 
ATOM     55  H9  UNL     1      73.560  75.850 112.798  1.00  0.00     0.166 HD
HETATM   56  N10 UNL     1      72.539  76.211 115.742  1.00  0.00    -0.355 N 
ATOM     57  H10 UNL     1      72.064  75.922 116.597  1.00  0.00     0.166 HD
ENDBRANCH  50  51
ENDBRANCH  45  50
ENDBRANCH   7  45
TORSDOF 14
ENDMDL
