MODEL 1
REMARK VINA RESULT: -8.201164111      0.000      0.000
REMARK  12 active torsions:
REMARK  status: ('A' for Active; 'I' for Inactive)
REMARK    1  A    between atoms: C3_3  and  O1_4 
REMARK    2  A    between atoms: N2_10  and  C5_11 
REMARK    3  A    between atoms: C5_11  and  C6_12 
REMARK    4  A    between atoms: C7_14  and  C8_15 
REMARK    5  A    between atoms: C8_15  and  O4_16 
REMARK    6  A    between atoms: C8_15  and  C9_18 
REMARK    7  A    between atoms: C9_18  and  O5_19 
REMARK    8  A    between atoms: C10_22  and  N3_23 
REMARK    9  A    between atoms: C13_28  and  N5_29 
REMARK   10  A    between atoms: N5_29  and  C14_31 
REMARK   11  A    between atoms: C15_36  and  N9_37 
REMARK   12  A    between atoms: C17_43  and  O7_44 
ROOT
HETATM    1  C6  UNL     1      73.741  88.131 116.569  1.00  0.00     0.176 C 
HETATM    2  O3  UNL     1      72.718  88.865 116.028  1.00  0.00    -0.349 OA
HETATM    3  C7  UNL     1      72.094  88.488 114.915  1.00  0.00     0.293 C 
HETATM    4  O6  UNL     1      72.547  87.416 114.212  1.00  0.00    -0.331 OA
HETATM    5  C10 UNL     1      73.033  86.440 115.031  1.00  0.00     0.265 C 
HETATM    6  C17 UNL     1      74.290  87.068 115.687  1.00  0.00     0.198 C 
ENDROOT
BRANCH   5   7
HETATM    7  N3  UNL     1      73.355  85.196 114.399  1.00  0.00    -0.297 N 
HETATM    8  C11 UNL     1      74.167  85.121 113.325  1.00  0.00     0.188 A 
HETATM    9  N4  UNL     1      74.300  83.843 112.935  1.00  0.00    -0.346 N 
HETATM   10  C12 UNL     1      73.561  83.065 113.771  1.00  0.00     0.123 A 
ATOM     11  H4  UNL     1      74.858  83.513 112.148  1.00  0.00     0.167 HD
HETATM   12  C13 UNL     1      73.338  81.701 113.834  1.00  0.00     0.150 A 
HETATM   13  C16 UNL     1      72.988  83.936 114.666  1.00  0.00     0.157 A 
HETATM   14  N8  UNL     1      72.537  81.241 114.806  1.00  0.00    -0.175 N 
HETATM   15  C15 UNL     1      71.982  82.102 115.676  1.00  0.00     0.679 A 
ATOM     16  H8  UNL     1      72.349  80.242 114.884  1.00  0.00     0.186 HD
HETATM   17  N10 UNL     1      72.199  83.440 115.617  1.00  0.00    -0.174 N 
ATOM     18  H10 UNL     1      71.760  84.061 116.296  1.00  0.00     0.186 HD
BRANCH  12  19
HETATM   19  N5  UNL     1      73.887  80.915 112.981  1.00  0.00    -0.341 N 
ATOM     20  H5  UNL     1      74.900  80.799 113.017  1.00  0.00     0.164 HD
BRANCH  19  21
HETATM   21  C14 UNL     1      73.161  80.191 111.981  1.00  0.00     0.305 A 
HETATM   22  N6  UNL     1      72.787  80.870 110.749  1.00  0.00    -0.101 NA
HETATM   23  N7  UNL     1      71.797  80.481 111.740  1.00  0.00    -0.101 NA
ENDBRANCH  19  21
ENDBRANCH  12  19
BRANCH  15  24
HETATM   24  N9  UNL     1      71.205  81.676 116.620  1.00  0.00    -0.234 N 
ATOM     25  H92 UNL     1      71.005  82.323 117.382  1.00  0.00     0.174 HD
ATOM     26  H91 UNL     1      70.819  80.733 116.587  1.00  0.00     0.174 HD
ENDBRANCH  15  24
ENDBRANCH   5   7
BRANCH   6  27
HETATM   27  O7  UNL     1      74.980  86.066 116.379  1.00  0.00    -0.389 OA
ATOM     28  H7  UNL     1      74.648  85.910 117.255  1.00  0.00     0.210 HD
ENDBRANCH   6  27
BRANCH   3  29
HETATM   29  C8  UNL     1      72.002  89.675 113.947  1.00  0.00     0.197 C 
BRANCH  29  30
HETATM   30  O4  UNL     1      73.243  90.069 113.483  1.00  0.00    -0.389 OA
ATOM     31  H4  UNL     1      73.270  90.129 112.535  1.00  0.00     0.210 HD
ENDBRANCH  29  30
BRANCH  29  32
HETATM   32  C9  UNL     1      71.324  90.850 114.616  1.00  0.00     0.200 C 
BRANCH  32  33
HETATM   33  O5  UNL     1      70.081  90.544 115.117  1.00  0.00    -0.398 OA
ATOM     34  H5  UNL     1      69.923  89.610 115.183  1.00  0.00     0.209 HD
ENDBRANCH  32  33
ENDBRANCH  29  32
ENDBRANCH   3  29
BRANCH   1  35
HETATM   35  C5  UNL     1      74.739  89.006 117.270  1.00  0.00     0.171 C 
BRANCH  35  36
HETATM   36  N2  UNL     1      75.023  88.624 118.633  1.00  0.00    -0.263 N 
HETATM   37  C4  UNL     1      74.213  88.973 119.648  1.00  0.00     0.331 A 
HETATM   38  N1  UNL     1      74.474  88.638 120.939  1.00  0.00    -0.288 N 
HETATM   39  O2  UNL     1      73.159  89.633 119.456  1.00  0.00    -0.246 OA
HETATM   40  C3  UNL     1      75.580  87.937 121.186  1.00  0.00     0.155 A 
ATOM     41  H1  UNL     1      73.845  88.914 121.693  1.00  0.00     0.172 HD
HETATM   42  C2  UNL     1      76.456  87.543 120.202  1.00  0.00     0.057 A 
HETATM   43  C1  UNL     1      77.696  86.755 120.487  1.00  0.00     0.059 C 
HETATM   44  C18 UNL     1      76.155  87.902 118.912  1.00  0.00     0.261 A 
HETATM   45  O8  UNL     1      76.938  87.560 117.968  1.00  0.00    -0.267 OA
BRANCH  40  46
HETATM   46  O1  UNL     1      75.900  87.564 122.496  1.00  0.00    -0.345 OA
ATOM     47  H1  UNL     1      76.612  88.037 122.912  1.00  0.00     0.219 HD
ENDBRANCH  40  46
ENDBRANCH  35  36
ENDBRANCH   1  35
TORSDOF 12
ENDMDL
MODEL 2
REMARK VINA RESULT: -8.012000316      1.286      2.499
REMARK  12 active torsions:
REMARK  status: ('A' for Active; 'I' for Inactive)
REMARK    1  A    between atoms: C3_3  and  O1_4 
REMARK    2  A    between atoms: N2_10  and  C5_11 
REMARK    3  A    between atoms: C5_11  and  C6_12 
REMARK    4  A    between atoms: C7_14  and  C8_15 
REMARK    5  A    between atoms: C8_15  and  O4_16 
REMARK    6  A    between atoms: C8_15  and  C9_18 
REMARK    7  A    between atoms: C9_18  and  O5_19 
REMARK    8  A    between atoms: C10_22  and  N3_23 
REMARK    9  A    between atoms: C13_28  and  N5_29 
REMARK   10  A    between atoms: N5_29  and  C14_31 
REMARK   11  A    between atoms: C15_36  and  N9_37 
REMARK   12  A    between atoms: C17_43  and  O7_44 
ROOT
HETATM    1  C6  UNL     1      73.763  88.259 116.821  1.00  0.00     0.176 C 
HETATM    2  O3  UNL     1      72.780  89.162 116.513  1.00  0.00    -0.349 OA
HETATM    3  C7  UNL     1      71.915  88.951 115.524  1.00  0.00     0.293 C 
HETATM    4  O6  UNL     1      72.069  87.875 114.706  1.00  0.00    -0.331 OA
HETATM    5  C10 UNL     1      72.544  86.789 115.379  1.00  0.00     0.265 C 
HETATM    6  C17 UNL     1      73.978  87.190 115.810  1.00  0.00     0.198 C 
ENDROOT
BRANCH   5   7
HETATM    7  N3  UNL     1      72.556  85.557 114.651  1.00  0.00    -0.297 N 
HETATM    8  C11 UNL     1      72.118  84.398 115.185  1.00  0.00     0.188 A 
HETATM    9  N4  UNL     1      72.239  83.403 114.293  1.00  0.00    -0.346 N 
HETATM   10  C12 UNL     1      72.766  83.919 113.150  1.00  0.00     0.123 A 
ATOM     11  H4  UNL     1      71.980  82.428 114.445  1.00  0.00     0.167 HD
HETATM   12  C13 UNL     1      73.097  83.357 111.929  1.00  0.00     0.150 A 
HETATM   13  C16 UNL     1      72.951  85.256 113.407  1.00  0.00     0.157 A 
HETATM   14  N8  UNL     1      73.610  84.162 110.988  1.00  0.00    -0.175 N 
HETATM   15  C15 UNL     1      73.786  85.468 111.250  1.00  0.00     0.679 A 
ATOM     16  H8  UNL     1      73.867  83.783 110.076  1.00  0.00     0.186 HD
HETATM   17  N10 UNL     1      73.463  86.022 112.445  1.00  0.00    -0.174 N 
ATOM     18  H10 UNL     1      73.611  87.018 112.606  1.00  0.00     0.186 HD
BRANCH  12  19
HETATM   19  N5  UNL     1      72.913  82.104 111.723  1.00  0.00    -0.341 N 
ATOM     20  H5  UNL     1      73.593  81.448 112.108  1.00  0.00     0.164 HD
BRANCH  19  21
HETATM   21  C14 UNL     1      71.809  81.571 110.982  1.00  0.00     0.305 A 
HETATM   22  N6  UNL     1      72.060  80.940 109.694  1.00  0.00    -0.101 NA
HETATM   23  N7  UNL     1      71.366  82.212 109.801  1.00  0.00    -0.101 NA
ENDBRANCH  19  21
ENDBRANCH  12  19
BRANCH  15  24
HETATM   24  N9  UNL     1      74.281  86.259 110.353  1.00  0.00    -0.234 N 
ATOM     25  H92 UNL     1      75.154  85.969 109.913  1.00  0.00     0.174 HD
ATOM     26  H91 UNL     1      73.806  87.128 110.108  1.00  0.00     0.174 HD
ENDBRANCH  15  24
ENDBRANCH   5   7
BRANCH   6  27
HETATM   27  O7  UNL     1      74.624  86.058 116.320  1.00  0.00    -0.389 OA
ATOM     28  H7  UNL     1      74.031  85.415 116.691  1.00  0.00     0.210 HD
ENDBRANCH   6  27
BRANCH   3  29
HETATM   29  C8  UNL     1      71.828  90.201 114.637  1.00  0.00     0.197 C 
BRANCH  29  30
HETATM   30  O4  UNL     1      70.721  90.974 114.930  1.00  0.00    -0.389 OA
ATOM     31  H4  UNL     1      70.389  91.430 114.166  1.00  0.00     0.210 HD
ENDBRANCH  29  30
BRANCH  29  32
HETATM   32  C9  UNL     1      71.791  89.809 113.177  1.00  0.00     0.200 C 
BRANCH  32  33
HETATM   33  O5  UNL     1      73.012  89.404 112.692  1.00  0.00    -0.398 OA
ATOM     34  H5  UNL     1      73.305  89.912 111.945  1.00  0.00     0.209 HD
ENDBRANCH  32  33
ENDBRANCH  29  32
ENDBRANCH   3  29
BRANCH   1  35
HETATM   35  C5  UNL     1      74.991  88.937 117.354  1.00  0.00     0.171 C 
BRANCH  35  36
HETATM   36  N2  UNL     1      75.341  88.575 118.707  1.00  0.00    -0.263 N 
HETATM   37  C4  UNL     1      74.735  89.136 119.769  1.00  0.00     0.331 A 
HETATM   38  N1  UNL     1      75.064  88.820 121.049  1.00  0.00    -0.288 N 
HETATM   39  O2  UNL     1      73.821  89.990 119.633  1.00  0.00    -0.246 OA
HETATM   40  C3  UNL     1      76.027  87.917 121.237  1.00  0.00     0.155 A 
ATOM     41  H1  UNL     1      74.591  89.259 121.839  1.00  0.00     0.172 HD
HETATM   42  C2  UNL     1      76.691  87.300 120.203  1.00  0.00     0.057 A 
HETATM   43  C1  UNL     1      77.770  86.287 120.422  1.00  0.00     0.059 C 
HETATM   44  C18 UNL     1      76.328  87.648 118.926  1.00  0.00     0.261 A 
HETATM   45  O8  UNL     1      76.917  87.103 117.937  1.00  0.00    -0.267 OA
BRANCH  40  46
HETATM   46  O1  UNL     1      76.407  87.554 122.533  1.00  0.00    -0.345 OA
ATOM     47  H1  UNL     1      76.217  88.178 123.224  1.00  0.00     0.219 HD
ENDBRANCH  40  46
ENDBRANCH  35  36
ENDBRANCH   1  35
TORSDOF 12
ENDMDL
MODEL 3
REMARK VINA RESULT: -7.996378110      1.175      2.026
REMARK  12 active torsions:
REMARK  status: ('A' for Active; 'I' for Inactive)
REMARK    1  A    between atoms: C3_3  and  O1_4 
REMARK    2  A    between atoms: N2_10  and  C5_11 
REMARK    3  A    between atoms: C5_11  and  C6_12 
REMARK    4  A    between atoms: C7_14  and  C8_15 
REMARK    5  A    between atoms: C8_15  and  O4_16 
REMARK    6  A    between atoms: C8_15  and  C9_18 
REMARK    7  A    between atoms: C9_18  and  O5_19 
REMARK    8  A    between atoms: C10_22  and  N3_23 
REMARK    9  A    between atoms: C13_28  and  N5_29 
REMARK   10  A    between atoms: N5_29  and  C14_31 
REMARK   11  A    between atoms: C15_36  and  N9_37 
REMARK   12  A    between atoms: C17_43  and  O7_44 
ROOT
HETATM    1  C6  UNL     1      74.109  87.738 116.421  1.00  0.00     0.176 C 
HETATM    2  O3  UNL     1      73.066  88.624 116.356  1.00  0.00    -0.349 OA
HETATM    3  C7  UNL     1      72.093  88.501 115.457  1.00  0.00     0.293 C 
HETATM    4  O6  UNL     1      72.180  87.550 114.489  1.00  0.00    -0.331 OA
HETATM    5  C10 UNL     1      72.771  86.410 114.947  1.00  0.00     0.265 C 
HETATM    6  C17 UNL     1      74.233  86.823 115.256  1.00  0.00     0.198 C 
ENDROOT
BRANCH   5   7
HETATM    7  N3  UNL     1      72.734  85.285 114.062  1.00  0.00    -0.297 N 
HETATM    8  C11 UNL     1      73.013  85.394 112.747  1.00  0.00     0.188 A 
HETATM    9  N4  UNL     1      72.905  84.195 112.152  1.00  0.00    -0.346 N 
HETATM   10  C12 UNL     1      72.549  83.283 113.096  1.00  0.00     0.123 A 
ATOM     11  H4  UNL     1      73.064  84.002 111.164  1.00  0.00     0.167 HD
HETATM   12  C13 UNL     1      72.305  81.922 113.044  1.00  0.00     0.150 A 
HETATM   13  C16 UNL     1      72.450  83.993 114.268  1.00  0.00     0.157 A 
HETATM   14  N8  UNL     1      71.964  81.302 114.183  1.00  0.00    -0.175 N 
HETATM   15  C15 UNL     1      71.871  82.006 115.324  1.00  0.00     0.679 A 
ATOM     16  H8  UNL     1      71.776  80.300 114.183  1.00  0.00     0.186 HD
HETATM   17  N10 UNL     1      72.110  83.340 115.378  1.00  0.00    -0.174 N 
ATOM     18  H10 UNL     1      72.029  83.841 116.263  1.00  0.00     0.186 HD
BRANCH  12  19
HETATM   19  N5  UNL     1      72.403  81.289 111.932  1.00  0.00    -0.341 N 
ATOM     20  H5  UNL     1      73.032  80.486 111.890  1.00  0.00     0.164 HD
BRANCH  19  21
HETATM   21  C14 UNL     1      71.683  81.643 110.746  1.00  0.00     0.305 A 
HETATM   22  N6  UNL     1      71.980  80.945 109.502  1.00  0.00    -0.101 NA
HETATM   23  N7  UNL     1      72.329  82.343 109.699  1.00  0.00    -0.101 NA
ENDBRANCH  19  21
ENDBRANCH  12  19
BRANCH  15  24
HETATM   24  N9  UNL     1      71.543  81.424 116.432  1.00  0.00    -0.234 N 
ATOM     25  H92 UNL     1      70.912  80.626 116.366  1.00  0.00     0.174 HD
ATOM     26  H91 UNL     1      71.908  81.761 117.323  1.00  0.00     0.174 HD
ENDBRANCH  15  24
ENDBRANCH   5   7
BRANCH   6  27
HETATM   27  O7  UNL     1      74.975  85.667 115.527  1.00  0.00    -0.389 OA
ATOM     28  H7  UNL     1      74.665  84.898 115.064  1.00  0.00     0.210 HD
ENDBRANCH   6  27
BRANCH   3  29
HETATM   29  C8  UNL     1      71.855  89.850 114.765  1.00  0.00     0.197 C 
BRANCH  29  30
HETATM   30  O4  UNL     1      70.511  90.157 114.666  1.00  0.00    -0.389 OA
ATOM     31  H4  UNL     1      70.344  90.831 114.018  1.00  0.00     0.210 HD
ENDBRANCH  29  30
BRANCH  29  32
HETATM   32  C9  UNL     1      72.470  89.848 113.383  1.00  0.00     0.200 C 
BRANCH  32  33
HETATM   33  O5  UNL     1      73.843  89.883 113.400  1.00  0.00    -0.398 OA
ATOM     34  H5  UNL     1      74.223  90.122 112.563  1.00  0.00     0.209 HD
ENDBRANCH  32  33
ENDBRANCH  29  32
ENDBRANCH   3  29
BRANCH   1  35
HETATM   35  C5  UNL     1      75.371  88.401 116.892  1.00  0.00     0.171 C 
BRANCH  35  36
HETATM   36  N2  UNL     1      75.772  88.050 118.234  1.00  0.00    -0.263 N 
HETATM   37  C4  UNL     1      76.519  86.960 118.485  1.00  0.00     0.331 A 
HETATM   38  N1  UNL     1      76.890  86.604 119.743  1.00  0.00    -0.288 N 
HETATM   39  O2  UNL     1      76.918  86.204 117.562  1.00  0.00    -0.246 OA
HETATM   40  C3  UNL     1      76.489  87.379 120.751  1.00  0.00     0.155 A 
ATOM     41  H1  UNL     1      77.457  85.772 119.910  1.00  0.00     0.172 HD
HETATM   42  C2  UNL     1      75.726  88.509 120.572  1.00  0.00     0.057 A 
HETATM   43  C1  UNL     1      75.280  89.374 121.709  1.00  0.00     0.059 C 
HETATM   44  C18 UNL     1      75.372  88.832 119.286  1.00  0.00     0.261 A 
HETATM   45  O8  UNL     1      74.665  89.869 119.074  1.00  0.00    -0.267 OA
BRANCH  40  46
HETATM   46  O1  UNL     1      76.843  87.061 122.067  1.00  0.00    -0.345 OA
ATOM     47  H1  UNL     1      77.739  86.782 122.212  1.00  0.00     0.219 HD
ENDBRANCH  40  46
ENDBRANCH  35  36
ENDBRANCH   1  35
TORSDOF 12
ENDMDL
MODEL 4
REMARK VINA RESULT: -7.879353111      1.599      2.908
REMARK  12 active torsions:
REMARK  status: ('A' for Active; 'I' for Inactive)
REMARK    1  A    between atoms: C3_3  and  O1_4 
REMARK    2  A    between atoms: N2_10  and  C5_11 
REMARK    3  A    between atoms: C5_11  and  C6_12 
REMARK    4  A    between atoms: C7_14  and  C8_15 
REMARK    5  A    between atoms: C8_15  and  O4_16 
REMARK    6  A    between atoms: C8_15  and  C9_18 
REMARK    7  A    between atoms: C9_18  and  O5_19 
REMARK    8  A    between atoms: C10_22  and  N3_23 
REMARK    9  A    between atoms: C13_28  and  N5_29 
REMARK   10  A    between atoms: N5_29  and  C14_31 
REMARK   11  A    between atoms: C15_36  and  N9_37 
REMARK   12  A    between atoms: C17_43  and  O7_44 
ROOT
HETATM    1  C6  UNL     1      74.194  87.572 116.226  1.00  0.00     0.176 C 
HETATM    2  O3  UNL     1      73.460  88.597 115.692  1.00  0.00    -0.349 OA
HETATM    3  C7  UNL     1      72.579  88.398 114.715  1.00  0.00     0.293 C 
HETATM    4  O6  UNL     1      72.476  87.174 114.133  1.00  0.00    -0.331 OA
HETATM    5  C10 UNL     1      72.670  86.166 115.031  1.00  0.00     0.265 C 
HETATM    6  C17 UNL     1      74.154  86.300 115.457  1.00  0.00     0.198 C 
ENDROOT
BRANCH   5   7
HETATM    7  N3  UNL     1      72.392  84.843 114.558  1.00  0.00    -0.297 N 
HETATM    8  C11 UNL     1      71.957  83.862 115.375  1.00  0.00     0.188 A 
HETATM    9  N4  UNL     1      71.775  82.729 114.678  1.00  0.00    -0.346 N 
HETATM   10  C12 UNL     1      72.097  82.972 113.379  1.00  0.00     0.123 A 
ATOM     11  H4  UNL     1      71.452  81.839 115.058  1.00  0.00     0.167 HD
HETATM   12  C13 UNL     1      72.095  82.179 112.245  1.00  0.00     0.150 A 
HETATM   13  C16 UNL     1      72.476  84.292 113.341  1.00  0.00     0.157 A 
HETATM   14  N8  UNL     1      72.478  82.738 111.089  1.00  0.00    -0.175 N 
HETATM   15  C15 UNL     1      72.846  84.031 111.062  1.00  0.00     0.679 A 
ATOM     16  H8  UNL     1      72.490  82.185 110.232  1.00  0.00     0.186 HD
HETATM   17  N10 UNL     1      72.849  84.811 112.172  1.00  0.00    -0.174 N 
ATOM     18  H10 UNL     1      73.135  85.788 112.112  1.00  0.00     0.186 HD
BRANCH  12  19
HETATM   19  N5  UNL     1      71.737  80.948 112.317  1.00  0.00    -0.341 N 
ATOM     20  H5  UNL     1      70.829  80.689 111.932  1.00  0.00     0.164 HD
BRANCH  19  21
HETATM   21  C14 UNL     1      72.540  79.918 112.905  1.00  0.00     0.305 A 
HETATM   22  N6  UNL     1      71.907  78.666 113.296  1.00  0.00    -0.101 NA
HETATM   23  N7  UNL     1      72.411  79.610 114.280  1.00  0.00    -0.101 NA
ENDBRANCH  19  21
ENDBRANCH  12  19
BRANCH  15  24
HETATM   24  N9  UNL     1      73.219  84.587 109.954  1.00  0.00    -0.234 N 
ATOM     25  H92 UNL     1      72.601  84.475 109.151  1.00  0.00     0.174 HD
ATOM     26  H91 UNL     1      74.093  85.110 109.905  1.00  0.00     0.174 HD
ENDBRANCH  15  24
ENDBRANCH   5   7
BRANCH   6  27
HETATM   27  O7  UNL     1      74.505  85.176 116.213  1.00  0.00    -0.389 OA
ATOM     28  H7  UNL     1      74.351  84.352 115.766  1.00  0.00     0.210 HD
ENDBRANCH   6  27
BRANCH   3  29
HETATM   29  C8  UNL     1      72.803  89.427 113.599  1.00  0.00     0.197 C 
BRANCH  29  30
HETATM   30  O4  UNL     1      72.016  89.176 112.491  1.00  0.00    -0.389 OA
ATOM     31  H4  UNL     1      71.905  89.947 111.947  1.00  0.00     0.210 HD
ENDBRANCH  29  30
BRANCH  29  32
HETATM   32  C9  UNL     1      74.257  89.446 113.185  1.00  0.00     0.200 C 
BRANCH  32  33
HETATM   33  O5  UNL     1      74.920  90.581 113.587  1.00  0.00    -0.398 OA
ATOM     34  H5  UNL     1      74.669  91.355 113.096  1.00  0.00     0.209 HD
ENDBRANCH  32  33
ENDBRANCH  29  32
ENDBRANCH   3  29
BRANCH   1  35
HETATM   35  C5  UNL     1      75.544  88.037 116.687  1.00  0.00     0.171 C 
BRANCH  35  36
HETATM   36  N2  UNL     1      75.823  87.794 118.083  1.00  0.00    -0.263 N 
HETATM   37  C4  UNL     1      76.513  86.713 118.488  1.00  0.00     0.331 A 
HETATM   38  N1  UNL     1      76.769  86.459 119.798  1.00  0.00    -0.288 N 
HETATM   39  O2  UNL     1      76.965  85.872 117.668  1.00  0.00    -0.246 OA
HETATM   40  C3  UNL     1      76.309  87.327 120.699  1.00  0.00     0.155 A 
ATOM     41  H1  UNL     1      77.294  85.632 120.082  1.00  0.00     0.172 HD
HETATM   42  C2  UNL     1      75.597  88.454 120.362  1.00  0.00     0.057 A 
HETATM   43  C1  UNL     1      75.084  89.424 121.380  1.00  0.00     0.059 C 
HETATM   44  C18 UNL     1      75.360  88.673 119.028  1.00  0.00     0.261 A 
HETATM   45  O8  UNL     1      74.704  89.703 118.670  1.00  0.00    -0.267 OA
BRANCH  40  46
HETATM   46  O1  UNL     1      76.542  87.115 122.062  1.00  0.00    -0.345 OA
ATOM     47  H1  UNL     1      77.395  87.374 122.394  1.00  0.00     0.219 HD
ENDBRANCH  40  46
ENDBRANCH  35  36
ENDBRANCH   1  35
TORSDOF 12
ENDMDL
MODEL 5
REMARK VINA RESULT: -7.874253367      4.383      8.023
REMARK  12 active torsions:
REMARK  status: ('A' for Active; 'I' for Inactive)
REMARK    1  A    between atoms: C3_3  and  O1_4 
REMARK    2  A    between atoms: N2_10  and  C5_11 
REMARK    3  A    between atoms: C5_11  and  C6_12 
REMARK    4  A    between atoms: C7_14  and  C8_15 
REMARK    5  A    between atoms: C8_15  and  O4_16 
REMARK    6  A    between atoms: C8_15  and  C9_18 
REMARK    7  A    between atoms: C9_18  and  O5_19 
REMARK    8  A    between atoms: C10_22  and  N3_23 
REMARK    9  A    between atoms: C13_28  and  N5_29 
REMARK   10  A    between atoms: N5_29  and  C14_31 
REMARK   11  A    between atoms: C15_36  and  N9_37 
REMARK   12  A    between atoms: C17_43  and  O7_44 
ROOT
HETATM    1  C6  UNL     1      73.831  80.396 115.623  1.00  0.00     0.176 C 
HETATM    2  O3  UNL     1      73.395  80.162 114.346  1.00  0.00    -0.349 OA
HETATM    3  C7  UNL     1      73.142  81.154 113.496  1.00  0.00     0.293 C 
HETATM    4  O6  UNL     1      73.195  82.444 113.923  1.00  0.00    -0.331 OA
HETATM    5  C10 UNL     1      74.179  82.633 114.848  1.00  0.00     0.265 C 
HETATM    6  C17 UNL     1      73.724  81.807 116.078  1.00  0.00     0.198 C 
ENDROOT
BRANCH   5   7
HETATM    7  N3  UNL     1      74.441  83.992 115.214  1.00  0.00    -0.297 N 
HETATM    8  C11 UNL     1      75.687  84.445 115.459  1.00  0.00     0.188 A 
HETATM    9  N4  UNL     1      75.650  85.748 115.779  1.00  0.00    -0.346 N 
HETATM   10  C12 UNL     1      74.354  86.158 115.743  1.00  0.00     0.123 A 
ATOM     11  H4  UNL     1      76.455  86.331 116.010  1.00  0.00     0.167 HD
HETATM   12  C13 UNL     1      73.746  87.378 115.981  1.00  0.00     0.150 A 
HETATM   13  C16 UNL     1      73.631  85.044 115.390  1.00  0.00     0.157 A 
HETATM   14  N8  UNL     1      72.413  87.449 115.857  1.00  0.00    -0.175 N 
HETATM   15  C15 UNL     1      71.715  86.352 115.511  1.00  0.00     0.679 A 
ATOM     16  H8  UNL     1      71.929  88.331 116.025  1.00  0.00     0.186 HD
HETATM   17  N10 UNL     1      72.309  85.155 115.277  1.00  0.00    -0.174 N 
ATOM     18  H10 UNL     1      71.746  84.346 115.017  1.00  0.00     0.186 HD
BRANCH  12  19
HETATM   19  N5  UNL     1      74.450  88.399 116.311  1.00  0.00    -0.341 N 
ATOM     20  H5  UNL     1      74.307  88.802 117.237  1.00  0.00     0.164 HD
BRANCH  19  21
HETATM   21  C14 UNL     1      75.425  89.005 115.455  1.00  0.00     0.305 A 
HETATM   22  N6  UNL     1      76.834  88.913 115.812  1.00  0.00    -0.101 NA
HETATM   23  N7  UNL     1      76.110  90.172 115.867  1.00  0.00    -0.101 NA
ENDBRANCH  19  21
ENDBRANCH  12  19
BRANCH  15  24
HETATM   24  N9  UNL     1      70.428  86.403 115.388  1.00  0.00    -0.234 N 
ATOM     25  H92 UNL     1      69.880  86.363 116.247  1.00  0.00     0.174 HD
ATOM     26  H91 UNL     1      69.998  86.480 114.467  1.00  0.00     0.174 HD
ENDBRANCH  15  24
ENDBRANCH   5   7
BRANCH   6  27
HETATM   27  O7  UNL     1      74.562  82.114 117.157  1.00  0.00    -0.389 OA
ATOM     28  H7  UNL     1      74.891  83.004 117.142  1.00  0.00     0.210 HD
ENDBRANCH   6  27
BRANCH   3  29
HETATM   29  C8  UNL     1      71.772  80.937 112.839  1.00  0.00     0.197 C 
BRANCH  29  30
HETATM   30  O4  UNL     1      71.441  79.598 112.749  1.00  0.00    -0.389 OA
ATOM     31  H4  UNL     1      70.522  79.443 112.928  1.00  0.00     0.210 HD
ENDBRANCH  29  30
BRANCH  29  32
HETATM   32  C9  UNL     1      71.747  81.551 111.457  1.00  0.00     0.200 C 
BRANCH  32  33
HETATM   33  O5  UNL     1      72.453  80.825 110.528  1.00  0.00    -0.398 OA
ATOM     34  H5  UNL     1      72.498  81.247 109.678  1.00  0.00     0.209 HD
ENDBRANCH  32  33
ENDBRANCH  29  32
ENDBRANCH   3  29
BRANCH   1  35
HETATM   35  C5  UNL     1      73.346  79.343 116.576  1.00  0.00     0.171 C 
BRANCH  35  36
HETATM   36  N2  UNL     1      72.094  79.649 117.228  1.00  0.00    -0.263 N 
HETATM   37  C4  UNL     1      70.912  79.426 116.627  1.00  0.00     0.331 A 
HETATM   38  N1  UNL     1      69.725  79.725 117.218  1.00  0.00    -0.288 N 
HETATM   39  O2  UNL     1      70.839  78.922 115.477  1.00  0.00    -0.246 OA
HETATM   40  C3  UNL     1      69.758  80.258 118.439  1.00  0.00     0.155 A 
ATOM     41  H1  UNL     1      68.840  79.547 116.744  1.00  0.00     0.172 HD
HETATM   42  C2  UNL     1      70.926  80.514 119.117  1.00  0.00     0.057 A 
HETATM   43  C1  UNL     1      70.955  81.113 120.488  1.00  0.00     0.059 C 
HETATM   44  C18 UNL     1      72.102  80.198 118.484  1.00  0.00     0.261 A 
HETATM   45  O8  UNL     1      73.209  80.419 119.073  1.00  0.00    -0.267 OA
BRANCH  40  46
HETATM   46  O1  UNL     1      68.566  80.586 119.096  1.00  0.00    -0.345 OA
ATOM     47  H1  UNL     1      67.799  80.713 118.549  1.00  0.00     0.219 HD
ENDBRANCH  40  46
ENDBRANCH  35  36
ENDBRANCH   1  35
TORSDOF 12
ENDMDL
