MODEL 1
REMARK VINA RESULT: -7.605486933      0.000      0.000
REMARK  21 active torsions:
REMARK  status: ('A' for Active; 'I' for Inactive)
REMARK    1  A    between atoms: C1_2  and  C2_3 
REMARK    2  A    between atoms: C1_2  and  C11_14 
REMARK    3  A    between atoms: C3_4  and  C4_5 
REMARK    4  A    between atoms: C4_5  and  C5_6 
REMARK    5  A    between atoms: C5_6  and  C6_7 
REMARK    6  A    between atoms: C6_7  and  C7_8 
REMARK    7  A    between atoms: C7_8  and  C8_9 
REMARK    8  A    between atoms: C8_9  and  C9_10 
REMARK    9  A    between atoms: C9_10  and  C10_11 
REMARK   10  A    between atoms: C10_11  and  O1_12 
REMARK   11  A    between atoms: C11_14  and  C12_15 
REMARK   12  A    between atoms: C13_16  and  N2_17 
REMARK   13  A    between atoms: C14_21  and  O2_22 
REMARK   14  A    between atoms: O2_22  and  C15_23 
REMARK   15  A    between atoms: C17_25  and  C18_26 
REMARK   16  A    between atoms: C19_27  and  C20_28 
REMARK   17  A    between atoms: C20_28  and  O3_29 
REMARK   18  A    between atoms: C20_28  and  O4_31 
REMARK   19  A    between atoms: C24_38  and  O5_39 
REMARK   20  A    between atoms: C25_41  and  O6_42 
REMARK   21  A    between atoms: C26_44  and  O7_45 
ROOT
HETATM    1  C12 UNL     1      72.559  21.345  29.945  1.00  0.00     0.055 C 
HETATM    2  C13 UNL     1      72.107  20.182  29.118  1.00  0.00     0.222 C 
HETATM    3  C14 UNL     1      70.577  20.124  29.060  1.00  0.00     0.191 C 
HETATM    4  C24 UNL     1      69.969  21.370  28.479  1.00  0.00     0.180 C 
HETATM    5  C25 UNL     1      70.418  22.524  29.382  1.00  0.00     0.178 C 
HETATM    6  C26 UNL     1      71.904  22.610  29.373  1.00  0.00     0.156 C 
ENDROOT
BRANCH   3   7
HETATM    7  O2  UNL     1      70.205  18.955  28.432  1.00  0.00    -0.338 OA
BRANCH   7   8
HETATM    8  C15 UNL     1      69.088  18.198  28.540  1.00  0.00     0.109 A 
HETATM    9  C16 UNL     1      68.185  18.313  29.577  1.00  0.00     0.063 A 
HETATM   10  C17 UNL     1      67.046  17.546  29.694  1.00  0.00     0.059 A 
HETATM   11  C21 UNL     1      66.802  16.603  28.700  1.00  0.00     0.138 A 
HETATM   12  F1  UNL     1      65.693  15.839  28.789  1.00  0.00    -0.204 F 
HETATM   13  C22 UNL     1      67.669  16.444  27.638  1.00  0.00     0.089 A 
HETATM   14  C23 UNL     1      68.792  17.236  27.572  1.00  0.00     0.152 A 
HETATM   15  F2  UNL     1      69.641  17.077  26.529  1.00  0.00    -0.203 F 
BRANCH  10  16
HETATM   16  C18 UNL     1      66.144  17.716  30.803  1.00  0.00    -0.059 C 
HETATM   17  C19 UNL     1      65.396  17.868  31.746  1.00  0.00    -0.041 C 
BRANCH  17  18
HETATM   18  C20 UNL     1      64.495  18.073  32.897  1.00  0.00     0.338 C 
BRANCH  18  19
HETATM   19  O3  UNL     1      65.221  18.042  34.106  1.00  0.00    -0.361 OA
ATOM     20  H3  UNL     1      64.707  18.413  34.813  1.00  0.00     0.213 HD
ENDBRANCH  18  19
BRANCH  18  21
HETATM   21  O4  UNL     1      63.902  19.344  32.847  1.00  0.00    -0.361 OA
ATOM     22  H4  UNL     1      64.137  19.795  32.044  1.00  0.00     0.213 HD
ENDBRANCH  18  21
ENDBRANCH  17  18
ENDBRANCH  10  16
ENDBRANCH   7   8
ENDBRANCH   3   7
BRANCH   2  23
HETATM   23  N2  UNL     1      72.676  20.146  27.795  1.00  0.00    -0.072 N 
ATOM     24  H23 UNL     1      71.941  20.103  27.090  1.00  0.00     0.274 HD
ATOM     25  H22 UNL     1      73.089  21.048  27.559  1.00  0.00     0.274 HD
ATOM     26  H21 UNL     1      73.352  19.395  27.654  1.00  0.00     0.274 HD
ENDBRANCH   2  23
BRANCH   4  27
HETATM   27  O5  UNL     1      70.257  21.585  27.160  1.00  0.00    -0.390 OA
ATOM     28  H5  UNL     1      70.035  20.865  26.582  1.00  0.00     0.210 HD
ENDBRANCH   4  27
BRANCH   1  29
HETATM   29  C11 UNL     1      74.005  21.605  29.964  1.00  0.00     0.063 C 
BRANCH  29  30
HETATM   30  C1  UNL     1      74.709  21.987  28.700  1.00  0.00     0.024 C 
HETATM   31  N1  UNL     1      75.759  21.106  28.372  1.00  0.00    -0.107 NA
BRANCH  30  32
HETATM   32  C2  UNL     1      74.918  23.444  28.575  1.00  0.00     0.018 C 
HETATM   33  C3  UNL     1      74.520  24.263  27.462  1.00  0.00    -0.025 C 
BRANCH  33  34
HETATM   34  C4  UNL     1      74.920  24.211  26.070  1.00  0.00     0.027 C 
BRANCH  34  35
HETATM   35  C5  UNL     1      75.426  25.410  25.382  1.00  0.00     0.004 C 
BRANCH  35  36
HETATM   36  C6  UNL     1      75.595  26.555  26.412  1.00  0.00     0.000 C 
BRANCH  36  37
HETATM   37  C7  UNL     1      77.037  26.616  26.716  1.00  0.00     0.000 C 
BRANCH  37  38
HETATM   38  C8  UNL     1      77.538  26.237  28.039  1.00  0.00     0.002 C 
BRANCH  38  39
HETATM   39  C9  UNL     1      78.489  25.138  28.234  1.00  0.00     0.026 C 
BRANCH  39  40
HETATM   40  C10 UNL     1      78.348  23.918  27.382  1.00  0.00     0.164 C 
BRANCH  40  41
HETATM   41  O1  UNL     1      78.332  22.764  28.162  1.00  0.00    -0.401 OA
ATOM     42  H1  UNL     1      77.463  22.378  28.180  1.00  0.00     0.209 HD
ENDBRANCH  40  41
ENDBRANCH  39  40
ENDBRANCH  38  39
ENDBRANCH  37  38
ENDBRANCH  36  37
ENDBRANCH  35  36
ENDBRANCH  34  35
ENDBRANCH  33  34
ENDBRANCH  30  32
ENDBRANCH  29  30
ENDBRANCH   1  29
BRANCH   5  43
HETATM   43  O6  UNL     1      69.896  22.250  30.643  1.00  0.00    -0.390 OA
ATOM     44  H6  UNL     1      69.110  21.736  30.495  1.00  0.00     0.210 HD
ENDBRANCH   5  43
BRANCH   6  45
HETATM   45  O7  UNL     1      72.332  23.729  30.073  1.00  0.00    -0.392 OA
ATOM     46  H7  UNL     1      72.179  24.514  29.561  1.00  0.00     0.210 HD
ENDBRANCH   6  45
TORSDOF 21
ENDMDL
MODEL 2
REMARK VINA RESULT: -7.499238613      1.301      1.973
REMARK  21 active torsions:
REMARK  status: ('A' for Active; 'I' for Inactive)
REMARK    1  A    between atoms: C1_2  and  C2_3 
REMARK    2  A    between atoms: C1_2  and  C11_14 
REMARK    3  A    between atoms: C3_4  and  C4_5 
REMARK    4  A    between atoms: C4_5  and  C5_6 
REMARK    5  A    between atoms: C5_6  and  C6_7 
REMARK    6  A    between atoms: C6_7  and  C7_8 
REMARK    7  A    between atoms: C7_8  and  C8_9 
REMARK    8  A    between atoms: C8_9  and  C9_10 
REMARK    9  A    between atoms: C9_10  and  C10_11 
REMARK   10  A    between atoms: C10_11  and  O1_12 
REMARK   11  A    between atoms: C11_14  and  C12_15 
REMARK   12  A    between atoms: C13_16  and  N2_17 
REMARK   13  A    between atoms: C14_21  and  O2_22 
REMARK   14  A    between atoms: O2_22  and  C15_23 
REMARK   15  A    between atoms: C17_25  and  C18_26 
REMARK   16  A    between atoms: C19_27  and  C20_28 
REMARK   17  A    between atoms: C20_28  and  O3_29 
REMARK   18  A    between atoms: C20_28  and  O4_31 
REMARK   19  A    between atoms: C24_38  and  O5_39 
REMARK   20  A    between atoms: C25_41  and  O6_42 
REMARK   21  A    between atoms: C26_44  and  O7_45 
ROOT
HETATM    1  C12 UNL     1      72.591  21.404  29.813  1.00  0.00     0.055 C 
HETATM    2  C13 UNL     1      72.122  20.197  29.064  1.00  0.00     0.222 C 
HETATM    3  C14 UNL     1      70.594  20.088  29.118  1.00  0.00     0.191 C 
HETATM    4  C24 UNL     1      69.905  21.291  28.537  1.00  0.00     0.180 C 
HETATM    5  C25 UNL     1      70.377  22.493  29.362  1.00  0.00     0.178 C 
HETATM    6  C26 UNL     1      71.855  22.625  29.244  1.00  0.00     0.156 C 
ENDROOT
BRANCH   3   7
HETATM    7  O2  UNL     1      70.219  18.885  28.562  1.00  0.00    -0.338 OA
BRANCH   7   8
HETATM    8  C15 UNL     1      69.073  18.172  28.663  1.00  0.00     0.109 A 
HETATM    9  C16 UNL     1      68.182  18.301  29.710  1.00  0.00     0.063 A 
HETATM   10  C17 UNL     1      67.014  17.579  29.820  1.00  0.00     0.059 A 
HETATM   11  C21 UNL     1      66.725  16.667  28.808  1.00  0.00     0.138 A 
HETATM   12  F1  UNL     1      65.587  15.947  28.890  1.00  0.00    -0.204 F 
HETATM   13  C22 UNL     1      67.578  16.495  27.736  1.00  0.00     0.089 A 
HETATM   14  C23 UNL     1      68.731  17.243  27.678  1.00  0.00     0.152 A 
HETATM   15  F2  UNL     1      69.566  17.071  26.626  1.00  0.00    -0.203 F 
BRANCH  10  16
HETATM   16  C18 UNL     1      66.127  17.762  30.938  1.00  0.00    -0.059 C 
HETATM   17  C19 UNL     1      65.371  17.929  31.872  1.00  0.00    -0.041 C 
BRANCH  17  18
HETATM   18  C20 UNL     1      64.435  18.136  32.994  1.00  0.00     0.338 C 
BRANCH  18  19
HETATM   19  O3  UNL     1      65.126  18.136  34.223  1.00  0.00    -0.361 OA
ATOM     20  H3  UNL     1      64.533  17.943  34.940  1.00  0.00     0.213 HD
ENDBRANCH  18  19
BRANCH  18  21
HETATM   21  O4  UNL     1      63.823  19.396  32.907  1.00  0.00    -0.361 OA
ATOM     22  H4  UNL     1      62.889  19.331  33.071  1.00  0.00     0.213 HD
ENDBRANCH  18  21
ENDBRANCH  17  18
ENDBRANCH  10  16
ENDBRANCH   7   8
ENDBRANCH   3   7
BRANCH   2  23
HETATM   23  N2  UNL     1      72.597  20.127  27.706  1.00  0.00    -0.072 N 
ATOM     24  H23 UNL     1      72.622  21.057  27.287  1.00  0.00     0.274 HD
ATOM     25  H22 UNL     1      73.591  19.903  27.686  1.00  0.00     0.274 HD
ATOM     26  H21 UNL     1      72.073  19.483  27.115  1.00  0.00     0.274 HD
ENDBRANCH   2  23
BRANCH   4  27
HETATM   27  O5  UNL     1      70.091  21.464  27.194  1.00  0.00    -0.390 OA
ATOM     28  H5  UNL     1      71.000  21.521  26.923  1.00  0.00     0.210 HD
ENDBRANCH   4  27
BRANCH   1  29
HETATM   29  C11 UNL     1      74.025  21.711  29.719  1.00  0.00     0.063 C 
BRANCH  29  30
HETATM   30  C1  UNL     1      74.551  22.450  28.529  1.00  0.00     0.024 C 
HETATM   31  N1  UNL     1      73.533  22.842  27.635  1.00  0.00    -0.107 NA
BRANCH  30  32
HETATM   32  C2  UNL     1      75.800  21.869  27.996  1.00  0.00     0.018 C 
HETATM   33  C3  UNL     1      77.133  22.186  28.430  1.00  0.00    -0.025 C 
BRANCH  33  34
HETATM   34  C4  UNL     1      77.853  23.444  28.403  1.00  0.00     0.027 C 
BRANCH  34  35
HETATM   35  C5  UNL     1      78.543  23.896  27.183  1.00  0.00     0.004 C 
BRANCH  35  36
HETATM   36  C6  UNL     1      78.929  25.389  27.340  1.00  0.00     0.000 C 
BRANCH  36  37
HETATM   37  C7  UNL     1      77.825  26.015  28.092  1.00  0.00     0.000 C 
BRANCH  37  38
HETATM   38  C8  UNL     1      76.701  26.637  27.388  1.00  0.00     0.002 C 
BRANCH  38  39
HETATM   39  C9  UNL     1      75.705  25.854  26.651  1.00  0.00     0.026 C 
BRANCH  39  40
HETATM   40  C10 UNL     1      75.354  26.279  25.261  1.00  0.00     0.164 C 
BRANCH  40  41
HETATM   41  O1  UNL     1      75.379  27.667  25.143  1.00  0.00    -0.401 OA
ATOM     42  H1  UNL     1      76.272  27.994  25.156  1.00  0.00     0.209 HD
ENDBRANCH  40  41
ENDBRANCH  39  40
ENDBRANCH  38  39
ENDBRANCH  37  38
ENDBRANCH  36  37
ENDBRANCH  35  36
ENDBRANCH  34  35
ENDBRANCH  33  34
ENDBRANCH  30  32
ENDBRANCH  29  30
ENDBRANCH   1  29
BRANCH   5  43
HETATM   43  O6  UNL     1      69.954  22.253  30.667  1.00  0.00    -0.390 OA
ATOM     44  H6  UNL     1      69.379  22.974  30.894  1.00  0.00     0.210 HD
ENDBRANCH   5  43
BRANCH   6  45
HETATM   45  O7  UNL     1      72.293  23.784  29.870  1.00  0.00    -0.392 OA
ATOM     46  H7  UNL     1      71.614  24.126  30.439  1.00  0.00     0.210 HD
ENDBRANCH   6  45
TORSDOF 21
ENDMDL
MODEL 3
REMARK VINA RESULT: -7.377254517      4.922     10.441
REMARK  21 active torsions:
REMARK  status: ('A' for Active; 'I' for Inactive)
REMARK    1  A    between atoms: C1_2  and  C2_3 
REMARK    2  A    between atoms: C1_2  and  C11_14 
REMARK    3  A    between atoms: C3_4  and  C4_5 
REMARK    4  A    between atoms: C4_5  and  C5_6 
REMARK    5  A    between atoms: C5_6  and  C6_7 
REMARK    6  A    between atoms: C6_7  and  C7_8 
REMARK    7  A    between atoms: C7_8  and  C8_9 
REMARK    8  A    between atoms: C8_9  and  C9_10 
REMARK    9  A    between atoms: C9_10  and  C10_11 
REMARK   10  A    between atoms: C10_11  and  O1_12 
REMARK   11  A    between atoms: C11_14  and  C12_15 
REMARK   12  A    between atoms: C13_16  and  N2_17 
REMARK   13  A    between atoms: C14_21  and  O2_22 
REMARK   14  A    between atoms: O2_22  and  C15_23 
REMARK   15  A    between atoms: C17_25  and  C18_26 
REMARK   16  A    between atoms: C19_27  and  C20_28 
REMARK   17  A    between atoms: C20_28  and  O3_29 
REMARK   18  A    between atoms: C20_28  and  O4_31 
REMARK   19  A    between atoms: C24_38  and  O5_39 
REMARK   20  A    between atoms: C25_41  and  O6_42 
REMARK   21  A    between atoms: C26_44  and  O7_45 
ROOT
HETATM    1  C12 UNL     1      71.263  20.861  29.632  1.00  0.00     0.055 C 
HETATM    2  C13 UNL     1      70.960  22.031  30.515  1.00  0.00     0.222 C 
HETATM    3  C14 UNL     1      72.240  22.555  31.175  1.00  0.00     0.191 C 
HETATM    4  C24 UNL     1      73.276  22.986  30.175  1.00  0.00     0.180 C 
HETATM    5  C25 UNL     1      73.589  21.749  29.326  1.00  0.00     0.178 C 
HETATM    6  C26 UNL     1      72.350  21.294  28.638  1.00  0.00     0.156 C 
ENDROOT
BRANCH   3   7
HETATM    7  O2  UNL     1      71.896  23.516  32.099  1.00  0.00    -0.338 OA
BRANCH   7   8
HETATM    8  C15 UNL     1      72.615  24.113  33.080  1.00  0.00     0.109 A 
HETATM    9  C16 UNL     1      73.524  23.444  33.874  1.00  0.00     0.063 A 
HETATM   10  C17 UNL     1      74.259  24.043  34.874  1.00  0.00     0.059 A 
HETATM   11  C21 UNL     1      74.064  25.405  35.086  1.00  0.00     0.138 A 
HETATM   12  F1  UNL     1      74.771  26.018  36.058  1.00  0.00    -0.204 F 
HETATM   13  C22 UNL     1      73.168  26.126  34.322  1.00  0.00     0.089 A 
HETATM   14  C23 UNL     1      72.461  25.476  33.337  1.00  0.00     0.152 A 
HETATM   15  F2  UNL     1      71.583  26.186  32.590  1.00  0.00    -0.203 F 
BRANCH  10  16
HETATM   16  C18 UNL     1      75.192  23.288  35.668  1.00  0.00    -0.059 C 
HETATM   17  C19 UNL     1      75.973  22.637  36.329  1.00  0.00    -0.041 C 
BRANCH  17  18
HETATM   18  C20 UNL     1      76.927  21.831  37.116  1.00  0.00     0.338 C 
BRANCH  18  19
HETATM   19  O3  UNL     1      76.996  20.515  36.615  1.00  0.00    -0.361 OA
ATOM     20  H3  UNL     1      76.133  20.116  36.603  1.00  0.00     0.213 HD
ENDBRANCH  18  19
BRANCH  18  21
HETATM   21  O4  UNL     1      78.228  22.346  37.001  1.00  0.00    -0.361 OA
ATOM     22  H4  UNL     1      78.864  21.742  37.368  1.00  0.00     0.213 HD
ENDBRANCH  18  21
ENDBRANCH  17  18
ENDBRANCH  10  16
ENDBRANCH   7   8
ENDBRANCH   3   7
BRANCH   2  23
HETATM   23  N2  UNL     1      70.246  23.094  29.857  1.00  0.00    -0.072 N 
ATOM     24  H23 UNL     1      70.878  23.644  29.276  1.00  0.00     0.274 HD
ATOM     25  H22 UNL     1      69.632  22.719  29.134  1.00  0.00     0.274 HD
ATOM     26  H21 UNL     1      69.725  23.699  30.491  1.00  0.00     0.274 HD
ENDBRANCH   2  23
BRANCH   4  27
HETATM   27  O5  UNL     1      72.926  24.071  29.421  1.00  0.00    -0.390 OA
ATOM     28  H5  UNL     1      73.020  23.951  28.484  1.00  0.00     0.210 HD
ENDBRANCH   4  27
BRANCH   1  29
HETATM   29  C11 UNL     1      70.148  20.352  28.822  1.00  0.00     0.063 C 
BRANCH  29  30
HETATM   30  C1  UNL     1      69.499  19.053  29.184  1.00  0.00     0.024 C 
HETATM   31  N1  UNL     1      69.338  18.195  28.076  1.00  0.00    -0.107 NA
BRANCH  30  32
HETATM   32  C2  UNL     1      68.390  19.211  30.146  1.00  0.00     0.018 C 
HETATM   33  C3  UNL     1      68.088  18.331  31.243  1.00  0.00    -0.025 C 
BRANCH  33  34
HETATM   34  C4  UNL     1      67.726  16.928  31.245  1.00  0.00     0.027 C 
BRANCH  34  35
HETATM   35  C5  UNL     1      66.399  16.489  31.708  1.00  0.00     0.004 C 
BRANCH  35  36
HETATM   36  C6  UNL     1      65.308  17.154  30.830  1.00  0.00     0.000 C 
BRANCH  36  37
HETATM   37  C7  UNL     1      64.662  16.055  30.087  1.00  0.00     0.000 C 
BRANCH  37  38
HETATM   38  C8  UNL     1      64.958  15.837  28.669  1.00  0.00     0.002 C 
BRANCH  38  39
HETATM   39  C9  UNL     1      66.119  16.440  28.007  1.00  0.00     0.026 C 
BRANCH  39  40
HETATM   40  C10 UNL     1      67.148  15.532  27.414  1.00  0.00     0.164 C 
BRANCH  40  41
HETATM   41  O1  UNL     1      67.761  16.125  26.312  1.00  0.00    -0.401 OA
ATOM     42  H1  UNL     1      67.115  16.494  25.721  1.00  0.00     0.209 HD
ENDBRANCH  40  41
ENDBRANCH  39  40
ENDBRANCH  38  39
ENDBRANCH  37  38
ENDBRANCH  36  37
ENDBRANCH  35  36
ENDBRANCH  34  35
ENDBRANCH  33  34
ENDBRANCH  30  32
ENDBRANCH  29  30
ENDBRANCH   1  29
BRANCH   5  43
HETATM   43  O6  UNL     1      74.104  20.800  30.205  1.00  0.00    -0.390 OA
ATOM     44  H6  UNL     1      74.849  21.211  30.627  1.00  0.00     0.210 HD
ENDBRANCH   5  43
BRANCH   6  45
HETATM   45  O7  UNL     1      72.633  20.259  27.757  1.00  0.00    -0.392 OA
ATOM     46  H7  UNL     1      72.377  19.427  28.136  1.00  0.00     0.210 HD
ENDBRANCH   6  45
TORSDOF 21
ENDMDL
MODEL 4
REMARK VINA RESULT: -7.374328951      2.591      4.086
REMARK  21 active torsions:
REMARK  status: ('A' for Active; 'I' for Inactive)
REMARK    1  A    between atoms: C1_2  and  C2_3 
REMARK    2  A    between atoms: C1_2  and  C11_14 
REMARK    3  A    between atoms: C3_4  and  C4_5 
REMARK    4  A    between atoms: C4_5  and  C5_6 
REMARK    5  A    between atoms: C5_6  and  C6_7 
REMARK    6  A    between atoms: C6_7  and  C7_8 
REMARK    7  A    between atoms: C7_8  and  C8_9 
REMARK    8  A    between atoms: C8_9  and  C9_10 
REMARK    9  A    between atoms: C9_10  and  C10_11 
REMARK   10  A    between atoms: C10_11  and  O1_12 
REMARK   11  A    between atoms: C11_14  and  C12_15 
REMARK   12  A    between atoms: C13_16  and  N2_17 
REMARK   13  A    between atoms: C14_21  and  O2_22 
REMARK   14  A    between atoms: O2_22  and  C15_23 
REMARK   15  A    between atoms: C17_25  and  C18_26 
REMARK   16  A    between atoms: C19_27  and  C20_28 
REMARK   17  A    between atoms: C20_28  and  O3_29 
REMARK   18  A    between atoms: C20_28  and  O4_31 
REMARK   19  A    between atoms: C24_38  and  O5_39 
REMARK   20  A    between atoms: C25_41  and  O6_42 
REMARK   21  A    between atoms: C26_44  and  O7_45 
ROOT
HETATM    1  C12 UNL     1      72.872  21.780  28.804  1.00  0.00     0.055 C 
HETATM    2  C13 UNL     1      71.646  21.154  28.214  1.00  0.00     0.222 C 
HETATM    3  C14 UNL     1      70.742  20.595  29.318  1.00  0.00     0.191 C 
HETATM    4  C24 UNL     1      70.300  21.648  30.296  1.00  0.00     0.180 C 
HETATM    5  C25 UNL     1      71.581  22.226  30.907  1.00  0.00     0.178 C 
HETATM    6  C26 UNL     1      72.416  22.826  29.832  1.00  0.00     0.156 C 
ENDROOT
BRANCH   3   7
HETATM    7  O2  UNL     1      69.716  19.889  28.729  1.00  0.00    -0.338 OA
BRANCH   7   8
HETATM    8  C15 UNL     1      69.030  18.797  29.142  1.00  0.00     0.109 A 
HETATM    9  C16 UNL     1      69.170  17.547  28.573  1.00  0.00     0.063 A 
HETATM   10  C17 UNL     1      68.475  16.432  28.986  1.00  0.00     0.059 A 
HETATM   11  C21 UNL     1      67.582  16.586  30.044  1.00  0.00     0.138 A 
HETATM   12  F1  UNL     1      66.889  15.510  30.470  1.00  0.00    -0.204 F 
HETATM   13  C22 UNL     1      67.401  17.812  30.652  1.00  0.00     0.089 A 
HETATM   14  C23 UNL     1      68.121  18.893  30.197  1.00  0.00     0.152 A 
HETATM   15  F2  UNL     1      67.941  20.094  30.796  1.00  0.00    -0.203 F 
BRANCH  10  16
HETATM   16  C18 UNL     1      68.667  15.155  28.349  1.00  0.00    -0.059 C 
HETATM   17  C19 UNL     1      68.838  14.074  27.826  1.00  0.00    -0.041 C 
BRANCH  17  18
HETATM   18  C20 UNL     1      69.045  12.750  27.210  1.00  0.00     0.338 C 
BRANCH  18  19
HETATM   19  O3  UNL     1      67.871  12.316  26.561  1.00  0.00    -0.361 OA
ATOM     20  H3  UNL     1      67.742  11.384  26.692  1.00  0.00     0.213 HD
ENDBRANCH  18  19
BRANCH  18  21
HETATM   21  O4  UNL     1      70.027  12.814  26.208  1.00  0.00    -0.361 OA
ATOM     22  H4  UNL     1      70.054  12.006  25.709  1.00  0.00     0.213 HD
ENDBRANCH  18  21
ENDBRANCH  17  18
ENDBRANCH  10  16
ENDBRANCH   7   8
ENDBRANCH   3   7
BRANCH   2  23
HETATM   23  N2  UNL     1      70.910  22.023  27.333  1.00  0.00    -0.072 N 
ATOM     24  H23 UNL     1      71.497  22.797  27.020  1.00  0.00     0.274 HD
ATOM     25  H22 UNL     1      70.740  21.564  26.438  1.00  0.00     0.274 HD
ATOM     26  H21 UNL     1      70.037  22.373  27.728  1.00  0.00     0.274 HD
ENDBRANCH   2  23
BRANCH   4  27
HETATM   27  O5  UNL     1      69.482  22.609  29.771  1.00  0.00    -0.390 OA
ATOM     28  H5  UNL     1      69.806  23.016  28.977  1.00  0.00     0.210 HD
ENDBRANCH   4  27
BRANCH   1  29
HETATM   29  C11 UNL     1      73.756  22.486  27.867  1.00  0.00     0.063 C 
BRANCH  29  30
HETATM   30  C1  UNL     1      75.193  22.083  27.753  1.00  0.00     0.024 C 
HETATM   31  N1  UNL     1      75.794  21.842  29.006  1.00  0.00    -0.107 NA
BRANCH  30  32
HETATM   32  C2  UNL     1      75.929  22.855  26.732  1.00  0.00     0.018 C 
HETATM   33  C3  UNL     1      77.332  23.171  26.758  1.00  0.00    -0.025 C 
BRANCH  33  34
HETATM   34  C4  UNL     1      78.100  23.940  27.716  1.00  0.00     0.027 C 
BRANCH  34  35
HETATM   35  C5  UNL     1      79.000  25.018  27.273  1.00  0.00     0.004 C 
BRANCH  35  36
HETATM   36  C6  UNL     1      78.856  26.228  28.231  1.00  0.00     0.000 C 
BRANCH  36  37
HETATM   37  C7  UNL     1      77.416  26.545  28.267  1.00  0.00     0.000 C 
BRANCH  37  38
HETATM   38  C8  UNL     1      76.719  26.992  27.058  1.00  0.00     0.002 C 
BRANCH  38  39
HETATM   39  C9  UNL     1      75.574  26.266  26.498  1.00  0.00     0.026 C 
BRANCH  39  40
HETATM   40  C10 UNL     1      75.193  26.531  25.076  1.00  0.00     0.164 C 
BRANCH  40  41
HETATM   41  O1  UNL     1      75.116  27.899  24.828  1.00  0.00    -0.401 OA
ATOM     42  H1  UNL     1      75.981  28.294  24.825  1.00  0.00     0.209 HD
ENDBRANCH  40  41
ENDBRANCH  39  40
ENDBRANCH  38  39
ENDBRANCH  37  38
ENDBRANCH  36  37
ENDBRANCH  35  36
ENDBRANCH  34  35
ENDBRANCH  33  34
ENDBRANCH  30  32
ENDBRANCH  29  30
ENDBRANCH   1  29
BRANCH   5  43
HETATM   43  O6  UNL     1      72.207  21.167  31.558  1.00  0.00    -0.390 OA
ATOM     44  H6  UNL     1      71.870  21.168  32.446  1.00  0.00     0.210 HD
ENDBRANCH   5  43
BRANCH   6  45
HETATM   45  O7  UNL     1      73.516  23.476  30.373  1.00  0.00    -0.392 OA
ATOM     46  H7  UNL     1      73.340  23.724  31.273  1.00  0.00     0.210 HD
ENDBRANCH   6  45
TORSDOF 21
ENDMDL
MODEL 5
REMARK VINA RESULT: -7.295100882      4.738      9.782
REMARK  21 active torsions:
REMARK  status: ('A' for Active; 'I' for Inactive)
REMARK    1  A    between atoms: C1_2  and  C2_3 
REMARK    2  A    between atoms: C1_2  and  C11_14 
REMARK    3  A    between atoms: C3_4  and  C4_5 
REMARK    4  A    between atoms: C4_5  and  C5_6 
REMARK    5  A    between atoms: C5_6  and  C6_7 
REMARK    6  A    between atoms: C6_7  and  C7_8 
REMARK    7  A    between atoms: C7_8  and  C8_9 
REMARK    8  A    between atoms: C8_9  and  C9_10 
REMARK    9  A    between atoms: C9_10  and  C10_11 
REMARK   10  A    between atoms: C10_11  and  O1_12 
REMARK   11  A    between atoms: C11_14  and  C12_15 
REMARK   12  A    between atoms: C13_16  and  N2_17 
REMARK   13  A    between atoms: C14_21  and  O2_22 
REMARK   14  A    between atoms: O2_22  and  C15_23 
REMARK   15  A    between atoms: C17_25  and  C18_26 
REMARK   16  A    between atoms: C19_27  and  C20_28 
REMARK   17  A    between atoms: C20_28  and  O3_29 
REMARK   18  A    between atoms: C20_28  and  O4_31 
REMARK   19  A    between atoms: C24_38  and  O5_39 
REMARK   20  A    between atoms: C25_41  and  O6_42 
REMARK   21  A    between atoms: C26_44  and  O7_45 
ROOT
HETATM    1  C12 UNL     1      71.145  21.077  29.670  1.00  0.00     0.055 C 
HETATM    2  C13 UNL     1      71.493  22.151  30.653  1.00  0.00     0.222 C 
HETATM    3  C14 UNL     1      72.994  22.459  30.608  1.00  0.00     0.191 C 
HETATM    4  C24 UNL     1      73.455  22.907  29.249  1.00  0.00     0.180 C 
HETATM    5  C25 UNL     1      73.123  21.761  28.287  1.00  0.00     0.178 C 
HETATM    6  C26 UNL     1      71.654  21.520  28.291  1.00  0.00     0.156 C 
ENDROOT
BRANCH   3   7
HETATM    7  O2  UNL     1      73.295  23.327  31.633  1.00  0.00    -0.338 OA
BRANCH   7   8
HETATM    8  C15 UNL     1      73.137  23.217  32.974  1.00  0.00     0.109 A 
HETATM    9  C16 UNL     1      73.649  22.175  33.719  1.00  0.00     0.063 A 
HETATM   10  C17 UNL     1      73.493  22.055  35.083  1.00  0.00     0.059 A 
HETATM   11  C21 UNL     1      72.775  23.052  35.737  1.00  0.00     0.138 A 
HETATM   12  F1  UNL     1      72.606  22.961  37.073  1.00  0.00    -0.204 F 
HETATM   13  C22 UNL     1      72.240  24.120  35.044  1.00  0.00     0.089 A 
HETATM   14  C23 UNL     1      72.426  24.187  33.682  1.00  0.00     0.152 A 
HETATM   15  F2  UNL     1      71.900  25.235  33.005  1.00  0.00    -0.203 F 
BRANCH  10  16
HETATM   16  C18 UNL     1      74.052  20.941  35.803  1.00  0.00    -0.059 C 
HETATM   17  C19 UNL     1      74.530  19.995  36.394  1.00  0.00    -0.041 C 
BRANCH  17  18
HETATM   18  C20 UNL     1      75.126  18.844  37.098  1.00  0.00     0.338 C 
BRANCH  18  19
HETATM   19  O3  UNL     1      74.441  17.655  36.774  1.00  0.00    -0.361 OA
ATOM     20  H3  UNL     1      74.240  17.627  35.845  1.00  0.00     0.213 HD
ENDBRANCH  18  19
BRANCH  18  21
HETATM   21  O4  UNL     1      76.452  18.638  36.684  1.00  0.00    -0.361 OA
ATOM     22  H4  UNL     1      76.998  18.380  37.418  1.00  0.00     0.213 HD
ENDBRANCH  18  21
ENDBRANCH  17  18
ENDBRANCH  10  16
ENDBRANCH   7   8
ENDBRANCH   3   7
BRANCH   2  23
HETATM   23  N2  UNL     1      70.714  23.354  30.507  1.00  0.00    -0.072 N 
ATOM     24  H23 UNL     1      69.938  23.202  29.863  1.00  0.00     0.274 HD
ATOM     25  H22 UNL     1      70.193  23.548  31.362  1.00  0.00     0.274 HD
ATOM     26  H21 UNL     1      71.258  24.169  30.226  1.00  0.00     0.274 HD
ENDBRANCH   2  23
BRANCH   4  27
HETATM   27  O5  UNL     1      72.945  24.107  28.839  1.00  0.00    -0.390 OA
ATOM     28  H5  UNL     1      72.769  24.167  27.908  1.00  0.00     0.210 HD
ENDBRANCH   4  27
BRANCH   1  29
HETATM   29  C11 UNL     1      69.715  20.786  29.505  1.00  0.00     0.063 C 
BRANCH  29  30
HETATM   30  C1  UNL     1      69.234  19.370  29.554  1.00  0.00     0.024 C 
HETATM   31  N1  UNL     1      69.238  18.747  28.289  1.00  0.00    -0.107 NA
BRANCH  30  32
HETATM   32  C2  UNL     1      68.073  19.186  30.449  1.00  0.00     0.018 C 
HETATM   33  C3  UNL     1      67.836  18.056  31.306  1.00  0.00    -0.025 C 
BRANCH  33  34
HETATM   34  C4  UNL     1      67.649  16.656  30.979  1.00  0.00     0.027 C 
BRANCH  34  35
HETATM   35  C5  UNL     1      66.352  15.995  31.198  1.00  0.00     0.004 C 
BRANCH  35  36
HETATM   36  C6  UNL     1      65.236  16.821  30.510  1.00  0.00     0.000 C 
BRANCH  36  37
HETATM   37  C7  UNL     1      64.808  16.029  29.342  1.00  0.00     0.000 C 
BRANCH  37  38
HETATM   38  C8  UNL     1      65.524  16.130  28.067  1.00  0.00     0.002 C 
BRANCH  38  39
HETATM   39  C9  UNL     1      66.555  15.168  27.667  1.00  0.00     0.026 C 
BRANCH  39  40
HETATM   40  C10 UNL     1      67.911  15.687  27.309  1.00  0.00     0.164 C 
BRANCH  40  41
HETATM   41  O1  UNL     1      67.839  16.566  26.231  1.00  0.00    -0.401 OA
ATOM     42  H1  UNL     1      67.475  17.402  26.497  1.00  0.00     0.209 HD
ENDBRANCH  40  41
ENDBRANCH  39  40
ENDBRANCH  38  39
ENDBRANCH  37  38
ENDBRANCH  36  37
ENDBRANCH  35  36
ENDBRANCH  34  35
ENDBRANCH  33  34
ENDBRANCH  30  32
ENDBRANCH  29  30
ENDBRANCH   1  29
BRANCH   5  43
HETATM   43  O6  UNL     1      73.856  20.663  28.730  1.00  0.00    -0.390 OA
ATOM     44  H6  UNL     1      73.879  20.729  29.678  1.00  0.00     0.210 HD
ENDBRANCH   5  43
BRANCH   6  45
HETATM   45  O7  UNL     1      71.310  20.580  27.329  1.00  0.00    -0.392 OA
ATOM     46  H7  UNL     1      70.911  21.008  26.582  1.00  0.00     0.210 HD
ENDBRANCH   6  45
TORSDOF 21
ENDMDL
