MODEL 1
REMARK VINA RESULT: -8.087880665      0.000      0.000
REMARK  18 active torsions:
REMARK  status: ('A' for Active; 'I' for Inactive)
REMARK    1  A    between atoms: C2_2  and  C4_5 
REMARK    2  A    between atoms: C2_2  and  C10_21 
REMARK    3  A    between atoms: C4_5  and  C5_6 
REMARK    4  A    between atoms: C5_6  and  O1_7 
REMARK    5  A    between atoms: C5_6  and  C6_9 
REMARK    6  A    between atoms: C6_9  and  O2_10 
REMARK    7  A    between atoms: C6_9  and  C7_12 
REMARK    8  A    between atoms: C7_12  and  O3_13 
REMARK    9  A    between atoms: C7_12  and  C8_15 
REMARK   10  A    between atoms: C8_15  and  O4_16 
REMARK   11  A    between atoms: C8_15  and  C9_18 
REMARK   12  A    between atoms: C9_18  and  O5_19 
REMARK   13  A    between atoms: C10_21  and  N2_22 
REMARK   14  A    between atoms: C10_21  and  C18_32 
REMARK       I    between atoms: N2_22  and  C11_24 
REMARK   15  A    between atoms: C11_24  and  C12_26 
REMARK   16  A    between atoms: C18_32  and  O7_33 
REMARK   17  A    between atoms: C18_32  and  N3_35 
REMARK   18  A    between atoms: N3_35  and  C19_37 
ROOT
HETATM    1  C1  UNL     1      72.086  21.340  31.708  1.00  0.00     0.038 C 
HETATM    2  C2  UNL     1      72.934  22.419  31.066  1.00  0.00     0.090 C 
HETATM    3  C3  UNL     1      74.274  21.883  31.014  1.00  0.00     0.075 C 
HETATM    4  N1  UNL     1      75.365  21.425  30.950  1.00  0.00    -0.196 NA
ENDROOT
BRANCH   2   5
HETATM    5  C4  UNL     1      72.853  23.732  31.691  1.00  0.00     0.034 C 
BRANCH   5   6
HETATM    6  C5  UNL     1      72.871  23.961  33.133  1.00  0.00     0.072 C 
BRANCH   6   7
HETATM    7  O1  UNL     1      73.906  23.411  33.874  1.00  0.00    -0.362 OA
ATOM      8  H1  UNL     1      73.715  22.668  34.435  1.00  0.00     0.217 HD
ENDBRANCH   6   7
BRANCH   6   9
HETATM    9  C6  UNL     1      72.365  25.263  33.685  1.00  0.00     0.205 C 
BRANCH   9  10
HETATM   10  O2  UNL     1      73.248  26.309  33.645  1.00  0.00    -0.386 OA
ATOM     11  H2  UNL     1      72.938  27.125  34.021  1.00  0.00     0.210 HD
ENDBRANCH   9  10
BRANCH   9  12
HETATM   12  C7  UNL     1      71.845  25.096  35.086  1.00  0.00     0.184 C 
BRANCH  12  13
HETATM   13  O3  UNL     1      71.471  23.751  35.270  1.00  0.00    -0.390 OA
ATOM     14  H3  UNL     1      71.125  23.650  36.149  1.00  0.00     0.210 HD
ENDBRANCH  12  13
BRANCH  12  15
HETATM   15  C8  UNL     1      70.687  25.945  35.484  1.00  0.00     0.173 C 
BRANCH  15  16
HETATM   16  O4  UNL     1      71.263  27.119  36.062  1.00  0.00    -0.391 OA
ATOM     17  H4  UNL     1      70.582  27.486  36.613  1.00  0.00     0.210 HD
ENDBRANCH  15  16
BRANCH  15  18
HETATM   18  C9  UNL     1      69.872  25.345  36.610  1.00  0.00     0.198 C 
BRANCH  18  19
HETATM   19  O5  UNL     1      68.830  24.563  36.044  1.00  0.00    -0.398 OA
ATOM     20  H5  UNL     1      68.440  24.037  36.733  1.00  0.00     0.209 HD
ENDBRANCH  18  19
ENDBRANCH  15  18
ENDBRANCH  12  15
ENDBRANCH   9  12
ENDBRANCH   6   9
ENDBRANCH   5   6
ENDBRANCH   2   5
BRANCH   2  21
HETATM   21  C10 UNL     1      72.483  22.449  29.600  1.00  0.00     0.159 C 
BRANCH  21  22
HETATM   22  N2  UNL     1      71.520  21.356  29.450  1.00  0.00    -0.350 N 
HETATM   23  C11 UNL     1      70.522  21.267  28.479  1.00  0.00     0.222 C 
HETATM   24  O6  UNL     1      70.306  22.127  27.589  1.00  0.00    -0.273 OA
ATOM     25  H2  UNL     1      71.584  20.588  30.118  1.00  0.00     0.163 HD
BRANCH  23  26
HETATM   26  C12 UNL     1      69.615  20.097  28.436  1.00  0.00     0.078 C 
HETATM   27  C13 UNL     1      69.058  19.848  29.854  1.00  0.00     0.014 C 
HETATM   28  C14 UNL     1      68.390  18.515  29.901  1.00  0.00     0.001 C 
HETATM   29  C15 UNL     1      68.259  17.871  28.543  1.00  0.00     0.000 C 
HETATM   30  C16 UNL     1      69.637  17.632  27.936  1.00  0.00     0.001 C 
HETATM   31  C17 UNL     1      70.441  18.871  28.133  1.00  0.00     0.014 C 
ENDBRANCH  23  26
ENDBRANCH  21  22
BRANCH  21  32
HETATM   32  C18 UNL     1      73.506  22.268  28.565  1.00  0.00     0.242 C 
BRANCH  32  33
HETATM   33  O7  UNL     1      72.973  21.170  27.781  1.00  0.00    -0.375 OA
ATOM     34  H7  UNL     1      73.758  20.759  27.439  1.00  0.00     0.212 HD
ENDBRANCH  32  33
BRANCH  32  35
HETATM   35  N3  UNL     1      73.777  23.241  27.583  1.00  0.00    -0.362 N 
ATOM     36  H3  UNL     1      73.063  23.520  26.911  1.00  0.00     0.162 HD
BRANCH  35  37
HETATM   37  C19 UNL     1      75.090  23.832  27.555  1.00  0.00     0.035 A 
HETATM   38  C20 UNL     1      76.196  23.068  27.746  1.00  0.00     0.073 A 
HETATM   39  C21 UNL     1      77.445  23.656  27.751  1.00  0.00     0.143 A 
HETATM   40  F1  UNL     1      78.539  22.866  27.942  1.00  0.00    -0.204 F 
HETATM   41  C22 UNL     1      77.551  25.021  27.559  1.00  0.00     0.111 A 
HETATM   42 CL1  UNL     1      79.148  25.744  27.572  1.00  0.00    -0.078 Cl
HETATM   43  C23 UNL     1      76.443  25.789  27.368  1.00  0.00     0.143 A 
HETATM   44  F2  UNL     1      76.574  27.134  27.183  1.00  0.00    -0.204 F 
HETATM   45  C24 UNL     1      75.191  25.216  27.361  1.00  0.00     0.073 A 
ENDBRANCH  35  37
ENDBRANCH  32  35
ENDBRANCH  21  32
ENDBRANCH   2  21
TORSDOF 18
ENDMDL
MODEL 2
REMARK VINA RESULT: -8.083298113      1.261      2.487
REMARK  18 active torsions:
REMARK  status: ('A' for Active; 'I' for Inactive)
REMARK    1  A    between atoms: C2_2  and  C4_5 
REMARK    2  A    between atoms: C2_2  and  C10_21 
REMARK    3  A    between atoms: C4_5  and  C5_6 
REMARK    4  A    between atoms: C5_6  and  O1_7 
REMARK    5  A    between atoms: C5_6  and  C6_9 
REMARK    6  A    between atoms: C6_9  and  O2_10 
REMARK    7  A    between atoms: C6_9  and  C7_12 
REMARK    8  A    between atoms: C7_12  and  O3_13 
REMARK    9  A    between atoms: C7_12  and  C8_15 
REMARK   10  A    between atoms: C8_15  and  O4_16 
REMARK   11  A    between atoms: C8_15  and  C9_18 
REMARK   12  A    between atoms: C9_18  and  O5_19 
REMARK   13  A    between atoms: C10_21  and  N2_22 
REMARK   14  A    between atoms: C10_21  and  C18_32 
REMARK       I    between atoms: N2_22  and  C11_24 
REMARK   15  A    between atoms: C11_24  and  C12_26 
REMARK   16  A    between atoms: C18_32  and  O7_33 
REMARK   17  A    between atoms: C18_32  and  N3_35 
REMARK   18  A    between atoms: N3_35  and  C19_37 
ROOT
HETATM    1  C1  UNL     1      71.969  21.268  31.701  1.00  0.00     0.038 C 
HETATM    2  C2  UNL     1      72.788  22.384  31.086  1.00  0.00     0.090 C 
HETATM    3  C3  UNL     1      74.164  21.953  31.171  1.00  0.00     0.075 C 
HETATM    4  N1  UNL     1      75.287  21.579  31.221  1.00  0.00    -0.196 NA
ENDROOT
BRANCH   2   5
HETATM    5  C4  UNL     1      72.555  23.710  31.643  1.00  0.00     0.034 C 
BRANCH   5   6
HETATM    6  C5  UNL     1      73.039  24.153  32.947  1.00  0.00     0.072 C 
BRANCH   6   7
HETATM    7  O1  UNL     1      73.407  25.482  33.096  1.00  0.00    -0.362 OA
ATOM      8  H1  UNL     1      73.508  25.827  33.976  1.00  0.00     0.217 HD
ENDBRANCH   6   7
BRANCH   6   9
HETATM    9  C6  UNL     1      72.469  23.545  34.197  1.00  0.00     0.205 C 
BRANCH   9  10
HETATM   10  O2  UNL     1      71.476  24.265  34.808  1.00  0.00    -0.386 OA
ATOM     11  H2  UNL     1      70.816  23.753  35.262  1.00  0.00     0.210 HD
ENDBRANCH   9  10
BRANCH   9  12
HETATM   12  C7  UNL     1      73.550  23.232  35.194  1.00  0.00     0.184 C 
BRANCH  12  13
HETATM   13  O3  UNL     1      74.042  24.442  35.720  1.00  0.00    -0.390 OA
ATOM     14  H3  UNL     1      74.748  24.750  35.164  1.00  0.00     0.210 HD
ENDBRANCH  12  13
BRANCH  12  15
HETATM   15  C8  UNL     1      74.716  22.446  34.702  1.00  0.00     0.173 C 
BRANCH  15  16
HETATM   16  O4  UNL     1      74.291  21.081  34.736  1.00  0.00    -0.391 OA
ATOM     17  H4  UNL     1      74.508  20.730  33.881  1.00  0.00     0.210 HD
ENDBRANCH  15  16
BRANCH  15  18
HETATM   18  C9  UNL     1      75.897  22.484  35.650  1.00  0.00     0.198 C 
BRANCH  18  19
HETATM   19  O5  UNL     1      77.071  22.162  34.917  1.00  0.00    -0.398 OA
ATOM     20  H5  UNL     1      77.366  21.300  35.185  1.00  0.00     0.209 HD
ENDBRANCH  18  19
ENDBRANCH  15  18
ENDBRANCH  12  15
ENDBRANCH   9  12
ENDBRANCH   6   9
ENDBRANCH   5   6
ENDBRANCH   2   5
BRANCH   2  21
HETATM   21  C10 UNL     1      72.467  22.323  29.587  1.00  0.00     0.159 C 
BRANCH  21  22
HETATM   22  N2  UNL     1      71.486  21.247  29.427  1.00  0.00    -0.350 N 
HETATM   23  C11 UNL     1      70.500  21.173  28.442  1.00  0.00     0.222 C 
HETATM   24  O6  UNL     1      70.312  22.034  27.547  1.00  0.00    -0.273 OA
ATOM     25  H2  UNL     1      71.527  20.480  30.098  1.00  0.00     0.163 HD
BRANCH  23  26
HETATM   26  C12 UNL     1      69.574  20.018  28.390  1.00  0.00     0.078 C 
HETATM   27  C13 UNL     1      69.025  19.758  29.809  1.00  0.00     0.014 C 
HETATM   28  C14 UNL     1      68.335  18.435  29.842  1.00  0.00     0.001 C 
HETATM   29  C15 UNL     1      68.182  17.814  28.476  1.00  0.00     0.000 C 
HETATM   30  C16 UNL     1      69.550  17.561  27.854  1.00  0.00     0.001 C 
HETATM   31  C17 UNL     1      70.377  18.783  28.062  1.00  0.00     0.014 C 
ENDBRANCH  23  26
ENDBRANCH  21  22
BRANCH  21  32
HETATM   32  C18 UNL     1      73.569  22.045  28.661  1.00  0.00     0.242 C 
BRANCH  32  33
HETATM   33  O7  UNL     1      73.149  20.807  28.032  1.00  0.00    -0.375 OA
ATOM     34  H7  UNL     1      73.557  20.861  27.176  1.00  0.00     0.212 HD
ENDBRANCH  32  33
BRANCH  32  35
HETATM   35  N3  UNL     1      73.860  22.867  27.555  1.00  0.00    -0.362 N 
ATOM     36  H3  UNL     1      73.197  22.964  26.786  1.00  0.00     0.162 HD
BRANCH  35  37
HETATM   37  C19 UNL     1      75.119  23.565  27.539  1.00  0.00     0.035 A 
HETATM   38  C20 UNL     1      76.279  22.905  27.791  1.00  0.00     0.073 A 
HETATM   39  C21 UNL     1      77.474  23.596  27.806  1.00  0.00     0.143 A 
HETATM   40  F1  UNL     1      78.624  22.910  28.059  1.00  0.00    -0.204 F 
HETATM   41  C22 UNL     1      77.471  24.958  27.563  1.00  0.00     0.111 A 
HETATM   42 CL1  UNL     1      79.001  25.813  27.591  1.00  0.00    -0.078 Cl
HETATM   43  C23 UNL     1      76.309  25.622  27.311  1.00  0.00     0.143 A 
HETATM   44  F2  UNL     1      76.332  26.964  27.076  1.00  0.00    -0.204 F 
HETATM   45  C24 UNL     1      75.110  24.944  27.293  1.00  0.00     0.073 A 
ENDBRANCH  35  37
ENDBRANCH  32  35
ENDBRANCH  21  32
ENDBRANCH   2  21
TORSDOF 18
ENDMDL
MODEL 3
REMARK VINA RESULT: -8.081144910      0.050      1.359
REMARK  18 active torsions:
REMARK  status: ('A' for Active; 'I' for Inactive)
REMARK    1  A    between atoms: C2_2  and  C4_5 
REMARK    2  A    between atoms: C2_2  and  C10_21 
REMARK    3  A    between atoms: C4_5  and  C5_6 
REMARK    4  A    between atoms: C5_6  and  O1_7 
REMARK    5  A    between atoms: C5_6  and  C6_9 
REMARK    6  A    between atoms: C6_9  and  O2_10 
REMARK    7  A    between atoms: C6_9  and  C7_12 
REMARK    8  A    between atoms: C7_12  and  O3_13 
REMARK    9  A    between atoms: C7_12  and  C8_15 
REMARK   10  A    between atoms: C8_15  and  O4_16 
REMARK   11  A    between atoms: C8_15  and  C9_18 
REMARK   12  A    between atoms: C9_18  and  O5_19 
REMARK   13  A    between atoms: C10_21  and  N2_22 
REMARK   14  A    between atoms: C10_21  and  C18_32 
REMARK       I    between atoms: N2_22  and  C11_24 
REMARK   15  A    between atoms: C11_24  and  C12_26 
REMARK   16  A    between atoms: C18_32  and  O7_33 
REMARK   17  A    between atoms: C18_32  and  N3_35 
REMARK   18  A    between atoms: N3_35  and  C19_37 
ROOT
HETATM    1  C1  UNL     1      72.036  21.324  31.691  1.00  0.00     0.038 C 
HETATM    2  C2  UNL     1      72.887  22.411  31.068  1.00  0.00     0.090 C 
HETATM    3  C3  UNL     1      74.233  21.889  31.043  1.00  0.00     0.075 C 
HETATM    4  N1  UNL     1      75.330  21.442  31.003  1.00  0.00    -0.196 NA
ENDROOT
BRANCH   2   5
HETATM    5  C4  UNL     1      72.780  23.723  31.693  1.00  0.00     0.034 C 
BRANCH   5   6
HETATM    6  C5  UNL     1      72.827  23.957  33.133  1.00  0.00     0.072 C 
BRANCH   6   7
HETATM    7  O1  UNL     1      73.865  23.389  33.859  1.00  0.00    -0.362 OA
ATOM      8  H1  UNL     1      73.669  23.016  34.710  1.00  0.00     0.217 HD
ENDBRANCH   6   7
BRANCH   6   9
HETATM    9  C6  UNL     1      72.355  25.269  33.690  1.00  0.00     0.205 C 
BRANCH   9  10
HETATM   10  O2  UNL     1      73.265  26.294  33.649  1.00  0.00    -0.386 OA
ATOM     11  H2  UNL     1      74.023  26.194  34.212  1.00  0.00     0.210 HD
ENDBRANCH   9  10
BRANCH   9  12
HETATM   12  C7  UNL     1      71.836  25.113  35.091  1.00  0.00     0.184 C 
BRANCH  12  13
HETATM   13  O3  UNL     1      71.472  23.767  35.290  1.00  0.00    -0.390 OA
ATOM     14  H3  UNL     1      72.151  23.340  35.799  1.00  0.00     0.210 HD
ENDBRANCH  12  13
BRANCH  12  15
HETATM   15  C8  UNL     1      70.671  25.956  35.480  1.00  0.00     0.173 C 
BRANCH  15  16
HETATM   16  O4  UNL     1      71.237  27.146  36.036  1.00  0.00    -0.391 OA
ATOM     17  H4  UNL     1      71.512  26.905  36.913  1.00  0.00     0.210 HD
ENDBRANCH  15  16
BRANCH  15  18
HETATM   18  C9  UNL     1      69.867  25.367  36.620  1.00  0.00     0.198 C 
BRANCH  18  19
HETATM   19  O5  UNL     1      68.830  24.565  36.071  1.00  0.00    -0.398 OA
ATOM     20  H5  UNL     1      68.725  23.795  36.617  1.00  0.00     0.209 HD
ENDBRANCH  18  19
ENDBRANCH  15  18
ENDBRANCH  12  15
ENDBRANCH   9  12
ENDBRANCH   6   9
ENDBRANCH   5   6
ENDBRANCH   2   5
BRANCH   2  21
HETATM   21  C10 UNL     1      72.467  22.439  29.593  1.00  0.00     0.159 C 
BRANCH  21  22
HETATM   22  N2  UNL     1      71.509  21.344  29.424  1.00  0.00    -0.350 N 
HETATM   23  C11 UNL     1      70.520  21.261  28.444  1.00  0.00     0.222 C 
HETATM   24  O6  UNL     1      70.307  22.129  27.562  1.00  0.00    -0.273 OA
ATOM     25  H2  UNL     1      71.571  20.569  30.085  1.00  0.00     0.163 HD
BRANCH  23  26
HETATM   26  C12 UNL     1      69.618  20.087  28.383  1.00  0.00     0.078 C 
HETATM   27  C13 UNL     1      69.046  19.826  29.792  1.00  0.00     0.014 C 
HETATM   28  C14 UNL     1      68.383  18.489  29.821  1.00  0.00     0.001 C 
HETATM   29  C15 UNL     1      68.271  17.855  28.457  1.00  0.00     0.000 C 
HETATM   30  C16 UNL     1      69.657  17.625  27.866  1.00  0.00     0.001 C 
HETATM   31  C17 UNL     1      70.453  18.866  28.080  1.00  0.00     0.014 C 
ENDBRANCH  23  26
ENDBRANCH  21  22
BRANCH  21  32
HETATM   32  C18 UNL     1      73.512  22.260  28.580  1.00  0.00     0.242 C 
BRANCH  32  33
HETATM   33  O7  UNL     1      73.003  21.152  27.793  1.00  0.00    -0.375 OA
ATOM     34  H7  UNL     1      73.797  20.698  27.537  1.00  0.00     0.212 HD
ENDBRANCH  32  33
BRANCH  32  35
HETATM   35  N3  UNL     1      73.794  23.228  27.597  1.00  0.00    -0.362 N 
ATOM     36  H3  UNL     1      73.099  23.478  26.893  1.00  0.00     0.162 HD
BRANCH  35  37
HETATM   37  C19 UNL     1      75.090  23.856  27.613  1.00  0.00     0.035 A 
HETATM   38  C20 UNL     1      75.210  25.198  27.443  1.00  0.00     0.073 A 
HETATM   39  C21 UNL     1      76.462  25.779  27.427  1.00  0.00     0.143 A 
HETATM   40  F1  UNL     1      76.556  27.127  27.257  1.00  0.00    -0.204 F 
HETATM   41  C22 UNL     1      77.581  24.980  27.585  1.00  0.00     0.111 A 
HETATM   42 CL1  UNL     1      79.160  25.742  27.558  1.00  0.00    -0.078 Cl
HETATM   43  C23 UNL     1      77.462  23.635  27.755  1.00  0.00     0.143 A 
HETATM   44  F2  UNL     1      78.580  22.869  27.907  1.00  0.00    -0.204 F 
HETATM   45  C24 UNL     1      76.219  23.042  27.773  1.00  0.00     0.073 A 
ENDBRANCH  35  37
ENDBRANCH  32  35
ENDBRANCH  21  32
ENDBRANCH   2  21
TORSDOF 18
ENDMDL
MODEL 4
REMARK VINA RESULT: -8.071503132      1.260      2.836
REMARK  18 active torsions:
REMARK  status: ('A' for Active; 'I' for Inactive)
REMARK    1  A    between atoms: C2_2  and  C4_5 
REMARK    2  A    between atoms: C2_2  and  C10_21 
REMARK    3  A    between atoms: C4_5  and  C5_6 
REMARK    4  A    between atoms: C5_6  and  O1_7 
REMARK    5  A    between atoms: C5_6  and  C6_9 
REMARK    6  A    between atoms: C6_9  and  O2_10 
REMARK    7  A    between atoms: C6_9  and  C7_12 
REMARK    8  A    between atoms: C7_12  and  O3_13 
REMARK    9  A    between atoms: C7_12  and  C8_15 
REMARK   10  A    between atoms: C8_15  and  O4_16 
REMARK   11  A    between atoms: C8_15  and  C9_18 
REMARK   12  A    between atoms: C9_18  and  O5_19 
REMARK   13  A    between atoms: C10_21  and  N2_22 
REMARK   14  A    between atoms: C10_21  and  C18_32 
REMARK       I    between atoms: N2_22  and  C11_24 
REMARK   15  A    between atoms: C11_24  and  C12_26 
REMARK   16  A    between atoms: C18_32  and  O7_33 
REMARK   17  A    between atoms: C18_32  and  N3_35 
REMARK   18  A    between atoms: N3_35  and  C19_37 
ROOT
HETATM    1  C1  UNL     1      71.952  21.262  31.714  1.00  0.00     0.038 C 
HETATM    2  C2  UNL     1      72.741  22.401  31.103  1.00  0.00     0.090 C 
HETATM    3  C3  UNL     1      74.128  22.005  31.186  1.00  0.00     0.075 C 
HETATM    4  N1  UNL     1      75.260  21.660  31.234  1.00  0.00    -0.196 NA
ENDROOT
BRANCH   2   5
HETATM    5  C4  UNL     1      72.475  23.718  31.666  1.00  0.00     0.034 C 
BRANCH   5   6
HETATM    6  C5  UNL     1      72.986  24.184  32.952  1.00  0.00     0.072 C 
BRANCH   6   7
HETATM    7  O1  UNL     1      73.314  25.526  33.084  1.00  0.00    -0.362 OA
ATOM      8  H1  UNL     1      73.310  25.908  33.953  1.00  0.00     0.217 HD
ENDBRANCH   6   7
BRANCH   6   9
HETATM    9  C6  UNL     1      72.477  23.564  34.223  1.00  0.00     0.205 C 
BRANCH   9  10
HETATM   10  O2  UNL     1      71.471  24.246  34.855  1.00  0.00    -0.386 OA
ATOM     11  H2  UNL     1      71.746  24.838  35.546  1.00  0.00     0.210 HD
ENDBRANCH   9  10
BRANCH   9  12
HETATM   12  C7  UNL     1      73.598  23.307  35.191  1.00  0.00     0.184 C 
BRANCH  12  13
HETATM   13  O3  UNL     1      74.124  24.544  35.611  1.00  0.00    -0.390 OA
ATOM     14  H3  UNL     1      74.893  24.383  36.144  1.00  0.00     0.210 HD
ENDBRANCH  12  13
BRANCH  12  15
HETATM   15  C8  UNL     1      74.735  22.476  34.705  1.00  0.00     0.173 C 
BRANCH  15  16
HETATM   16  O4  UNL     1      74.258  21.128  34.740  1.00  0.00    -0.391 OA
ATOM     17  H4  UNL     1      74.397  20.791  33.864  1.00  0.00     0.210 HD
ENDBRANCH  15  16
BRANCH  15  18
HETATM   18  C9  UNL     1      75.914  22.471  35.655  1.00  0.00     0.198 C 
BRANCH  18  19
HETATM   19  O5  UNL     1      77.084  22.145  34.919  1.00  0.00    -0.398 OA
ATOM     20  H5  UNL     1      77.163  22.754  34.194  1.00  0.00     0.209 HD
ENDBRANCH  18  19
ENDBRANCH  15  18
ENDBRANCH  12  15
ENDBRANCH   9  12
ENDBRANCH   6   9
ENDBRANCH   5   6
ENDBRANCH   2   5
BRANCH   2  21
HETATM   21  C10 UNL     1      72.421  22.339  29.604  1.00  0.00     0.159 C 
BRANCH  21  22
HETATM   22  N2  UNL     1      71.446  21.258  29.444  1.00  0.00    -0.350 N 
HETATM   23  C11 UNL     1      70.474  21.169  28.446  1.00  0.00     0.222 C 
HETATM   24  O6  UNL     1      70.296  22.018  27.538  1.00  0.00    -0.273 OA
ATOM     25  H2  UNL     1      71.480  20.499  30.124  1.00  0.00     0.163 HD
BRANCH  23  26
HETATM   26  C12 UNL     1      69.552  20.011  28.396  1.00  0.00     0.078 C 
HETATM   27  C13 UNL     1      69.034  19.726  29.821  1.00  0.00     0.014 C 
HETATM   28  C14 UNL     1      68.351  18.399  29.847  1.00  0.00     0.001 C 
HETATM   29  C15 UNL     1      68.171  17.800  28.476  1.00  0.00     0.000 C 
HETATM   30  C16 UNL     1      69.528  17.562  27.821  1.00  0.00     0.001 C 
HETATM   31  C17 UNL     1      70.353  18.785  28.031  1.00  0.00     0.014 C 
ENDBRANCH  23  26
ENDBRANCH  21  22
BRANCH  21  32
HETATM   32  C18 UNL     1      73.525  22.066  28.679  1.00  0.00     0.242 C 
BRANCH  32  33
HETATM   33  O7  UNL     1      73.100  20.840  28.031  1.00  0.00    -0.375 OA
ATOM     34  H7  UNL     1      72.451  21.148  27.410  1.00  0.00     0.212 HD
ENDBRANCH  32  33
BRANCH  32  35
HETATM   35  N3  UNL     1      73.826  22.901  27.585  1.00  0.00    -0.362 N 
ATOM     36  H3  UNL     1      73.177  22.995  26.804  1.00  0.00     0.162 HD
BRANCH  35  37
HETATM   37  C19 UNL     1      75.075  23.617  27.600  1.00  0.00     0.035 A 
HETATM   38  C20 UNL     1      75.110  24.951  27.350  1.00  0.00     0.073 A 
HETATM   39  C21 UNL     1      76.320  25.616  27.334  1.00  0.00     0.143 A 
HETATM   40  F1  UNL     1      76.327  26.956  27.084  1.00  0.00    -0.204 F 
HETATM   41  C22 UNL     1      77.484  24.909  27.575  1.00  0.00     0.111 A 
HETATM   42 CL1  UNL     1      79.007  25.776  27.547  1.00  0.00    -0.078 Cl
HETATM   43  C23 UNL     1      77.451  23.571  27.825  1.00  0.00     0.143 A 
HETATM   44  F2  UNL     1      78.613  22.896  28.057  1.00  0.00    -0.204 F 
HETATM   45  C24 UNL     1      76.251  22.895  27.844  1.00  0.00     0.073 A 
ENDBRANCH  35  37
ENDBRANCH  32  35
ENDBRANCH  21  32
ENDBRANCH   2  21
TORSDOF 18
ENDMDL
MODEL 5
REMARK VINA RESULT: -8.061816659      3.523      8.125
REMARK  18 active torsions:
REMARK  status: ('A' for Active; 'I' for Inactive)
REMARK    1  A    between atoms: C2_2  and  C4_5 
REMARK    2  A    between atoms: C2_2  and  C10_21 
REMARK    3  A    between atoms: C4_5  and  C5_6 
REMARK    4  A    between atoms: C5_6  and  O1_7 
REMARK    5  A    between atoms: C5_6  and  C6_9 
REMARK    6  A    between atoms: C6_9  and  O2_10 
REMARK    7  A    between atoms: C6_9  and  C7_12 
REMARK    8  A    between atoms: C7_12  and  O3_13 
REMARK    9  A    between atoms: C7_12  and  C8_15 
REMARK   10  A    between atoms: C8_15  and  O4_16 
REMARK   11  A    between atoms: C8_15  and  C9_18 
REMARK   12  A    between atoms: C9_18  and  O5_19 
REMARK   13  A    between atoms: C10_21  and  N2_22 
REMARK   14  A    between atoms: C10_21  and  C18_32 
REMARK       I    between atoms: N2_22  and  C11_24 
REMARK   15  A    between atoms: C11_24  and  C12_26 
REMARK   16  A    between atoms: C18_32  and  O7_33 
REMARK   17  A    between atoms: C18_32  and  N3_35 
REMARK   18  A    between atoms: N3_35  and  C19_37 
ROOT
HETATM    1  C1  UNL     1      73.338  21.021  28.202  1.00  0.00     0.038 C 
HETATM    2  C2  UNL     1      72.569  21.361  29.462  1.00  0.00     0.090 C 
HETATM    3  C3  UNL     1      73.483  21.121  30.555  1.00  0.00     0.075 C 
HETATM    4  N1  UNL     1      74.248  20.948  31.442  1.00  0.00    -0.196 NA
ENDROOT
BRANCH   2   5
HETATM    5  C4  UNL     1      71.287  20.685  29.613  1.00  0.00     0.034 C 
BRANCH   5   6
HETATM    6  C5  UNL     1      70.432  20.280  28.501  1.00  0.00     0.072 C 
BRANCH   6   7
HETATM    7  O1  UNL     1      70.264  21.164  27.445  1.00  0.00    -0.362 OA
ATOM      8  H1  UNL     1      69.945  20.822  26.617  1.00  0.00     0.217 HD
ENDBRANCH   6   7
BRANCH   6   9
HETATM    9  C6  UNL     1      70.382  18.837  28.089  1.00  0.00     0.205 C 
BRANCH   9  10
HETATM   10  O2  UNL     1      71.023  18.530  26.918  1.00  0.00    -0.386 OA
ATOM     11  H2  UNL     1      70.552  17.953  26.329  1.00  0.00     0.210 HD
ENDBRANCH   9  10
BRANCH   9  12
HETATM   12  C7  UNL     1      68.966  18.334  28.035  1.00  0.00     0.184 C 
BRANCH  12  13
HETATM   13  O3  UNL     1      68.564  17.977  29.336  1.00  0.00    -0.390 OA
ATOM     14  H3  UNL     1      68.284  17.069  29.330  1.00  0.00     0.210 HD
ENDBRANCH  12  13
BRANCH  12  15
HETATM   15  C8  UNL     1      68.694  17.172  27.143  1.00  0.00     0.173 C 
BRANCH  15  16
HETATM   16  O4  UNL     1      67.997  17.715  26.019  1.00  0.00    -0.391 OA
ATOM     17  H4  UNL     1      68.173  17.116  25.303  1.00  0.00     0.210 HD
ENDBRANCH  15  16
BRANCH  15  18
HETATM   18  C9  UNL     1      67.713  16.185  27.740  1.00  0.00     0.198 C 
BRANCH  18  19
HETATM   19  O5  UNL     1      66.398  16.690  27.556  1.00  0.00    -0.398 OA
ATOM     20  H5  UNL     1      65.977  16.189  26.868  1.00  0.00     0.209 HD
ENDBRANCH  18  19
ENDBRANCH  15  18
ENDBRANCH  12  15
ENDBRANCH   9  12
ENDBRANCH   6   9
ENDBRANCH   5   6
ENDBRANCH   2   5
BRANCH   2  21
HETATM   21  C10 UNL     1      72.416  22.887  29.427  1.00  0.00     0.159 C 
BRANCH  21  22
HETATM   22  N2  UNL     1      73.774  23.428  29.340  1.00  0.00    -0.350 N 
HETATM   23  C11 UNL     1      74.364  23.989  28.206  1.00  0.00     0.222 C 
HETATM   24  O6  UNL     1      73.805  24.106  27.088  1.00  0.00    -0.273 OA
ATOM     25  H2  UNL     1      74.342  23.390  30.186  1.00  0.00     0.163 HD
BRANCH  23  26
HETATM   26  C12 UNL     1      75.750  24.508  28.258  1.00  0.00     0.078 C 
HETATM   27  C13 UNL     1      75.811  25.841  27.483  1.00  0.00     0.014 C 
HETATM   28  C14 UNL     1      77.236  26.227  27.266  1.00  0.00     0.001 C 
HETATM   29  C15 UNL     1      78.207  25.349  28.015  1.00  0.00     0.000 C 
HETATM   30  C16 UNL     1      78.085  23.904  27.543  1.00  0.00     0.001 C 
HETATM   31  C17 UNL     1      76.635  23.571  27.472  1.00  0.00     0.014 C 
ENDBRANCH  23  26
ENDBRANCH  21  22
BRANCH  21  32
HETATM   32  C18 UNL     1      71.765  23.536  30.570  1.00  0.00     0.242 C 
BRANCH  32  33
HETATM   33  O7  UNL     1      70.357  23.310  30.303  1.00  0.00    -0.375 OA
ATOM     34  H7  UNL     1      70.155  22.575  30.870  1.00  0.00     0.212 HD
ENDBRANCH  32  33
BRANCH  32  35
HETATM   35  N3  UNL     1      71.904  23.071  31.892  1.00  0.00    -0.362 N 
ATOM     36  H3  UNL     1      71.531  22.163  32.170  1.00  0.00     0.162 HD
BRANCH  35  37
HETATM   37  C19 UNL     1      72.589  23.911  32.840  1.00  0.00     0.035 A 
HETATM   38  C20 UNL     1      72.410  25.257  32.825  1.00  0.00     0.073 A 
HETATM   39  C21 UNL     1      73.101  26.051  33.719  1.00  0.00     0.143 A 
HETATM   40  F1  UNL     1      72.902  27.399  33.686  1.00  0.00    -0.204 F 
HETATM   41  C22 UNL     1      73.967  25.460  34.620  1.00  0.00     0.111 A 
HETATM   42 CL1  UNL     1      74.834  26.491  35.743  1.00  0.00    -0.078 Cl
HETATM   43  C23 UNL     1      74.148  24.111  34.636  1.00  0.00     0.143 A 
HETATM   44  F2  UNL     1      75.009  23.552  35.533  1.00  0.00    -0.204 F 
HETATM   45  C24 UNL     1      73.466  23.306  33.750  1.00  0.00     0.073 A 
ENDBRANCH  35  37
ENDBRANCH  32  35
ENDBRANCH  21  32
ENDBRANCH   2  21
TORSDOF 18
ENDMDL
