MODEL 1
REMARK VINA RESULT: -4.975861507      0.000      0.000
REMARK  3 active torsions:
REMARK  status: ('A' for Active; 'I' for Inactive)
REMARK    1  A    between atoms: N1_1  and  C1_4 
REMARK    2  A    between atoms: C2_10  and  C3_11 
REMARK    3  A    between atoms: C3_11  and  N5_12 
ROOT
HETATM    1  C1  UNL     1      36.437  37.708  18.377  1.00  0.00     0.137 A 
HETATM    2  N2  UNL     1      35.675  38.687  18.945  1.00  0.00    -0.268 N 
ATOM      3  H2  UNL     1      35.602  38.875  19.945  1.00  0.00     0.186 HD
HETATM    4  N3  UNL     1      35.045  39.357  17.988  1.00  0.00    -0.021 NA
HETATM    5  N4  UNL     1      35.401  38.813  16.827  1.00  0.00    -0.283 N 
ATOM      6  H4  UNL     1      35.071  39.120  15.912  1.00  0.00     0.184 HD
HETATM    7  C2  UNL     1      36.244  37.817  17.030  1.00  0.00     0.093 A 
ENDROOT
BRANCH   7   8
HETATM    8  C3  UNL     1      36.930  36.963  16.009  1.00  0.00     0.291 C 
BRANCH   8   9
HETATM    9  N5  UNL     1      36.619  37.666  14.691  1.00  0.00    -0.074 N 
ATOM     10  H53 UNL     1      37.198  38.483  14.502  1.00  0.00     0.274 HD
ATOM     11  H52 UNL     1      36.895  37.145  13.859  1.00  0.00     0.274 HD
ATOM     12  H51 UNL     1      35.620  37.861  14.757  1.00  0.00     0.274 HD
ENDBRANCH   8   9
ENDBRANCH   7   8
BRANCH   1  13
HETATM   13  N1  UNL     1      37.275  36.909  18.935  1.00  0.00    -0.383 N 
ATOM     14  H12 UNL     1      38.002  36.392  18.441  1.00  0.00     0.157 HD
ATOM     15  H11 UNL     1      37.430  36.731  19.927  1.00  0.00     0.157 HD
ENDBRANCH   1  13
TORSDOF 3
ENDMDL
MODEL 2
REMARK VINA RESULT: -4.960352526      1.624      2.737
REMARK  3 active torsions:
REMARK  status: ('A' for Active; 'I' for Inactive)
REMARK    1  A    between atoms: N1_1  and  C1_4 
REMARK    2  A    between atoms: C2_10  and  C3_11 
REMARK    3  A    between atoms: C3_11  and  N5_12 
ROOT
HETATM    1  C1  UNL     1      36.337  36.424  17.361  1.00  0.00     0.137 A 
HETATM    2  N2  UNL     1      35.426  37.042  16.555  1.00  0.00    -0.268 N 
ATOM      3  H2  UNL     1      34.814  36.574  15.887  1.00  0.00     0.186 HD
HETATM    4  N3  UNL     1      35.464  38.349  16.779  1.00  0.00    -0.021 NA
HETATM    5  N4  UNL     1      36.386  38.561  17.716  1.00  0.00    -0.283 N 
ATOM      6  H4  UNL     1      36.637  39.476  18.091  1.00  0.00     0.184 HD
HETATM    7  C2  UNL     1      36.927  37.417  18.089  1.00  0.00     0.093 A 
ENDROOT
BRANCH   7   8
HETATM    8  C3  UNL     1      37.965  37.185  19.144  1.00  0.00     0.291 C 
BRANCH   8   9
HETATM    9  N5  UNL     1      38.625  38.552  19.299  1.00  0.00    -0.074 N 
ATOM     10  H53 UNL     1      38.612  39.125  18.455  1.00  0.00     0.274 HD
ATOM     11  H52 UNL     1      38.105  39.209  19.881  1.00  0.00     0.274 HD
ATOM     12  H51 UNL     1      39.558  38.327  19.644  1.00  0.00     0.274 HD
ENDBRANCH   8   9
ENDBRANCH   7   8
BRANCH   1  13
HETATM   13  N1  UNL     1      36.546  35.168  17.531  1.00  0.00    -0.383 N 
ATOM     14  H12 UNL     1      35.815  34.457  17.568  1.00  0.00     0.157 HD
ATOM     15  H11 UNL     1      37.431  34.661  17.557  1.00  0.00     0.157 HD
ENDBRANCH   1  13
TORSDOF 3
ENDMDL
MODEL 3
REMARK VINA RESULT: -4.942592734      1.320      3.452
REMARK  3 active torsions:
REMARK  status: ('A' for Active; 'I' for Inactive)
REMARK    1  A    between atoms: N1_1  and  C1_4 
REMARK    2  A    between atoms: C2_10  and  C3_11 
REMARK    3  A    between atoms: C3_11  and  N5_12 
ROOT
HETATM    1  C1  UNL     1      36.255  37.758  16.711  1.00  0.00     0.137 A 
HETATM    2  N2  UNL     1      36.600  37.545  15.409  1.00  0.00    -0.268 N 
ATOM      3  H2  UNL     1      36.245  38.068  14.609  1.00  0.00     0.186 HD
HETATM    4  N3  UNL     1      37.474  36.547  15.349  1.00  0.00    -0.021 NA
HETATM    5  N4  UNL     1      37.682  36.131  16.596  1.00  0.00    -0.283 N 
ATOM      6  H4  UNL     1      38.307  35.371  16.861  1.00  0.00     0.184 HD
HETATM    7  C2  UNL     1      36.962  36.846  17.441  1.00  0.00     0.093 A 
ENDROOT
BRANCH   7   8
HETATM    8  C3  UNL     1      36.925  36.752  18.935  1.00  0.00     0.291 C 
BRANCH   8   9
HETATM    9  N5  UNL     1      38.380  36.969  19.340  1.00  0.00    -0.074 N 
ATOM     10  H53 UNL     1      38.935  37.488  18.660  1.00  0.00     0.274 HD
ATOM     11  H52 UNL     1      38.511  37.627  20.109  1.00  0.00     0.274 HD
ATOM     12  H51 UNL     1      38.717  36.025  19.529  1.00  0.00     0.274 HD
ENDBRANCH   8   9
ENDBRANCH   7   8
BRANCH   1  13
HETATM   13  N1  UNL     1      35.523  38.688  17.212  1.00  0.00    -0.383 N 
ATOM     14  H12 UNL     1      35.788  39.273  18.004  1.00  0.00     0.157 HD
ATOM     15  H11 UNL     1      34.638  39.064  16.871  1.00  0.00     0.157 HD
ENDBRANCH   1  13
TORSDOF 3
ENDMDL
MODEL 4
REMARK VINA RESULT: -4.859300678      1.359      2.490
REMARK  3 active torsions:
REMARK  status: ('A' for Active; 'I' for Inactive)
REMARK    1  A    between atoms: N1_1  and  C1_4 
REMARK    2  A    between atoms: C2_10  and  C3_11 
REMARK    3  A    between atoms: C3_11  and  N5_12 
ROOT
HETATM    1  C1  UNL     1      36.345  37.794  16.531  1.00  0.00     0.137 A 
HETATM    2  N2  UNL     1      35.520  38.757  17.035  1.00  0.00    -0.268 N 
ATOM      3  H2  UNL     1      35.016  39.451  16.485  1.00  0.00     0.186 HD
HETATM    4  N3  UNL     1      35.480  38.645  18.357  1.00  0.00    -0.021 NA
HETATM    5  N4  UNL     1      36.267  37.625  18.691  1.00  0.00    -0.283 N 
ATOM      6  H4  UNL     1      36.434  37.304  19.644  1.00  0.00     0.184 HD
HETATM    7  C2  UNL     1      36.801  37.089  17.609  1.00  0.00     0.093 A 
ENDROOT
BRANCH   7   8
HETATM    8  C3  UNL     1      37.705  35.899  17.516  1.00  0.00     0.291 C 
BRANCH   8   9
HETATM    9  N5  UNL     1      36.740  34.718  17.551  1.00  0.00    -0.074 N 
ATOM     10  H53 UNL     1      36.377  34.442  16.639  1.00  0.00     0.274 HD
ATOM     11  H52 UNL     1      37.177  33.822  17.766  1.00  0.00     0.274 HD
ATOM     12  H51 UNL     1      36.028  35.013  18.219  1.00  0.00     0.274 HD
ENDBRANCH   8   9
ENDBRANCH   7   8
BRANCH   1  13
HETATM   13  N1  UNL     1      36.579  37.489  15.305  1.00  0.00    -0.383 N 
ATOM     14  H12 UNL     1      36.114  37.914  14.502  1.00  0.00     0.157 HD
ATOM     15  H11 UNL     1      37.300  36.879  14.921  1.00  0.00     0.157 HD
ENDBRANCH   1  13
TORSDOF 3
ENDMDL
MODEL 5
REMARK VINA RESULT: -4.840299837      1.370      1.862
REMARK  3 active torsions:
REMARK  status: ('A' for Active; 'I' for Inactive)
REMARK    1  A    between atoms: N1_1  and  C1_4 
REMARK    2  A    between atoms: C2_10  and  C3_11 
REMARK    3  A    between atoms: C3_11  and  N5_12 
ROOT
HETATM    1  C1  UNL     1      37.073  37.978  18.120  1.00  0.00     0.137 A 
HETATM    2  N2  UNL     1      36.171  38.997  18.011  1.00  0.00    -0.268 N 
ATOM      3  H2  UNL     1      36.165  39.844  18.578  1.00  0.00     0.186 HD
HETATM    4  N3  UNL     1      35.304  38.708  17.048  1.00  0.00    -0.021 NA
HETATM    5  N4  UNL     1      35.649  37.523  16.551  1.00  0.00    -0.283 N 
ATOM      6  H4  UNL     1      35.160  37.043  15.796  1.00  0.00     0.184 HD
HETATM    7  C2  UNL     1      36.715  37.059  17.175  1.00  0.00     0.093 A 
ENDROOT
BRANCH   7   8
HETATM    8  C3  UNL     1      37.465  35.791  16.908  1.00  0.00     0.291 C 
BRANCH   8   9
HETATM    9  N5  UNL     1      36.718  34.754  17.741  1.00  0.00    -0.074 N 
ATOM     10  H53 UNL     1      35.837  34.440  17.334  1.00  0.00     0.274 HD
ATOM     11  H52 UNL     1      37.157  33.834  17.765  1.00  0.00     0.274 HD
ATOM     12  H51 UNL     1      36.626  35.204  18.652  1.00  0.00     0.274 HD
ENDBRANCH   8   9
ENDBRANCH   7   8
BRANCH   1  13
HETATM   13  N1  UNL     1      38.127  37.906  18.850  1.00  0.00    -0.383 N 
ATOM     14  H12 UNL     1      38.902  37.262  18.690  1.00  0.00     0.157 HD
ATOM     15  H11 UNL     1      38.419  38.509  19.620  1.00  0.00     0.157 HD
ENDBRANCH   1  13
TORSDOF 3
ENDMDL
