MODEL 1
REMARK VINA RESULT: -5.608936166      0.000      0.000
REMARK  3 active torsions:
REMARK  status: ('A' for Active; 'I' for Inactive)
REMARK    1  A    between atoms: C4_5  and  C5_6 
REMARK    2  A    between atoms: C5_6  and  N2_7 
REMARK    3  A    between atoms: C5_6  and  N3_11 
ROOT
HETATM    1  C5  UNL     1      37.672  35.569  21.219  1.00  0.00     0.412 C 
ENDROOT
BRANCH   1   2
HETATM    2  C4  UNL     1      37.114  35.901  19.868  1.00  0.00     0.014 A 
HETATM    3  C3  UNL     1      37.066  34.951  18.869  1.00  0.00     0.015 A 
HETATM    4  C2  UNL     1      36.535  35.342  17.656  1.00  0.00     0.046 A 
HETATM    5  C1  UNL     1      36.066  36.616  17.416  1.00  0.00     0.116 A 
HETATM    6  N1  UNL     1      35.527  36.955  16.128  1.00  0.00    -0.083 NA
HETATM    7  N4  UNL     1      36.130  37.515  18.418  1.00  0.00    -0.354 N 
HETATM    8  C6  UNL     1      36.640  37.171  19.612  1.00  0.00     0.100 A 
ATOM      9  H4  UNL     1      35.789  38.465  18.268  1.00  0.00     0.166 HD
ENDBRANCH   1   2
BRANCH   1  10
HETATM   10  N2  UNL     1      36.756  35.985  22.264  1.00  0.00    -0.046 N 
ATOM     11  H23 UNL     1      36.008  36.575  21.900  1.00  0.00     0.277 HD
ATOM     12  H22 UNL     1      36.188  35.208  22.601  1.00  0.00     0.277 HD
ATOM     13  H21 UNL     1      37.262  36.440  23.023  1.00  0.00     0.277 HD
ENDBRANCH   1  10
BRANCH   1  14
HETATM   14  N3  UNL     1      37.869  34.141  21.353  1.00  0.00    -0.046 N 
ATOM     15  H33 UNL     1      38.512  33.918  22.113  1.00  0.00     0.277 HD
ATOM     16  H32 UNL     1      37.036  33.676  21.716  1.00  0.00     0.277 HD
ATOM     17  H31 UNL     1      38.173  33.734  20.469  1.00  0.00     0.277 HD
ENDBRANCH   1  14
TORSDOF 3
ENDMDL
MODEL 2
REMARK VINA RESULT: -5.551296569      1.437      4.429
REMARK  3 active torsions:
REMARK  status: ('A' for Active; 'I' for Inactive)
REMARK    1  A    between atoms: C4_5  and  C5_6 
REMARK    2  A    between atoms: C5_6  and  N2_7 
REMARK    3  A    between atoms: C5_6  and  N3_11 
ROOT
HETATM    1  C5  UNL     1      35.906  37.463  16.508  1.00  0.00     0.412 C 
ENDROOT
BRANCH   1   2
HETATM    2  C4  UNL     1      36.573  36.766  17.654  1.00  0.00     0.014 A 
HETATM    3  C3  UNL     1      37.283  37.478  18.599  1.00  0.00     0.015 A 
HETATM    4  C2  UNL     1      37.865  36.756  19.622  1.00  0.00     0.046 A 
HETATM    5  C1  UNL     1      37.763  35.385  19.728  1.00  0.00     0.116 A 
HETATM    6  N1  UNL     1      38.394  34.698  20.820  1.00  0.00    -0.083 NA
HETATM    7  N4  UNL     1      37.060  34.727  18.786  1.00  0.00    -0.354 N 
HETATM    8  C6  UNL     1      36.480  35.395  17.775  1.00  0.00     0.100 A 
ATOM      9  H4  UNL     1      36.968  33.712  18.840  1.00  0.00     0.166 HD
ENDBRANCH   1   2
BRANCH   1  10
HETATM   10  N2  UNL     1      35.390  38.753  16.926  1.00  0.00    -0.046 N 
ATOM     11  H23 UNL     1      34.502  38.665  17.419  1.00  0.00     0.277 HD
ATOM     12  H22 UNL     1      35.946  39.156  17.681  1.00  0.00     0.277 HD
ATOM     13  H21 UNL     1      35.320  39.385  16.129  1.00  0.00     0.277 HD
ENDBRANCH   1  10
BRANCH   1  14
HETATM   14  N3  UNL     1      36.848  37.696  15.434  1.00  0.00    -0.046 N 
ATOM     15  H33 UNL     1      37.728  37.205  15.590  1.00  0.00     0.277 HD
ATOM     16  H32 UNL     1      36.563  37.229  14.572  1.00  0.00     0.277 HD
ATOM     17  H31 UNL     1      36.993  38.695  15.292  1.00  0.00     0.277 HD
ENDBRANCH   1  14
TORSDOF 3
ENDMDL
MODEL 3
REMARK VINA RESULT: -5.461308482      1.207      1.623
REMARK  3 active torsions:
REMARK  status: ('A' for Active; 'I' for Inactive)
REMARK    1  A    between atoms: C4_5  and  C5_6 
REMARK    2  A    between atoms: C5_6  and  N2_7 
REMARK    3  A    between atoms: C5_6  and  N3_11 
ROOT
HETATM    1  C5  UNL     1      37.610  35.668  21.351  1.00  0.00     0.412 C 
ENDROOT
BRANCH   1   2
HETATM    2  C4  UNL     1      37.412  35.893  19.883  1.00  0.00     0.014 A 
HETATM    3  C3  UNL     1      37.664  37.125  19.315  1.00  0.00     0.015 A 
HETATM    4  C2  UNL     1      37.456  37.243  17.956  1.00  0.00     0.046 A 
HETATM    5  C1  UNL     1      37.017  36.201  17.168  1.00  0.00     0.116 A 
HETATM    6  N1  UNL     1      36.822  36.396  15.758  1.00  0.00    -0.083 NA
HETATM    7  N4  UNL     1      36.783  35.014  17.760  1.00  0.00    -0.354 N 
HETATM    8  C6  UNL     1      36.973  34.859  19.081  1.00  0.00     0.100 A 
ATOM      9  H4  UNL     1      36.458  34.225  17.201  1.00  0.00     0.166 HD
ENDBRANCH   1   2
BRANCH   1  10
HETATM   10  N2  UNL     1      36.393  35.971  22.081  1.00  0.00    -0.046 N 
ATOM     11  H23 UNL     1      35.562  35.844  21.503  1.00  0.00     0.277 HD
ATOM     12  H22 UNL     1      36.193  35.267  22.793  1.00  0.00     0.277 HD
ATOM     13  H21 UNL     1      36.438  36.908  22.479  1.00  0.00     0.277 HD
ENDBRANCH   1  10
BRANCH   1  14
HETATM   14  N3  UNL     1      37.945  34.284  21.615  1.00  0.00    -0.046 N 
ATOM     15  H33 UNL     1      37.129  33.747  21.910  1.00  0.00     0.277 HD
ATOM     16  H32 UNL     1      38.162  33.777  20.757  1.00  0.00     0.277 HD
ATOM     17  H31 UNL     1      38.704  34.221  22.294  1.00  0.00     0.277 HD
ENDBRANCH   1  14
TORSDOF 3
ENDMDL
MODEL 4
REMARK VINA RESULT: -5.429753941      1.384      4.219
REMARK  3 active torsions:
REMARK  status: ('A' for Active; 'I' for Inactive)
REMARK    1  A    between atoms: C4_5  and  C5_6 
REMARK    2  A    between atoms: C5_6  and  N2_7 
REMARK    3  A    between atoms: C5_6  and  N3_11 
ROOT
HETATM    1  C5  UNL     1      35.904  37.509  16.493  1.00  0.00     0.412 C 
ENDROOT
BRANCH   1   2
HETATM    2  C4  UNL     1      36.560  36.787  17.630  1.00  0.00     0.014 A 
HETATM    3  C3  UNL     1      36.447  35.419  17.761  1.00  0.00     0.015 A 
HETATM    4  C2  UNL     1      37.084  34.836  18.838  1.00  0.00     0.046 A 
HETATM    5  C1  UNL     1      37.809  35.556  19.763  1.00  0.00     0.116 A 
HETATM    6  N1  UNL     1      38.447  34.884  20.861  1.00  0.00    -0.083 NA
HETATM    7  N4  UNL     1      37.896  36.891  19.600  1.00  0.00    -0.354 N 
HETATM    8  C6  UNL     1      37.290  37.494  18.564  1.00  0.00     0.100 A 
ATOM      9  H4  UNL     1      38.427  37.449  20.269  1.00  0.00     0.166 HD
ENDBRANCH   1   2
BRANCH   1  10
HETATM   10  N2  UNL     1      35.421  38.807  16.924  1.00  0.00    -0.046 N 
ATOM     11  H23 UNL     1      35.294  38.848  17.935  1.00  0.00     0.277 HD
ATOM     12  H22 UNL     1      36.137  39.528  16.830  1.00  0.00     0.277 HD
ATOM     13  H21 UNL     1      34.567  39.055  16.425  1.00  0.00     0.277 HD
ENDBRANCH   1  10
BRANCH   1  14
HETATM   14  N3  UNL     1      36.846  37.728  15.416  1.00  0.00    -0.046 N 
ATOM     15  H33 UNL     1      36.449  38.314  14.681  1.00  0.00     0.277 HD
ATOM     16  H32 UNL     1      37.612  38.338  15.701  1.00  0.00     0.277 HD
ATOM     17  H31 UNL     1      37.186  36.840  15.049  1.00  0.00     0.277 HD
ENDBRANCH   1  14
TORSDOF 3
ENDMDL
MODEL 5
REMARK VINA RESULT: -5.412545980      1.414      4.442
REMARK  3 active torsions:
REMARK  status: ('A' for Active; 'I' for Inactive)
REMARK    1  A    between atoms: C4_5  and  C5_6 
REMARK    2  A    between atoms: C5_6  and  N2_7 
REMARK    3  A    between atoms: C5_6  and  N3_11 
ROOT
HETATM    1  C5  UNL     1      36.658  38.023  16.818  1.00  0.00     0.412 C 
ENDROOT
BRANCH   1   2
HETATM    2  C4  UNL     1      36.899  37.020  17.904  1.00  0.00     0.014 A 
HETATM    3  C3  UNL     1      37.430  37.403  19.118  1.00  0.00     0.015 A 
HETATM    4  C2  UNL     1      37.618  36.413  20.062  1.00  0.00     0.046 A 
HETATM    5  C1  UNL     1      37.302  35.090  19.837  1.00  0.00     0.116 A 
HETATM    6  N1  UNL     1      37.525  34.112  20.865  1.00  0.00    -0.083 NA
HETATM    7  N4  UNL     1      36.786  34.756  18.638  1.00  0.00    -0.354 N 
HETATM    8  C6  UNL     1      36.588  35.691  17.695  1.00  0.00     0.100 A 
ATOM      9  H4  UNL     1      36.542  33.784  18.445  1.00  0.00     0.166 HD
ENDBRANCH   1   2
BRANCH   1  10
HETATM   10  N2  UNL     1      36.693  37.384  15.516  1.00  0.00    -0.046 N 
ATOM     11  H23 UNL     1      36.476  38.040  14.765  1.00  0.00     0.277 HD
ATOM     12  H22 UNL     1      37.644  37.141  15.238  1.00  0.00     0.277 HD
ATOM     13  H21 UNL     1      36.075  36.573  15.499  1.00  0.00     0.277 HD
ENDBRANCH   1  10
BRANCH   1  14
HETATM   14  N3  UNL     1      35.355  38.637  16.969  1.00  0.00    -0.046 N 
ATOM     15  H33 UNL     1      34.786  38.149  17.661  1.00  0.00     0.277 HD
ATOM     16  H32 UNL     1      35.415  39.544  17.431  1.00  0.00     0.277 HD
ATOM     17  H31 UNL     1      34.881  38.701  16.068  1.00  0.00     0.277 HD
ENDBRANCH   1  14
TORSDOF 3
ENDMDL
