MODEL 1
REMARK VINA RESULT: -4.946480220      0.000      0.000
REMARK  0 active torsions:
REMARK  status: ('A' for Active; 'I' for Inactive)
ROOT
HETATM    1  N1  UNL     1      36.541  35.040  16.878  1.00  0.00    -0.062 NA
HETATM    2  C1  UNL     1      36.253  36.420  17.169  1.00  0.00     0.209 A 
HETATM    3  N2  UNL     1      35.561  37.291  16.415  1.00  0.00    -0.271 N 
ATOM      4  H2  UNL     1      35.136  37.085  15.512  1.00  0.00     0.189 HD
HETATM    5  N3  UNL     1      35.521  38.443  17.026  1.00  0.00    -0.274 N 
ATOM      6  H3  UNL     1      35.056  39.277  16.667  1.00  0.00     0.189 HD
HETATM    7  C2  UNL     1      36.189  38.375  18.212  1.00  0.00     0.193 A 
HETATM    8  S1  UNL     1      36.401  39.568  19.310  1.00  0.00    -0.039 SA
HETATM    9  N4  UNL     1      36.628  37.102  18.261  1.00  0.00    -0.305 N 
ATOM     10  H4  UNL     1      37.174  36.709  19.028  1.00  0.00     0.171 HD
ENDROOT
TORSDOF 0
ENDMDL
MODEL 2
REMARK VINA RESULT: -4.778343718      2.224      2.649
REMARK  0 active torsions:
REMARK  status: ('A' for Active; 'I' for Inactive)
ROOT
HETATM    1  N1  UNL     1      37.202  37.808  14.479  1.00  0.00    -0.062 NA
HETATM    2  C1  UNL     1      36.815  37.381  15.799  1.00  0.00     0.209 A 
HETATM    3  N2  UNL     1      35.878  37.923  16.595  1.00  0.00    -0.271 N 
ATOM      4  H2  UNL     1      35.300  38.731  16.365  1.00  0.00     0.189 HD
HETATM    5  N3  UNL     1      35.827  37.250  17.711  1.00  0.00    -0.274 N 
ATOM      6  H3  UNL     1      35.199  37.456  18.487  1.00  0.00     0.189 HD
HETATM    7  C2  UNL     1      36.734  36.232  17.692  1.00  0.00     0.193 A 
HETATM    8  S1  UNL     1      37.025  35.132  18.866  1.00  0.00    -0.039 SA
HETATM    9  N4  UNL     1      37.326  36.350  16.487  1.00  0.00    -0.305 N 
ATOM     10  H4  UNL     1      38.065  35.736  16.145  1.00  0.00     0.171 HD
ENDROOT
TORSDOF 0
ENDMDL
MODEL 3
REMARK VINA RESULT: -4.674534209      2.951      3.139
REMARK  0 active torsions:
REMARK  status: ('A' for Active; 'I' for Inactive)
ROOT
HETATM    1  N1  UNL     1      38.517  35.927  15.780  1.00  0.00    -0.062 NA
HETATM    2  C1  UNL     1      37.906  35.577  17.036  1.00  0.00     0.209 A 
HETATM    3  N2  UNL     1      36.860  34.758  17.240  1.00  0.00    -0.271 N 
ATOM      4  H2  UNL     1      36.346  34.262  16.512  1.00  0.00     0.189 HD
HETATM    5  N3  UNL     1      36.609  34.699  18.518  1.00  0.00    -0.274 N 
ATOM      6  H3  UNL     1      35.863  34.147  18.941  1.00  0.00     0.189 HD
HETATM    7  C2  UNL     1      37.484  35.482  19.210  1.00  0.00     0.193 A 
HETATM    8  S1  UNL     1      37.552  35.718  20.827  1.00  0.00    -0.039 SA
HETATM    9  N4  UNL     1      38.272  36.009  18.251  1.00  0.00    -0.305 N 
ATOM     10  H4  UNL     1      39.044  36.651  18.428  1.00  0.00     0.171 HD
ENDROOT
TORSDOF 0
ENDMDL
MODEL 4
REMARK VINA RESULT: -4.669332315      1.466      1.665
REMARK  0 active torsions:
REMARK  status: ('A' for Active; 'I' for Inactive)
ROOT
HETATM    1  N1  UNL     1      36.524  36.957  15.057  1.00  0.00    -0.062 NA
HETATM    2  C1  UNL     1      36.346  37.402  16.414  1.00  0.00     0.209 A 
HETATM    3  N2  UNL     1      35.592  38.425  16.851  1.00  0.00    -0.271 N 
ATOM      4  H2  UNL     1      35.030  39.039  16.262  1.00  0.00     0.189 HD
HETATM    5  N3  UNL     1      35.696  38.507  18.148  1.00  0.00    -0.274 N 
ATOM      6  H3  UNL     1      35.223  39.199  18.728  1.00  0.00     0.189 HD
HETATM    7  C2  UNL     1      36.527  37.534  18.619  1.00  0.00     0.193 A 
HETATM    8  S1  UNL     1      36.954  37.250  20.172  1.00  0.00    -0.039 SA
HETATM    9  N4  UNL     1      36.909  36.872  17.510  1.00  0.00    -0.305 N 
ATOM     10  H4  UNL     1      37.543  36.072  17.504  1.00  0.00     0.171 HD
ENDROOT
TORSDOF 0
ENDMDL
MODEL 5
REMARK VINA RESULT: -4.396980006      2.129      3.071
REMARK  0 active torsions:
REMARK  status: ('A' for Active; 'I' for Inactive)
ROOT
HETATM    1  N1  UNL     1      35.042  39.864  19.184  1.00  0.00    -0.062 NA
HETATM    2  C1  UNL     1      35.518  38.897  18.229  1.00  0.00     0.209 A 
HETATM    3  N2  UNL     1      35.402  38.938  16.891  1.00  0.00    -0.271 N 
ATOM      4  H2  UNL     1      34.949  39.680  16.358  1.00  0.00     0.189 HD
HETATM    5  N3  UNL     1      35.963  37.876  16.382  1.00  0.00    -0.274 N 
ATOM      6  H3  UNL     1      36.012  37.664  15.386  1.00  0.00     0.189 HD
HETATM    7  C2  UNL     1      36.473  37.089  17.372  1.00  0.00     0.193 A 
HETATM    8  S1  UNL     1      37.261  35.666  17.211  1.00  0.00    -0.039 SA
HETATM    9  N4  UNL     1      36.175  37.760  18.502  1.00  0.00    -0.305 N 
ATOM     10  H4  UNL     1      36.416  37.444  19.442  1.00  0.00     0.171 HD
ENDROOT
TORSDOF 0
ENDMDL
