MODEL 1
REMARK VINA RESULT: -5.179965940      0.000      0.000
REMARK  3 active torsions:
REMARK  status: ('A' for Active; 'I' for Inactive)
REMARK    1  A    between atoms: N1_1  and  C1_4 
REMARK    2  A    between atoms: C4_9  and  N3_10 
REMARK    3  A    between atoms: N4_13  and  N5_14 
ROOT
HETATM    1  C1  UNL     1      36.391  37.565  18.403  1.00  0.00     0.139 A 
HETATM    2  C2  UNL     1      37.255  36.516  18.656  1.00  0.00     0.068 A 
HETATM    3  C3  UNL     1      37.864  35.815  17.635  1.00  0.00     0.110 A 
HETATM    4  N2  UNL     1      37.591  36.186  16.375  1.00  0.00    -0.200 N 
ATOM      5  H2  UNL     1      38.023  35.690  15.595  1.00  0.00     0.183 HD
HETATM    6  C4  UNL     1      36.751  37.206  16.136  1.00  0.00     0.698 A 
HETATM    7  N4  UNL     1      36.161  37.885  17.123  1.00  0.00    -0.077 N 
ENDROOT
BRANCH   1   8
HETATM    8  N1  UNL     1      35.825  38.216  19.390  1.00  0.00    -0.383 N 
ATOM      9  H12 UNL     1      35.542  37.747  20.251  1.00  0.00     0.157 HD
ATOM     10  H11 UNL     1      35.650  39.218  19.319  1.00  0.00     0.157 HD
ENDBRANCH   1   8
BRANCH   7  11
HETATM   11  N5  UNL     1      35.287  38.947  16.821  1.00  0.00    -0.323 N 
ATOM     12  H52 UNL     1      35.123  39.682  17.509  1.00  0.00     0.178 HD
ATOM     13  H51 UNL     1      34.824  38.973  15.912  1.00  0.00     0.178 HD
ENDBRANCH   7  11
BRANCH   6  14
HETATM   14  N3  UNL     1      36.477  37.576  14.905  1.00  0.00    -0.233 N 
ATOM     15  H32 UNL     1      36.383  38.577  14.729  1.00  0.00     0.174 HD
ATOM     16  H31 UNL     1      36.366  36.883  14.164  1.00  0.00     0.174 HD
ENDBRANCH   6  14
TORSDOF 3
ENDMDL
MODEL 2
REMARK VINA RESULT: -5.140935386      0.856      2.659
REMARK  3 active torsions:
REMARK  status: ('A' for Active; 'I' for Inactive)
REMARK    1  A    between atoms: N1_1  and  C1_4 
REMARK    2  A    between atoms: C4_9  and  N3_10 
REMARK    3  A    between atoms: N4_13  and  N5_14 
ROOT
HETATM    1  C1  UNL     1      36.748  37.230  16.168  1.00  0.00     0.139 A 
HETATM    2  C2  UNL     1      37.601  36.199  16.510  1.00  0.00     0.068 A 
HETATM    3  C3  UNL     1      37.846  35.866  17.827  1.00  0.00     0.110 A 
HETATM    4  N2  UNL     1      37.225  36.581  18.776  1.00  0.00    -0.200 N 
ATOM      5  H2  UNL     1      37.383  36.363  19.760  1.00  0.00     0.183 HD
HETATM    6  C4  UNL     1      36.398  37.583  18.437  1.00  0.00     0.698 A 
HETATM    7  N4  UNL     1      36.159  37.906  17.164  1.00  0.00    -0.077 N 
ENDROOT
BRANCH   1   8
HETATM    8  N1  UNL     1      36.531  37.528  14.909  1.00  0.00    -0.383 N 
ATOM      9  H12 UNL     1      35.831  38.217  14.634  1.00  0.00     0.157 HD
ATOM     10  H11 UNL     1      37.061  37.071  14.168  1.00  0.00     0.157 HD
ENDBRANCH   1   8
BRANCH   7  11
HETATM   11  N5  UNL     1      35.283  38.965  16.859  1.00  0.00    -0.323 N 
ATOM     12  H52 UNL     1      34.573  38.847  16.136  1.00  0.00     0.178 HD
ATOM     13  H51 UNL     1      35.366  39.847  17.366  1.00  0.00     0.178 HD
ENDBRANCH   7  11
BRANCH   6  14
HETATM   14  N3  UNL     1      35.785  38.289  19.361  1.00  0.00    -0.233 N 
ATOM     15  H32 UNL     1      36.231  39.157  19.657  1.00  0.00     0.174 HD
ATOM     16  H31 UNL     1      34.899  37.973  19.757  1.00  0.00     0.174 HD
ENDBRANCH   6  14
TORSDOF 3
ENDMDL
MODEL 3
REMARK VINA RESULT: -4.919611150      1.401      2.528
REMARK  3 active torsions:
REMARK  status: ('A' for Active; 'I' for Inactive)
REMARK    1  A    between atoms: N1_1  and  C1_4 
REMARK    2  A    between atoms: C4_9  and  N3_10 
REMARK    3  A    between atoms: N4_13  and  N5_14 
ROOT
HETATM    1  C1  UNL     1      36.924  36.093  17.761  1.00  0.00     0.139 A 
HETATM    2  C2  UNL     1      37.887  36.432  18.691  1.00  0.00     0.068 A 
HETATM    3  C3  UNL     1      38.005  37.718  19.179  1.00  0.00     0.110 A 
HETATM    4  N2  UNL     1      37.146  38.640  18.719  1.00  0.00    -0.200 N 
ATOM      5  H2  UNL     1      37.204  39.600  19.058  1.00  0.00     0.183 HD
HETATM    6  C4  UNL     1      36.212  38.304  17.815  1.00  0.00     0.698 A 
HETATM    7  N4  UNL     1      36.097  37.061  17.342  1.00  0.00    -0.077 N 
ENDROOT
BRANCH   1   8
HETATM    8  N1  UNL     1      36.832  34.864  17.312  1.00  0.00    -0.383 N 
ATOM      9  H12 UNL     1      35.959  34.338  17.364  1.00  0.00     0.157 HD
ATOM     10  H11 UNL     1      37.639  34.401  16.897  1.00  0.00     0.157 HD
ENDBRANCH   1   8
BRANCH   7  11
HETATM   11  N5  UNL     1      35.101  36.758  16.393  1.00  0.00    -0.323 N 
ATOM     12  H52 UNL     1      35.312  36.133  15.616  1.00  0.00     0.178 HD
ATOM     13  H51 UNL     1      34.173  37.169  16.493  1.00  0.00     0.178 HD
ENDBRANCH   7  11
BRANCH   6  14
HETATM   14  N3  UNL     1      35.367  39.201  17.358  1.00  0.00    -0.233 N 
ATOM     15  H32 UNL     1      35.719  40.149  17.226  1.00  0.00     0.174 HD
ATOM     16  H31 UNL     1      34.401  38.948  17.148  1.00  0.00     0.174 HD
ENDBRANCH   6  14
TORSDOF 3
ENDMDL
MODEL 4
REMARK VINA RESULT: -4.817352339      0.847      2.608
REMARK  3 active torsions:
REMARK  status: ('A' for Active; 'I' for Inactive)
REMARK    1  A    between atoms: N1_1  and  C1_4 
REMARK    2  A    between atoms: C4_9  and  N3_10 
REMARK    3  A    between atoms: N4_13  and  N5_14 
ROOT
HETATM    1  C1  UNL     1      37.511  36.442  17.086  1.00  0.00     0.139 A 
HETATM    2  C2  UNL     1      37.584  36.252  18.453  1.00  0.00     0.068 A 
HETATM    3  C3  UNL     1      36.846  37.018  19.333  1.00  0.00     0.110 A 
HETATM    4  N2  UNL     1      36.047  37.963  18.817  1.00  0.00    -0.200 N 
ATOM      5  H2  UNL     1      35.487  38.549  19.437  1.00  0.00     0.183 HD
HETATM    6  C4  UNL     1      35.980  38.143  17.487  1.00  0.00     0.698 A 
HETATM    7  N4  UNL     1      36.693  37.403  16.635  1.00  0.00    -0.077 N 
ENDROOT
BRANCH   1   8
HETATM    8  N1  UNL     1      38.221  35.701  16.270  1.00  0.00    -0.383 N 
ATOM      9  H12 UNL     1      37.784  35.111  15.562  1.00  0.00     0.157 HD
ATOM     10  H11 UNL     1      39.240  35.696  16.326  1.00  0.00     0.157 HD
ENDBRANCH   1   8
BRANCH   7  11
HETATM   11  N5  UNL     1      36.589  37.629  15.249  1.00  0.00    -0.323 N 
ATOM     12  H52 UNL     1      36.992  38.473  14.840  1.00  0.00     0.178 HD
ATOM     13  H51 UNL     1      36.111  36.945  14.663  1.00  0.00     0.178 HD
ENDBRANCH   7  11
BRANCH   6  14
HETATM   14  N3  UNL     1      35.200  39.067  16.973  1.00  0.00    -0.233 N 
ATOM     15  H32 UNL     1      35.512  40.035  17.045  1.00  0.00     0.174 HD
ATOM     16  H31 UNL     1      34.320  38.814  16.522  1.00  0.00     0.174 HD
ENDBRANCH   6  14
TORSDOF 3
ENDMDL
MODEL 5
REMARK VINA RESULT: -4.789061900      1.578      2.510
REMARK  3 active torsions:
REMARK  status: ('A' for Active; 'I' for Inactive)
REMARK    1  A    between atoms: N1_1  and  C1_4 
REMARK    2  A    between atoms: C4_9  and  N3_10 
REMARK    3  A    between atoms: N4_13  and  N5_14 
ROOT
HETATM    1  C1  UNL     1      36.193  36.990  17.301  1.00  0.00     0.139 A 
HETATM    2  C2  UNL     1      37.014  35.889  17.442  1.00  0.00     0.068 A 
HETATM    3  C3  UNL     1      38.151  35.925  18.223  1.00  0.00     0.110 A 
HETATM    4  N2  UNL     1      38.439  37.075  18.850  1.00  0.00    -0.200 N 
ATOM      5  H2  UNL     1      39.272  37.138  19.436  1.00  0.00     0.183 HD
HETATM    6  C4  UNL     1      37.638  38.143  18.710  1.00  0.00     0.698 A 
HETATM    7  N4  UNL     1      36.537  38.109  17.954  1.00  0.00    -0.077 N 
ENDROOT
BRANCH   1   8
HETATM    8  N1  UNL     1      35.118  36.931  16.553  1.00  0.00    -0.383 N 
ATOM      9  H12 UNL     1      34.840  36.072  16.079  1.00  0.00     0.157 HD
ATOM     10  H11 UNL     1      34.527  37.753  16.425  1.00  0.00     0.157 HD
ENDBRANCH   1   8
BRANCH   7  11
HETATM   11  N5  UNL     1      35.728  39.255  17.838  1.00  0.00    -0.323 N 
ATOM     12  H52 UNL     1      35.171  39.568  18.633  1.00  0.00     0.178 HD
ATOM     13  H51 UNL     1      35.706  39.767  16.955  1.00  0.00     0.178 HD
ENDBRANCH   7  11
BRANCH   6  14
HETATM   14  N3  UNL     1      37.912  39.274  19.320  1.00  0.00    -0.233 N 
ATOM     15  H32 UNL     1      38.882  39.435  19.590  1.00  0.00     0.174 HD
ATOM     16  H31 UNL     1      37.177  39.955  19.512  1.00  0.00     0.174 HD
ENDBRANCH   6  14
TORSDOF 3
ENDMDL
