MODEL 1
REMARK VINA RESULT: -5.419115208      0.000      0.000
REMARK  3 active torsions:
REMARK  status: ('A' for Active; 'I' for Inactive)
REMARK    1  A    between atoms: C3_10  and  C4_11 
REMARK    2  A    between atoms: C4_11  and  O1_12 
REMARK    3  A    between atoms: O1_12  and  N4_13 
ROOT
HETATM    1  N1  UNL     1      35.375  38.951  17.316  1.00  0.00    -0.387 N 
ATOM      2  H11 UNL     1      34.738  38.529  16.640  1.00  0.00     0.157 HD
ATOM      3  H12 UNL     1      35.050  39.910  17.443  1.00  0.00     0.157 HD
HETATM    4  C1  UNL     1      36.368  38.307  17.848  1.00  0.00     0.100 A 
HETATM    5  N2  UNL     1      37.251  38.891  18.784  1.00  0.00    -0.289 N 
ATOM      6  H2  UNL     1      37.210  39.847  19.135  1.00  0.00     0.188 HD
HETATM    7  N3  UNL     1      38.187  37.921  19.139  1.00  0.00    -0.314 N 
ATOM      8  H3  UNL     1      38.942  38.083  19.805  1.00  0.00     0.185 HD
HETATM    9  C2  UNL     1      38.000  36.815  18.546  1.00  0.00     0.094 A 
HETATM   10  C3  UNL     1      36.834  36.932  17.667  1.00  0.00     0.120 A 
ENDROOT
BRANCH  10  11
HETATM   11  C4  UNL     1      37.136  36.577  16.236  1.00  0.00     0.218 C 
BRANCH  11  12
HETATM   12  O1  UNL     1      37.366  37.757  15.533  1.00  0.00    -0.286 OA
BRANCH  12  13
HETATM   13  N4  UNL     1      36.783  37.699  14.321  1.00  0.00    -0.311 N 
ATOM     14  H42 UNL     1      36.689  36.844  13.773  1.00  0.00     0.184 HD
ATOM     15  H41 UNL     1      36.458  38.623  14.040  1.00  0.00     0.184 HD
ENDBRANCH  12  13
ENDBRANCH  11  12
ENDBRANCH  10  11
TORSDOF 3
ENDMDL
MODEL 2
REMARK VINA RESULT: -5.040200443      1.201      1.265
REMARK  3 active torsions:
REMARK  status: ('A' for Active; 'I' for Inactive)
REMARK    1  A    between atoms: C3_10  and  C4_11 
REMARK    2  A    between atoms: C4_11  and  O1_12 
REMARK    3  A    between atoms: O1_12  and  N4_13 
ROOT
HETATM    1  N1  UNL     1      35.451  38.886  17.260  1.00  0.00    -0.387 N 
ATOM      2  H11 UNL     1      35.078  39.117  16.339  1.00  0.00     0.157 HD
ATOM      3  H12 UNL     1      35.214  39.675  17.862  1.00  0.00     0.157 HD
HETATM    4  C1  UNL     1      36.084  37.780  17.509  1.00  0.00     0.100 A 
HETATM    5  N2  UNL     1      36.600  37.460  18.785  1.00  0.00    -0.289 N 
ATOM      6  H2  UNL     1      36.536  38.037  19.623  1.00  0.00     0.188 HD
HETATM    7  N3  UNL     1      37.212  36.211  18.688  1.00  0.00    -0.314 N 
ATOM      8  H3  UNL     1      37.667  35.743  19.471  1.00  0.00     0.185 HD
HETATM    9  C2  UNL     1      37.143  35.718  17.520  1.00  0.00     0.094 A 
HETATM   10  C3  UNL     1      36.425  36.649  16.647  1.00  0.00     0.120 A 
ENDROOT
BRANCH  10  11
HETATM   11  C4  UNL     1      37.210  37.034  15.422  1.00  0.00     0.218 C 
BRANCH  11  12
HETATM   12  O1  UNL     1      36.575  38.116  14.819  1.00  0.00    -0.286 OA
BRANCH  12  13
HETATM   13  N4  UNL     1      36.974  38.237  13.539  1.00  0.00    -0.311 N 
ATOM     14  H42 UNL     1      37.910  38.005  13.208  1.00  0.00     0.184 HD
ATOM     15  H41 UNL     1      36.211  38.590  12.962  1.00  0.00     0.184 HD
ENDBRANCH  12  13
ENDBRANCH  11  12
ENDBRANCH  10  11
TORSDOF 3
ENDMDL
MODEL 3
REMARK VINA RESULT: -4.974116993      1.447      2.022
REMARK  3 active torsions:
REMARK  status: ('A' for Active; 'I' for Inactive)
REMARK    1  A    between atoms: C3_10  and  C4_11 
REMARK    2  A    between atoms: C4_11  and  O1_12 
REMARK    3  A    between atoms: O1_12  and  N4_13 
ROOT
HETATM    1  N1  UNL     1      38.377  38.827  18.928  1.00  0.00    -0.387 N 
ATOM      2  H11 UNL     1      37.874  39.706  18.811  1.00  0.00     0.157 HD
ATOM      3  H12 UNL     1      39.297  39.079  19.290  1.00  0.00     0.157 HD
HETATM    4  C1  UNL     1      37.858  37.672  18.643  1.00  0.00     0.100 A 
HETATM    5  N2  UNL     1      38.555  36.454  18.804  1.00  0.00    -0.289 N 
ATOM      6  H2  UNL     1      39.508  36.346  19.150  1.00  0.00     0.188 HD
HETATM    7  N3  UNL     1      37.701  35.426  18.405  1.00  0.00    -0.314 N 
ATOM      8  H3  UNL     1      37.959  34.440  18.423  1.00  0.00     0.185 HD
HETATM    9  C2  UNL     1      36.569  35.849  18.018  1.00  0.00     0.094 A 
HETATM   10  C3  UNL     1      36.538  37.309  18.124  1.00  0.00     0.120 A 
ENDROOT
BRANCH  10  11
HETATM   11  C4  UNL     1      36.189  37.988  16.827  1.00  0.00     0.218 C 
BRANCH  11  12
HETATM   12  O1  UNL     1      37.263  37.838  15.953  1.00  0.00    -0.286 OA
BRANCH  12  13
HETATM   13  N4  UNL     1      36.818  37.583  14.708  1.00  0.00    -0.311 N 
ATOM     14  H42 UNL     1      36.920  38.226  13.922  1.00  0.00     0.184 HD
ATOM     15  H41 UNL     1      36.372  36.667  14.672  1.00  0.00     0.184 HD
ENDBRANCH  12  13
ENDBRANCH  11  12
ENDBRANCH  10  11
TORSDOF 3
ENDMDL
MODEL 4
REMARK VINA RESULT: -4.927413733      2.189      2.780
REMARK  3 active torsions:
REMARK  status: ('A' for Active; 'I' for Inactive)
REMARK    1  A    between atoms: C3_10  and  C4_11 
REMARK    2  A    between atoms: C4_11  and  O1_12 
REMARK    3  A    between atoms: O1_12  and  N4_13 
ROOT
HETATM    1  N1  UNL     1      36.807  34.835  17.425  1.00  0.00    -0.387 N 
ATOM      2  H11 UNL     1      36.887  35.250  16.496  1.00  0.00     0.157 HD
ATOM      3  H12 UNL     1      36.319  33.949  17.292  1.00  0.00     0.157 HD
HETATM    4  C1  UNL     1      37.267  35.406  18.496  1.00  0.00     0.100 A 
HETATM    5  N2  UNL     1      37.155  34.832  19.782  1.00  0.00    -0.289 N 
ATOM      6  H2  UNL     1      36.718  33.939  20.007  1.00  0.00     0.188 HD
HETATM    7  N3  UNL     1      37.752  35.710  20.686  1.00  0.00    -0.314 N 
ATOM      8  H3  UNL     1      37.809  35.534  21.689  1.00  0.00     0.185 HD
HETATM    9  C2  UNL     1      38.217  36.751  20.128  1.00  0.00     0.094 A 
HETATM   10  C3  UNL     1      37.966  36.677  18.687  1.00  0.00     0.120 A 
ENDROOT
BRANCH  10  11
HETATM   11  C4  UNL     1      37.213  37.869  18.158  1.00  0.00     0.218 C 
BRANCH  11  12
HETATM   12  O1  UNL     1      37.333  37.878  16.771  1.00  0.00    -0.286 OA
BRANCH  12  13
HETATM   13  N4  UNL     1      36.127  38.063  16.200  1.00  0.00    -0.311 N 
ATOM     14  H42 UNL     1      35.950  38.718  15.439  1.00  0.00     0.184 HD
ATOM     15  H41 UNL     1      35.432  37.460  16.639  1.00  0.00     0.184 HD
ENDBRANCH  12  13
ENDBRANCH  11  12
ENDBRANCH  10  11
TORSDOF 3
ENDMDL
MODEL 5
REMARK VINA RESULT: -4.925747761      2.149      2.974
REMARK  3 active torsions:
REMARK  status: ('A' for Active; 'I' for Inactive)
REMARK    1  A    between atoms: C3_10  and  C4_11 
REMARK    2  A    between atoms: C4_11  and  O1_12 
REMARK    3  A    between atoms: O1_12  and  N4_13 
ROOT
HETATM    1  N1  UNL     1      37.405  36.651  15.741  1.00  0.00    -0.387 N 
ATOM      2  H11 UNL     1      37.676  37.612  15.529  1.00  0.00     0.157 HD
ATOM      3  H12 UNL     1      37.290  36.190  14.839  1.00  0.00     0.157 HD
HETATM    4  C1  UNL     1      37.264  36.208  16.953  1.00  0.00     0.100 A 
HETATM    5  N2  UNL     1      36.889  34.878  17.246  1.00  0.00    -0.289 N 
ATOM      6  H2  UNL     1      36.695  34.143  16.567  1.00  0.00     0.188 HD
HETATM    7  N3  UNL     1      36.834  34.755  18.634  1.00  0.00    -0.314 N 
ATOM      8  H3  UNL     1      36.586  33.890  19.114  1.00  0.00     0.185 HD
HETATM    9  C2  UNL     1      37.124  35.833  19.236  1.00  0.00     0.094 A 
HETATM   10  C3  UNL     1      37.428  36.870  18.248  1.00  0.00     0.120 A 
ENDROOT
BRANCH  10  11
HETATM   11  C4  UNL     1      36.585  38.106  18.409  1.00  0.00     0.218 C 
BRANCH  11  12
HETATM   12  O1  UNL     1      35.501  38.010  17.540  1.00  0.00    -0.286 OA
BRANCH  12  13
HETATM   13  N4  UNL     1      35.107  39.237  17.149  1.00  0.00    -0.311 N 
ATOM     14  H42 UNL     1      35.711  39.906  16.671  1.00  0.00     0.184 HD
ATOM     15  H41 UNL     1      34.131  39.391  17.400  1.00  0.00     0.184 HD
ENDBRANCH  12  13
ENDBRANCH  11  12
ENDBRANCH  10  11
TORSDOF 3
ENDMDL
