MODEL 1
REMARK VINA RESULT: -7.803556599      0.000      0.000
REMARK  14 active torsions:
REMARK  status: ('A' for Active; 'I' for Inactive)
REMARK    1  A    between atoms: C5_5  and  C6_6 
REMARK    2  A    between atoms: C6_6  and  C7_7 
REMARK    3  A    between atoms: C7_7  and  C8_8 
REMARK    4  A    between atoms: C8_8  and  O1_9 
REMARK    5  A    between atoms: C8_8  and  C9_11 
REMARK    6  A    between atoms: C9_11  and  O2_12 
REMARK    7  A    between atoms: C9_11  and  C10_14 
REMARK    8  A    between atoms: C11_15  and  C12_16 
REMARK    9  A    between atoms: N1_18  and  C14_19 
REMARK   10  A    between atoms: C14_19  and  C15_20 
REMARK       I    between atoms: C15_20  and  N2_22 
REMARK   11  A    between atoms: N2_22  and  C16_24 
REMARK   12  A    between atoms: C23_32  and  C24_33 
REMARK   13  A    between atoms: C24_33  and  O5_34 
REMARK   14  A    between atoms: C24_33  and  C25_36 
ROOT
HETATM    1  C12 UNL     1      36.739  26.274  21.496  1.00  0.00     0.033 C 
HETATM    2  C13 UNL     1      35.646  26.336  22.508  1.00  0.00     0.135 C 
HETATM    3  N1  UNL     1      35.456  27.621  23.124  1.00  0.00    -0.343 N 
HETATM    4  C21 UNL     1      36.609  28.347  23.499  1.00  0.00     0.220 C 
HETATM    5  O4  UNL     1      36.562  29.324  24.274  1.00  0.00    -0.273 OA
HETATM    6  C22 UNL     1      37.907  27.855  22.893  1.00  0.00     0.110 C 
HETATM    7  C23 UNL     1      37.601  27.540  21.456  1.00  0.00     0.033 C 
ENDROOT
BRANCH   1   8
HETATM    8  C11 UNL     1      37.561  25.076  21.739  1.00  0.00    -0.021 C 
HETATM    9  C10 UNL     1      37.225  24.094  22.576  1.00  0.00     0.003 C 
BRANCH   9  10
HETATM   10  C9  UNL     1      38.080  22.926  22.778  1.00  0.00     0.169 C 
BRANCH  10  11
HETATM   11  C8  UNL     1      38.206  22.097  21.509  1.00  0.00     0.151 C 
BRANCH  11  12
HETATM   12  C7  UNL     1      37.005  21.273  21.248  1.00  0.00     0.039 C 
BRANCH  12  13
HETATM   13  C6  UNL     1      36.480  21.398  19.869  1.00  0.00     0.041 C 
BRANCH  13  14
HETATM   14  C5  UNL     1      35.746  22.611  19.567  1.00  0.00    -0.058 A 
HETATM   15  C4  UNL     1      34.626  22.981  20.317  1.00  0.00     0.007 A 
HETATM   16  C3  UNL     1      33.923  24.143  20.102  1.00  0.00     0.007 A 
HETATM   17  C2  UNL     1      34.316  25.005  19.106  1.00  0.00    -0.062 A 
HETATM   18  C1  UNL     1      33.535  26.247  18.901  1.00  0.00     0.048 C 
HETATM   19  C32 UNL     1      35.411  24.680  18.346  1.00  0.00     0.007 A 
HETATM   20  C31 UNL     1      36.100  23.520  18.572  1.00  0.00     0.007 A 
ENDBRANCH  13  14
ENDBRANCH  12  13
ENDBRANCH  11  12
BRANCH  11  21
HETATM   21  O1  UNL     1      39.334  21.308  21.652  1.00  0.00    -0.393 OA
ATOM     22  H1  UNL     1      39.671  21.031  20.808  1.00  0.00     0.210 HD
ENDBRANCH  11  21
ENDBRANCH  10  11
BRANCH  10  23
HETATM   23  O2  UNL     1      37.622  22.048  23.755  1.00  0.00    -0.389 OA
ATOM     24  H2  UNL     1      37.538  22.567  24.547  1.00  0.00     0.210 HD
ENDBRANCH  10  23
ENDBRANCH   9  10
ENDBRANCH   1   8
BRANCH   7  25
HETATM   25  C24 UNL     1      38.765  27.307  20.573  1.00  0.00     0.127 C 
BRANCH  25  26
HETATM   26  O5  UNL     1      39.999  27.553  21.138  1.00  0.00    -0.395 OA
ATOM     27  H5  UNL     1      40.721  27.629  20.527  1.00  0.00     0.210 HD
ENDBRANCH  25  26
BRANCH  25  28
HETATM   28  C25 UNL     1      38.700  27.748  19.155  1.00  0.00     0.015 C 
HETATM   29  C26 UNL     1      37.857  29.008  19.129  1.00  0.00     0.007 C 
HETATM   30  C27 UNL     1      37.330  29.355  17.792  1.00  0.00     0.000 C 
HETATM   31  C28 UNL     1      36.855  28.230  16.942  1.00  0.00     0.000 C 
HETATM   32  C29 UNL     1      37.990  27.234  16.816  1.00  0.00     0.000 C 
HETATM   33  C30 UNL     1      38.221  26.699  18.239  1.00  0.00     0.007 C 
ENDBRANCH  25  28
ENDBRANCH   7  25
BRANCH   3  34
HETATM   34  C14 UNL     1      34.136  28.142  23.363  1.00  0.00     0.228 C 
BRANCH  34  35
HETATM   35  C15 UNL     1      33.453  28.566  22.140  1.00  0.00     0.235 C 
HETATM   36  O3  UNL     1      32.292  28.158  21.902  1.00  0.00    -0.272 OA
HETATM   37  N2  UNL     1      34.081  29.429  21.215  1.00  0.00    -0.355 N 
ATOM     38  H2  UNL     1      35.025  29.758  21.416  1.00  0.00     0.162 HD
BRANCH  37  39
HETATM   39  C16 UNL     1      33.444  29.864  20.003  1.00  0.00     0.084 C 
HETATM   40  C17 UNL     1      32.577  31.084  20.266  1.00  0.00     0.025 C 
HETATM   41  C18 UNL     1      32.245  31.515  18.852  1.00  0.00     0.002 C 
HETATM   42  C19 UNL     1      33.363  31.008  17.968  1.00  0.00     0.002 C 
HETATM   43  C20 UNL     1      34.357  30.344  18.932  1.00  0.00     0.025 C 
ENDBRANCH  37  39
ENDBRANCH  34  35
ENDBRANCH   3  34
TORSDOF 14
ENDMDL
MODEL 2
REMARK VINA RESULT: -7.786672788      1.135      1.388
REMARK  14 active torsions:
REMARK  status: ('A' for Active; 'I' for Inactive)
REMARK    1  A    between atoms: C5_5  and  C6_6 
REMARK    2  A    between atoms: C6_6  and  C7_7 
REMARK    3  A    between atoms: C7_7  and  C8_8 
REMARK    4  A    between atoms: C8_8  and  O1_9 
REMARK    5  A    between atoms: C8_8  and  C9_11 
REMARK    6  A    between atoms: C9_11  and  O2_12 
REMARK    7  A    between atoms: C9_11  and  C10_14 
REMARK    8  A    between atoms: C11_15  and  C12_16 
REMARK    9  A    between atoms: N1_18  and  C14_19 
REMARK   10  A    between atoms: C14_19  and  C15_20 
REMARK       I    between atoms: C15_20  and  N2_22 
REMARK   11  A    between atoms: N2_22  and  C16_24 
REMARK   12  A    between atoms: C23_32  and  C24_33 
REMARK   13  A    between atoms: C24_33  and  O5_34 
REMARK   14  A    between atoms: C24_33  and  C25_36 
ROOT
HETATM    1  C12 UNL     1      36.214  26.345  22.308  1.00  0.00     0.033 C 
HETATM    2  C13 UNL     1      34.799  26.377  22.775  1.00  0.00     0.135 C 
HETATM    3  N1  UNL     1      34.354  27.642  23.293  1.00  0.00    -0.343 N 
HETATM    4  C21 UNL     1      35.237  28.355  24.133  1.00  0.00     0.220 C 
HETATM    5  O4  UNL     1      34.861  29.307  24.846  1.00  0.00    -0.273 OA
HETATM    6  C22 UNL     1      36.676  27.881  24.109  1.00  0.00     0.110 C 
HETATM    7  C23 UNL     1      36.999  27.612  22.666  1.00  0.00     0.033 C 
ENDROOT
BRANCH   1   8
HETATM    8  C11 UNL     1      36.876  25.139  22.837  1.00  0.00    -0.021 C 
HETATM    9  C10 UNL     1      37.105  24.037  22.123  1.00  0.00     0.003 C 
BRANCH   9  10
HETATM   10  C9  UNL     1      37.767  22.868  22.699  1.00  0.00     0.169 C 
BRANCH  10  11
HETATM   11  C8  UNL     1      37.014  21.585  22.380  1.00  0.00     0.151 C 
BRANCH  11  12
HETATM   12  C7  UNL     1      36.988  21.288  20.931  1.00  0.00     0.039 C 
BRANCH  12  13
HETATM   13  C6  UNL     1      35.659  21.472  20.304  1.00  0.00     0.041 C 
BRANCH  13  14
HETATM   14  C5  UNL     1      35.397  22.774  19.723  1.00  0.00    -0.058 A 
HETATM   15  C4  UNL     1      34.238  23.487  20.044  1.00  0.00     0.007 A 
HETATM   16  C3  UNL     1      33.965  24.743  19.558  1.00  0.00     0.007 A 
HETATM   17  C2  UNL     1      34.856  25.357  18.711  1.00  0.00    -0.062 A 
HETATM   18  C1  UNL     1      34.529  26.710  18.204  1.00  0.00     0.048 C 
HETATM   19  C32 UNL     1      36.007  24.692  18.370  1.00  0.00     0.007 A 
HETATM   20  C31 UNL     1      36.265  23.442  18.862  1.00  0.00     0.007 A 
ENDBRANCH  13  14
ENDBRANCH  12  13
ENDBRANCH  11  12
BRANCH  11  21
HETATM   21  O1  UNL     1      35.734  21.730  22.886  1.00  0.00    -0.393 OA
ATOM     22  H1  UNL     1      35.614  21.212  23.673  1.00  0.00     0.210 HD
ENDBRANCH  11  21
ENDBRANCH  10  11
BRANCH  10  23
HETATM   23  O2  UNL     1      37.877  22.903  24.085  1.00  0.00    -0.389 OA
ATOM     24  H2  UNL     1      38.692  23.358  24.265  1.00  0.00     0.210 HD
ENDBRANCH  10  23
ENDBRANCH   9  10
ENDBRANCH   1   8
BRANCH   7  25
HETATM   25  C24 UNL     1      38.427  27.405  22.341  1.00  0.00     0.127 C 
BRANCH  25  26
HETATM   26  O5  UNL     1      39.322  27.807  23.311  1.00  0.00    -0.395 OA
ATOM     27  H5  UNL     1      40.090  28.266  22.994  1.00  0.00     0.210 HD
ENDBRANCH  25  26
BRANCH  25  28
HETATM   28  C25 UNL     1      38.911  27.714  20.970  1.00  0.00     0.015 C 
HETATM   29  C26 UNL     1      37.870  28.613  20.332  1.00  0.00     0.007 C 
HETATM   30  C27 UNL     1      37.953  28.682  18.858  1.00  0.00     0.000 C 
HETATM   31  C28 UNL     1      38.254  27.415  18.139  1.00  0.00     0.000 C 
HETATM   32  C29 UNL     1      39.541  26.854  18.711  1.00  0.00     0.000 C 
HETATM   33  C30 UNL     1      39.219  26.513  20.175  1.00  0.00     0.007 C 
ENDBRANCH  25  28
ENDBRANCH   7  25
BRANCH   3  34
HETATM   34  C14 UNL     1      33.048  28.156  22.976  1.00  0.00     0.228 C 
BRANCH  34  35
HETATM   35  C15 UNL     1      32.877  28.459  21.555  1.00  0.00     0.235 C 
HETATM   36  O3  UNL     1      32.224  27.676  20.825  1.00  0.00    -0.272 OA
HETATM   37  N2  UNL     1      33.437  29.624  20.984  1.00  0.00    -0.355 N 
ATOM     38  H2  UNL     1      33.965  30.257  21.584  1.00  0.00     0.162 HD
BRANCH  37  39
HETATM   39  C16 UNL     1      33.292  29.954  19.593  1.00  0.00     0.084 C 
HETATM   40  C17 UNL     1      32.426  31.191  19.428  1.00  0.00     0.025 C 
HETATM   41  C18 UNL     1      32.638  31.500  17.960  1.00  0.00     0.002 C 
HETATM   42  C19 UNL     1      33.984  30.921  17.582  1.00  0.00     0.002 C 
HETATM   43  C20 UNL     1      34.544  30.342  18.890  1.00  0.00     0.025 C 
ENDBRANCH  37  39
ENDBRANCH  34  35
ENDBRANCH   3  34
TORSDOF 14
ENDMDL
MODEL 3
REMARK VINA RESULT: -7.416995583      1.496      2.213
REMARK  14 active torsions:
REMARK  status: ('A' for Active; 'I' for Inactive)
REMARK    1  A    between atoms: C5_5  and  C6_6 
REMARK    2  A    between atoms: C6_6  and  C7_7 
REMARK    3  A    between atoms: C7_7  and  C8_8 
REMARK    4  A    between atoms: C8_8  and  O1_9 
REMARK    5  A    between atoms: C8_8  and  C9_11 
REMARK    6  A    between atoms: C9_11  and  O2_12 
REMARK    7  A    between atoms: C9_11  and  C10_14 
REMARK    8  A    between atoms: C11_15  and  C12_16 
REMARK    9  A    between atoms: N1_18  and  C14_19 
REMARK   10  A    between atoms: C14_19  and  C15_20 
REMARK       I    between atoms: C15_20  and  N2_22 
REMARK   11  A    between atoms: N2_22  and  C16_24 
REMARK   12  A    between atoms: C23_32  and  C24_33 
REMARK   13  A    between atoms: C24_33  and  O5_34 
REMARK   14  A    between atoms: C24_33  and  C25_36 
ROOT
HETATM    1  C12 UNL     1      36.244  26.345  22.317  1.00  0.00     0.033 C 
HETATM    2  C13 UNL     1      34.829  26.361  22.786  1.00  0.00     0.135 C 
HETATM    3  N1  UNL     1      34.370  27.622  23.300  1.00  0.00    -0.343 N 
HETATM    4  C21 UNL     1      35.246  28.349  24.136  1.00  0.00     0.220 C 
HETATM    5  O4  UNL     1      34.859  29.299  24.847  1.00  0.00    -0.273 OA
HETATM    6  C22 UNL     1      36.690  27.893  24.111  1.00  0.00     0.110 C 
HETATM    7  C23 UNL     1      37.013  27.622  22.669  1.00  0.00     0.033 C 
ENDROOT
BRANCH   1   8
HETATM    8  C11 UNL     1      36.921  25.149  22.849  1.00  0.00    -0.021 C 
HETATM    9  C10 UNL     1      37.115  24.028  22.154  1.00  0.00     0.003 C 
BRANCH   9  10
HETATM   10  C9  UNL     1      37.793  22.870  22.733  1.00  0.00     0.169 C 
BRANCH  10  11
HETATM   11  C8  UNL     1      36.987  21.594  22.541  1.00  0.00     0.151 C 
BRANCH  11  12
HETATM   12  C7  UNL     1      35.677  21.842  21.900  1.00  0.00     0.039 C 
BRANCH  12  13
HETATM   13  C6  UNL     1      35.364  20.908  20.794  1.00  0.00     0.041 C 
BRANCH  13  14
HETATM   14  C5  UNL     1      35.921  21.237  19.496  1.00  0.00    -0.058 A 
HETATM   15  C4  UNL     1      36.588  20.275  18.732  1.00  0.00     0.007 A 
HETATM   16  C3  UNL     1      37.093  20.523  17.478  1.00  0.00     0.007 A 
HETATM   17  C2  UNL     1      36.952  21.770  16.919  1.00  0.00    -0.062 A 
HETATM   18  C1  UNL     1      37.510  22.003  15.566  1.00  0.00     0.048 C 
HETATM   19  C32 UNL     1      36.303  22.745  17.635  1.00  0.00     0.007 A 
HETATM   20  C31 UNL     1      35.806  22.483  18.882  1.00  0.00     0.007 A 
ENDBRANCH  13  14
ENDBRANCH  12  13
ENDBRANCH  11  12
BRANCH  11  21
HETATM   21  O1  UNL     1      36.833  21.021  23.792  1.00  0.00    -0.393 OA
ATOM     22  H1  UNL     1      37.663  20.966  24.250  1.00  0.00     0.210 HD
ENDBRANCH  11  21
ENDBRANCH  10  11
BRANCH  10  23
HETATM   23  O2  UNL     1      38.019  22.968  24.102  1.00  0.00    -0.389 OA
ATOM     24  H2  UNL     1      37.900  23.886  24.316  1.00  0.00     0.210 HD
ENDBRANCH  10  23
ENDBRANCH   9  10
ENDBRANCH   1   8
BRANCH   7  25
HETATM   25  C24 UNL     1      38.444  27.432  22.342  1.00  0.00     0.127 C 
BRANCH  25  26
HETATM   26  O5  UNL     1      39.335  27.838  23.314  1.00  0.00    -0.395 OA
ATOM     27  H5  UNL     1      39.130  27.561  24.198  1.00  0.00     0.210 HD
ENDBRANCH  25  26
BRANCH  25  28
HETATM   28  C25 UNL     1      38.924  27.751  20.972  1.00  0.00     0.015 C 
HETATM   29  C26 UNL     1      37.852  28.603  20.322  1.00  0.00     0.007 C 
HETATM   30  C27 UNL     1      37.941  28.667  18.848  1.00  0.00     0.000 C 
HETATM   31  C28 UNL     1      38.297  27.408  18.140  1.00  0.00     0.000 C 
HETATM   32  C29 UNL     1      39.601  26.902  18.723  1.00  0.00     0.000 C 
HETATM   33  C30 UNL     1      39.284  26.558  20.187  1.00  0.00     0.007 C 
ENDBRANCH  25  28
ENDBRANCH   7  25
BRANCH   3  34
HETATM   34  C14 UNL     1      33.057  28.120  22.983  1.00  0.00     0.228 C 
BRANCH  34  35
HETATM   35  C15 UNL     1      32.884  28.427  21.563  1.00  0.00     0.235 C 
HETATM   36  O3  UNL     1      32.235  27.644  20.831  1.00  0.00    -0.272 OA
HETATM   37  N2  UNL     1      33.438  29.596  20.996  1.00  0.00    -0.355 N 
ATOM     38  H2  UNL     1      33.964  30.229  21.598  1.00  0.00     0.162 HD
BRANCH  37  39
HETATM   39  C16 UNL     1      33.292  29.930  19.606  1.00  0.00     0.084 C 
HETATM   40  C17 UNL     1      32.460  31.192  19.448  1.00  0.00     0.025 C 
HETATM   41  C18 UNL     1      32.669  31.495  17.979  1.00  0.00     0.002 C 
HETATM   42  C19 UNL     1      33.994  30.878  17.590  1.00  0.00     0.002 C 
HETATM   43  C20 UNL     1      34.548  30.283  18.893  1.00  0.00     0.025 C 
ENDBRANCH  37  39
ENDBRANCH  34  35
ENDBRANCH   3  34
TORSDOF 14
ENDMDL
MODEL 4
REMARK VINA RESULT: -7.310357503      1.920      2.809
REMARK  14 active torsions:
REMARK  status: ('A' for Active; 'I' for Inactive)
REMARK    1  A    between atoms: C5_5  and  C6_6 
REMARK    2  A    between atoms: C6_6  and  C7_7 
REMARK    3  A    between atoms: C7_7  and  C8_8 
REMARK    4  A    between atoms: C8_8  and  O1_9 
REMARK    5  A    between atoms: C8_8  and  C9_11 
REMARK    6  A    between atoms: C9_11  and  O2_12 
REMARK    7  A    between atoms: C9_11  and  C10_14 
REMARK    8  A    between atoms: C11_15  and  C12_16 
REMARK    9  A    between atoms: N1_18  and  C14_19 
REMARK   10  A    between atoms: C14_19  and  C15_20 
REMARK       I    between atoms: C15_20  and  N2_22 
REMARK   11  A    between atoms: N2_22  and  C16_24 
REMARK   12  A    between atoms: C23_32  and  C24_33 
REMARK   13  A    between atoms: C24_33  and  O5_34 
REMARK   14  A    between atoms: C24_33  and  C25_36 
ROOT
HETATM    1  C12 UNL     1      36.318  26.396  22.319  1.00  0.00     0.033 C 
HETATM    2  C13 UNL     1      34.903  26.399  22.786  1.00  0.00     0.135 C 
HETATM    3  N1  UNL     1      34.434  27.653  23.310  1.00  0.00    -0.343 N 
HETATM    4  C21 UNL     1      35.304  28.378  24.154  1.00  0.00     0.220 C 
HETATM    5  O4  UNL     1      34.910  29.319  24.872  1.00  0.00    -0.273 OA
HETATM    6  C22 UNL     1      36.751  27.931  24.128  1.00  0.00     0.110 C 
HETATM    7  C23 UNL     1      37.079  27.675  22.684  1.00  0.00     0.033 C 
ENDROOT
BRANCH   1   8
HETATM    8  C11 UNL     1      37.002  25.200  22.842  1.00  0.00    -0.021 C 
HETATM    9  C10 UNL     1      37.101  24.046  22.182  1.00  0.00     0.003 C 
BRANCH   9  10
HETATM   10  C9  UNL     1      37.792  22.890  22.749  1.00  0.00     0.169 C 
BRANCH  10  11
HETATM   11  C8  UNL     1      37.059  21.592  22.440  1.00  0.00     0.151 C 
BRANCH  11  12
HETATM   12  C7  UNL     1      35.866  21.803  21.592  1.00  0.00     0.039 C 
BRANCH  12  13
HETATM   13  C6  UNL     1      36.013  21.291  20.210  1.00  0.00     0.041 C 
BRANCH  13  14
HETATM   14  C5  UNL     1      35.102  20.236  19.814  1.00  0.00    -0.058 A 
HETATM   15  C4  UNL     1      34.980  19.066  20.569  1.00  0.00     0.007 A 
HETATM   16  C3  UNL     1      34.099  18.057  20.263  1.00  0.00     0.007 A 
HETATM   17  C2  UNL     1      33.280  18.174  19.165  1.00  0.00    -0.062 A 
HETATM   18  C1  UNL     1      32.343  17.067  18.864  1.00  0.00     0.048 C 
HETATM   19  C32 UNL     1      33.367  19.308  18.396  1.00  0.00     0.007 A 
HETATM   20  C31 UNL     1      34.249  20.303  18.713  1.00  0.00     0.007 A 
ENDBRANCH  13  14
ENDBRANCH  12  13
ENDBRANCH  11  12
BRANCH  11  21
HETATM   21  O1  UNL     1      36.718  21.022  23.654  1.00  0.00    -0.393 OA
ATOM     22  H1  UNL     1      36.413  21.677  24.270  1.00  0.00     0.210 HD
ENDBRANCH  11  21
ENDBRANCH  10  11
BRANCH  10  23
HETATM   23  O2  UNL     1      37.920  22.926  24.134  1.00  0.00    -0.389 OA
ATOM     24  H2  UNL     1      37.108  22.571  24.476  1.00  0.00     0.210 HD
ENDBRANCH  10  23
ENDBRANCH   9  10
ENDBRANCH   1   8
BRANCH   7  25
HETATM   25  C24 UNL     1      38.511  27.497  22.358  1.00  0.00     0.127 C 
BRANCH  25  26
HETATM   26  O5  UNL     1      39.399  27.947  23.313  1.00  0.00    -0.395 OA
ATOM     27  H5  UNL     1      39.296  28.856  23.570  1.00  0.00     0.210 HD
ENDBRANCH  25  26
BRANCH  25  28
HETATM   28  C25 UNL     1      38.982  27.780  20.977  1.00  0.00     0.015 C 
HETATM   29  C26 UNL     1      37.900  28.605  20.309  1.00  0.00     0.007 C 
HETATM   30  C27 UNL     1      37.982  28.627  18.833  1.00  0.00     0.000 C 
HETATM   31  C28 UNL     1      38.344  27.351  18.159  1.00  0.00     0.000 C 
HETATM   32  C29 UNL     1      39.655  26.872  18.750  1.00  0.00     0.000 C 
HETATM   33  C30 UNL     1      39.348  26.568  20.225  1.00  0.00     0.007 C 
ENDBRANCH  25  28
ENDBRANCH   7  25
BRANCH   3  34
HETATM   34  C14 UNL     1      33.119  28.145  22.995  1.00  0.00     0.228 C 
BRANCH  34  35
HETATM   35  C15 UNL     1      32.942  28.450  21.575  1.00  0.00     0.235 C 
HETATM   36  O3  UNL     1      32.203  27.724  20.870  1.00  0.00    -0.272 OA
HETATM   37  N2  UNL     1      33.592  29.553  20.979  1.00  0.00    -0.355 N 
ATOM     38  H2  UNL     1      34.191  30.140  21.560  1.00  0.00     0.162 HD
BRANCH  37  39
HETATM   39  C16 UNL     1      33.445  29.883  19.588  1.00  0.00     0.084 C 
HETATM   40  C17 UNL     1      32.557  31.105  19.423  1.00  0.00     0.025 C 
HETATM   41  C18 UNL     1      32.768  31.420  17.957  1.00  0.00     0.002 C 
HETATM   42  C19 UNL     1      34.124  30.866  17.581  1.00  0.00     0.002 C 
HETATM   43  C20 UNL     1      34.691  30.295  18.889  1.00  0.00     0.025 C 
ENDBRANCH  37  39
ENDBRANCH  34  35
ENDBRANCH   3  34
TORSDOF 14
ENDMDL
MODEL 5
REMARK VINA RESULT: -7.139255890      1.532      2.124
REMARK  14 active torsions:
REMARK  status: ('A' for Active; 'I' for Inactive)
REMARK    1  A    between atoms: C5_5  and  C6_6 
REMARK    2  A    between atoms: C6_6  and  C7_7 
REMARK    3  A    between atoms: C7_7  and  C8_8 
REMARK    4  A    between atoms: C8_8  and  O1_9 
REMARK    5  A    between atoms: C8_8  and  C9_11 
REMARK    6  A    between atoms: C9_11  and  O2_12 
REMARK    7  A    between atoms: C9_11  and  C10_14 
REMARK    8  A    between atoms: C11_15  and  C12_16 
REMARK    9  A    between atoms: N1_18  and  C14_19 
REMARK   10  A    between atoms: C14_19  and  C15_20 
REMARK       I    between atoms: C15_20  and  N2_22 
REMARK   11  A    between atoms: N2_22  and  C16_24 
REMARK   12  A    between atoms: C23_32  and  C24_33 
REMARK   13  A    between atoms: C24_33  and  O5_34 
REMARK   14  A    between atoms: C24_33  and  C25_36 
ROOT
HETATM    1  C12 UNL     1      36.960  26.033  20.855  1.00  0.00     0.033 C 
HETATM    2  C13 UNL     1      36.679  25.819  22.303  1.00  0.00     0.135 C 
HETATM    3  N1  UNL     1      36.875  26.971  23.141  1.00  0.00    -0.343 N 
HETATM    4  C21 UNL     1      38.015  27.769  22.903  1.00  0.00     0.220 C 
HETATM    5  O4  UNL     1      38.425  28.614  23.726  1.00  0.00    -0.273 OA
HETATM    6  C22 UNL     1      38.708  27.529  21.577  1.00  0.00     0.110 C 
HETATM    7  C23 UNL     1      37.613  27.387  20.558  1.00  0.00     0.033 C 
ENDROOT
BRANCH   1   8
HETATM    8  C11 UNL     1      37.781  24.920  20.347  1.00  0.00    -0.021 C 
HETATM    9  C10 UNL     1      38.464  24.079  21.123  1.00  0.00     0.003 C 
BRANCH   9  10
HETATM   10  C9  UNL     1      39.264  22.991  20.565  1.00  0.00     0.169 C 
BRANCH  10  11
HETATM   11  C8  UNL     1      38.913  21.654  21.201  1.00  0.00     0.151 C 
BRANCH  11  12
HETATM   12  C7  UNL     1      37.766  21.751  22.130  1.00  0.00     0.039 C 
BRANCH  12  13
HETATM   13  C6  UNL     1      36.523  21.131  21.617  1.00  0.00     0.041 C 
BRANCH  13  14
HETATM   14  C5  UNL     1      35.544  22.033  21.044  1.00  0.00    -0.058 A 
HETATM   15  C4  UNL     1      34.772  22.871  21.855  1.00  0.00     0.007 A 
HETATM   16  C3  UNL     1      33.864  23.775  21.358  1.00  0.00     0.007 A 
HETATM   17  C2  UNL     1      33.682  23.887  20.001  1.00  0.00    -0.062 A 
HETATM   18  C1  UNL     1      32.695  24.872  19.501  1.00  0.00     0.048 C 
HETATM   19  C32 UNL     1      34.420  23.083  19.168  1.00  0.00     0.007 A 
HETATM   20  C31 UNL     1      35.320  22.187  19.677  1.00  0.00     0.007 A 
ENDBRANCH  13  14
ENDBRANCH  12  13
ENDBRANCH  11  12
BRANCH  11  21
HETATM   21  O1  UNL     1      40.050  21.205  21.851  1.00  0.00    -0.393 OA
ATOM     22  H1  UNL     1      40.003  20.272  22.023  1.00  0.00     0.210 HD
ENDBRANCH  11  21
ENDBRANCH  10  11
BRANCH  10  23
HETATM   23  O2  UNL     1      40.635  23.143  20.743  1.00  0.00    -0.389 OA
ATOM     24  H2  UNL     1      40.770  23.158  21.684  1.00  0.00     0.210 HD
ENDBRANCH  10  23
ENDBRANCH   9  10
ENDBRANCH   1   8
BRANCH   7  25
HETATM   25  C24 UNL     1      38.028  27.424  19.138  1.00  0.00     0.127 C 
BRANCH  25  26
HETATM   26  O5  UNL     1      39.373  27.636  18.918  1.00  0.00    -0.395 OA
ATOM     27  H5  UNL     1      39.938  26.891  19.083  1.00  0.00     0.210 HD
ENDBRANCH  25  26
BRANCH  25  28
HETATM   28  C25 UNL     1      37.178  28.140  18.152  1.00  0.00     0.015 C 
HETATM   29  C26 UNL     1      36.789  29.459  18.788  1.00  0.00     0.007 C 
HETATM   30  C27 UNL     1      35.624  30.115  18.157  1.00  0.00     0.000 C 
HETATM   31  C28 UNL     1      34.502  29.234  17.734  1.00  0.00     0.000 C 
HETATM   32  C29 UNL     1      35.070  28.172  16.814  1.00  0.00     0.000 C 
HETATM   33  C30 UNL     1      36.027  27.346  17.689  1.00  0.00     0.007 C 
ENDBRANCH  25  28
ENDBRANCH   7  25
BRANCH   3  34
HETATM   34  C14 UNL     1      35.948  27.290  24.194  1.00  0.00     0.228 C 
BRANCH  34  35
HETATM   35  C15 UNL     1      34.842  28.139  23.751  1.00  0.00     0.235 C 
HETATM   36  O3  UNL     1      34.385  29.017  24.519  1.00  0.00    -0.272 OA
HETATM   37  N2  UNL     1      34.273  27.987  22.467  1.00  0.00    -0.355 N 
ATOM     38  H2  UNL     1      34.651  27.270  21.847  1.00  0.00     0.162 HD
BRANCH  37  39
HETATM   39  C16 UNL     1      33.185  28.799  21.997  1.00  0.00     0.084 C 
HETATM   40  C17 UNL     1      33.700  29.906  21.093  1.00  0.00     0.025 C 
HETATM   41  C18 UNL     1      32.404  30.437  20.518  1.00  0.00     0.002 C 
HETATM   42  C19 UNL     1      31.405  29.303  20.571  1.00  0.00     0.002 C 
HETATM   43  C20 UNL     1      32.195  28.109  21.128  1.00  0.00     0.025 C 
ENDBRANCH  37  39
ENDBRANCH  34  35
ENDBRANCH   3  34
TORSDOF 14
ENDMDL
