MODEL 1
REMARK VINA RESULT: -6.864994241      0.000      0.000
REMARK  13 active torsions:
REMARK  status: ('A' for Active; 'I' for Inactive)
REMARK    1  A    between atoms: C2_2  and  N1_3 
REMARK       I    between atoms: N1_3  and  C3_5 
REMARK    2  A    between atoms: C3_5  and  C4_7 
REMARK    3  A    between atoms: C5_8  and  O2_9 
REMARK    4  A    between atoms: O2_9  and  C6_10 
REMARK       I    between atoms: C6_10  and  N2_12 
REMARK    5  A    between atoms: N2_12  and  C7_14 
REMARK    6  A    between atoms: C7_14  and  C8_15 
REMARK    7  A    between atoms: C8_15  and  C9_16 
REMARK    8  A    between atoms: C9_16  and  N3_17 
REMARK    9  A    between atoms: C11_19  and  N4_21 
REMARK   10  A    between atoms: C14_26  and  C15_27 
REMARK   11  A    between atoms: C15_27  and  C16_28 
REMARK   12  A    between atoms: C16_28  and  N5_29 
REMARK       I    between atoms: N5_29  and  C17_31 
REMARK   13  A    between atoms: C17_31  and  C18_33 
ROOT
HETATM    1  N3  UNL     1      35.832  21.816  19.725  1.00  0.00     0.099 N 
HETATM    2  C10 UNL     1      36.403  20.971  20.649  1.00  0.00     0.311 C 
HETATM    3  C11 UNL     1      35.904  21.384  22.040  1.00  0.00     0.148 C 
HETATM    4  C12 UNL     1      37.059  21.845  22.918  1.00  0.00     0.048 C 
HETATM    5  C13 UNL     1      35.005  22.564  21.813  1.00  0.00     0.075 C 
HETATM    6  C14 UNL     1      35.270  22.982  20.388  1.00  0.00     0.227 C 
ENDROOT
BRANCH   1   7
HETATM    7  C9  UNL     1      36.590  22.240  18.603  1.00  0.00     0.301 C 
BRANCH   7   8
HETATM    8  C8  UNL     1      38.021  21.907  18.595  1.00  0.00     0.020 C 
BRANCH   8   9
HETATM    9  C7  UNL     1      38.997  22.490  19.537  1.00  0.00     0.091 C 
BRANCH   9  10
HETATM   10  N2  UNL     1      38.892  23.826  19.949  1.00  0.00    -0.313 N 
HETATM   11  C6  UNL     1      39.681  24.960  19.964  1.00  0.00     0.364 C 
HETATM   12  O3  UNL     1      40.848  25.072  19.546  1.00  0.00    -0.238 OA
ATOM     13  H2  UNL     1      37.974  24.013  20.353  1.00  0.00     0.170 HD
BRANCH  11  14
HETATM   14  O2  UNL     1      39.169  26.197  20.507  1.00  0.00    -0.297 OA
BRANCH  14  15
HETATM   15  C5  UNL     1      38.221  26.190  21.539  1.00  0.00     0.147 C 
HETATM   16  C4  UNL     1      36.801  26.240  21.036  1.00  0.00     0.112 C 
HETATM   17  C26 UNL     1      35.982  26.791  22.124  1.00  0.00     0.014 A 
HETATM   18  C25 UNL     1      36.990  27.373  23.155  1.00  0.00     0.002 A 
HETATM   19  C27 UNL     1      35.850  28.155  22.593  1.00  0.00    -0.039 A 
HETATM   20  C24 UNL     1      38.327  27.354  22.477  1.00  0.00     0.039 C 
HETATM   21  C28 UNL     1      34.741  28.363  23.656  1.00  0.00     0.015 C 
HETATM   22  C29 UNL     1      36.065  29.396  21.796  1.00  0.00     0.015 C 
BRANCH  16  23
HETATM   23  C3  UNL     1      36.645  26.786  19.692  1.00  0.00     0.224 C 
HETATM   24  N1  UNL     1      37.293  27.934  19.176  1.00  0.00    -0.361 N 
ATOM     25  H1  UNL     1      37.940  28.444  19.777  1.00  0.00     0.162 HD
HETATM   26  O1  UNL     1      35.838  26.161  18.909  1.00  0.00    -0.273 OA
BRANCH  24  27
HETATM   27  C2  UNL     1      37.074  28.411  17.833  1.00  0.00     0.118 C 
HETATM   28  C1  UNL     1      36.567  29.857  17.854  1.00  0.00     0.026 C 
ENDBRANCH  24  27
ENDBRANCH  16  23
ENDBRANCH  14  15
ENDBRANCH  11  14
ENDBRANCH   9  10
ENDBRANCH   8   9
ENDBRANCH   7   8
ENDBRANCH   1   7
BRANCH   6  29
HETATM   29  C15 UNL     1      33.914  23.266  19.739  1.00  0.00     0.055 C 
BRANCH  29  30
HETATM   30  C16 UNL     1      33.044  24.081  20.639  1.00  0.00     0.125 C 
BRANCH  30  31
HETATM   31  N5  UNL     1      33.396  25.472  20.732  1.00  0.00    -0.361 N 
HETATM   32  C17 UNL     1      32.625  26.493  20.132  1.00  0.00     0.221 C 
HETATM   33  O4  UNL     1      31.593  26.193  19.498  1.00  0.00    -0.273 OA
ATOM     34  H5  UNL     1      34.236  25.732  21.251  1.00  0.00     0.162 HD
BRANCH  32  35
HETATM   35  C18 UNL     1      32.999  27.930  20.227  1.00  0.00     0.078 C 
HETATM   36  C19 UNL     1      31.805  28.669  20.833  1.00  0.00     0.014 C 
HETATM   37  C20 UNL     1      32.100  30.123  21.051  1.00  0.00     0.001 C 
HETATM   38  C21 UNL     1      33.113  30.651  20.046  1.00  0.00     0.000 C 
HETATM   39  C22 UNL     1      32.903  29.944  18.739  1.00  0.00     0.001 C 
HETATM   40  C23 UNL     1      33.207  28.471  18.841  1.00  0.00     0.014 C 
ENDBRANCH  32  35
ENDBRANCH  30  31
ENDBRANCH  29  30
ENDBRANCH   6  29
BRANCH   3  41
HETATM   41  N4  UNL     1      35.275  20.286  22.702  1.00  0.00    -0.069 N 
ATOM     42  H43 UNL     1      35.925  19.515  22.853  1.00  0.00     0.275 HD
ATOM     43  H42 UNL     1      35.065  20.504  23.677  1.00  0.00     0.275 HD
ATOM     44  H41 UNL     1      34.442  19.984  22.197  1.00  0.00     0.275 HD
ENDBRANCH   3  41
TORSDOF 13
ENDMDL
MODEL 2
REMARK VINA RESULT: -6.660448295      2.239      4.814
REMARK  13 active torsions:
REMARK  status: ('A' for Active; 'I' for Inactive)
REMARK    1  A    between atoms: C2_2  and  N1_3 
REMARK       I    between atoms: N1_3  and  C3_5 
REMARK    2  A    between atoms: C3_5  and  C4_7 
REMARK    3  A    between atoms: C5_8  and  O2_9 
REMARK    4  A    between atoms: O2_9  and  C6_10 
REMARK       I    between atoms: C6_10  and  N2_12 
REMARK    5  A    between atoms: N2_12  and  C7_14 
REMARK    6  A    between atoms: C7_14  and  C8_15 
REMARK    7  A    between atoms: C8_15  and  C9_16 
REMARK    8  A    between atoms: C9_16  and  N3_17 
REMARK    9  A    between atoms: C11_19  and  N4_21 
REMARK   10  A    between atoms: C14_26  and  C15_27 
REMARK   11  A    between atoms: C15_27  and  C16_28 
REMARK   12  A    between atoms: C16_28  and  N5_29 
REMARK       I    between atoms: N5_29  and  C17_31 
REMARK   13  A    between atoms: C17_31  and  C18_33 
ROOT
HETATM    1  N3  UNL     1      38.437  24.561  20.055  1.00  0.00     0.099 N 
HETATM    2  C10 UNL     1      37.357  24.787  19.232  1.00  0.00     0.311 C 
HETATM    3  C11 UNL     1      36.636  23.449  19.021  1.00  0.00     0.148 C 
HETATM    4  C12 UNL     1      36.665  23.040  17.555  1.00  0.00     0.048 C 
HETATM    5  C13 UNL     1      37.429  22.436  19.793  1.00  0.00     0.075 C 
HETATM    6  C14 UNL     1      38.719  23.137  20.137  1.00  0.00     0.227 C 
ENDROOT
BRANCH   1   7
HETATM    7  C9  UNL     1      39.649  25.262  19.824  1.00  0.00     0.301 C 
BRANCH   7   8
HETATM    8  C8  UNL     1      39.549  26.594  19.212  1.00  0.00     0.020 C 
BRANCH   8   9
HETATM    9  C7  UNL     1      38.921  27.751  19.879  1.00  0.00     0.091 C 
BRANCH   9  10
HETATM   10  N2  UNL     1      37.699  28.269  19.424  1.00  0.00    -0.313 N 
HETATM   11  C6  UNL     1      37.239  29.408  18.792  1.00  0.00     0.364 C 
HETATM   12  O3  UNL     1      37.912  30.388  18.422  1.00  0.00    -0.238 OA
ATOM     13  H2  UNL     1      36.934  27.621  19.614  1.00  0.00     0.170 HD
BRANCH  11  14
HETATM   14  O2  UNL     1      35.834  29.557  18.489  1.00  0.00    -0.297 OA
BRANCH  14  15
HETATM   15  C5  UNL     1      34.910  29.854  19.500  1.00  0.00     0.147 C 
HETATM   16  C4  UNL     1      34.155  28.642  19.983  1.00  0.00     0.112 C 
HETATM   17  C26 UNL     1      32.896  29.127  20.565  1.00  0.00     0.014 A 
HETATM   18  C25 UNL     1      32.773  30.612  20.120  1.00  0.00     0.002 A 
HETATM   19  C27 UNL     1      31.693  29.603  19.917  1.00  0.00    -0.039 A 
HETATM   20  C24 UNL     1      33.842  30.821  19.089  1.00  0.00     0.039 C 
HETATM   21  C28 UNL     1      30.504  29.859  20.879  1.00  0.00     0.015 C 
HETATM   22  C29 UNL     1      31.206  29.234  18.557  1.00  0.00     0.015 C 
BRANCH  16  23
HETATM   23  C3  UNL     1      34.111  27.530  19.039  1.00  0.00     0.224 C 
HETATM   24  N1  UNL     1      33.998  27.632  17.632  1.00  0.00    -0.361 N 
ATOM     25  H1  UNL     1      33.946  28.559  17.211  1.00  0.00     0.162 HD
HETATM   26  O1  UNL     1      34.180  26.347  19.543  1.00  0.00    -0.273 OA
BRANCH  24  27
HETATM   27  C2  UNL     1      33.953  26.476  16.771  1.00  0.00     0.118 C 
HETATM   28  C1  UNL     1      32.503  26.121  16.427  1.00  0.00     0.026 C 
ENDBRANCH  24  27
ENDBRANCH  16  23
ENDBRANCH  14  15
ENDBRANCH  11  14
ENDBRANCH   9  10
ENDBRANCH   8   9
ENDBRANCH   7   8
ENDBRANCH   1   7
BRANCH   6  29
HETATM   29  C15 UNL     1      39.033  22.818  21.600  1.00  0.00     0.055 C 
BRANCH  29  30
HETATM   30  C16 UNL     1      37.798  22.853  22.438  1.00  0.00     0.125 C 
BRANCH  30  31
HETATM   31  N5  UNL     1      37.489  24.133  23.015  1.00  0.00    -0.361 N 
HETATM   32  C17 UNL     1      36.203  24.716  22.927  1.00  0.00     0.221 C 
HETATM   33  O4  UNL     1      35.291  24.105  22.334  1.00  0.00    -0.273 OA
ATOM     34  H5  UNL     1      38.225  24.641  23.506  1.00  0.00     0.162 HD
BRANCH  32  35
HETATM   35  C18 UNL     1      35.892  26.044  23.520  1.00  0.00     0.078 C 
HETATM   36  C19 UNL     1      34.515  26.459  23.002  1.00  0.00     0.014 C 
HETATM   37  C20 UNL     1      34.059  27.755  23.602  1.00  0.00     0.001 C 
HETATM   38  C21 UNL     1      35.232  28.655  23.958  1.00  0.00     0.000 C 
HETATM   39  C22 UNL     1      36.322  28.445  22.948  1.00  0.00     0.001 C 
HETATM   40  C23 UNL     1      36.886  27.048  23.011  1.00  0.00     0.014 C 
ENDBRANCH  32  35
ENDBRANCH  30  31
ENDBRANCH  29  30
ENDBRANCH   6  29
BRANCH   3  41
HETATM   41  N4  UNL     1      35.265  23.542  19.411  1.00  0.00    -0.069 N 
ATOM     42  H43 UNL     1      35.135  24.205  20.176  1.00  0.00     0.275 HD
ATOM     43  H42 UNL     1      34.702  24.012  18.702  1.00  0.00     0.275 HD
ATOM     44  H41 UNL     1      34.888  22.623  19.642  1.00  0.00     0.275 HD
ENDBRANCH   3  41
TORSDOF 13
ENDMDL
MODEL 3
REMARK VINA RESULT: -6.509179767      1.975      2.528
REMARK  13 active torsions:
REMARK  status: ('A' for Active; 'I' for Inactive)
REMARK    1  A    between atoms: C2_2  and  N1_3 
REMARK       I    between atoms: N1_3  and  C3_5 
REMARK    2  A    between atoms: C3_5  and  C4_7 
REMARK    3  A    between atoms: C5_8  and  O2_9 
REMARK    4  A    between atoms: O2_9  and  C6_10 
REMARK       I    between atoms: C6_10  and  N2_12 
REMARK    5  A    between atoms: N2_12  and  C7_14 
REMARK    6  A    between atoms: C7_14  and  C8_15 
REMARK    7  A    between atoms: C8_15  and  C9_16 
REMARK    8  A    between atoms: C9_16  and  N3_17 
REMARK    9  A    between atoms: C11_19  and  N4_21 
REMARK   10  A    between atoms: C14_26  and  C15_27 
REMARK   11  A    between atoms: C15_27  and  C16_28 
REMARK   12  A    between atoms: C16_28  and  N5_29 
REMARK       I    between atoms: N5_29  and  C17_31 
REMARK   13  A    between atoms: C17_31  and  C18_33 
ROOT
HETATM    1  N3  UNL     1      36.721  21.912  18.606  1.00  0.00     0.099 N 
HETATM    2  C10 UNL     1      36.561  20.611  19.024  1.00  0.00     0.311 C 
HETATM    3  C11 UNL     1      35.120  20.450  19.528  1.00  0.00     0.148 C 
HETATM    4  C12 UNL     1      35.098  20.096  21.009  1.00  0.00     0.048 C 
HETATM    5  C13 UNL     1      34.485  21.800  19.374  1.00  0.00     0.075 C 
HETATM    6  C14 UNL     1      35.634  22.739  19.106  1.00  0.00     0.227 C 
ENDROOT
BRANCH   1   7
HETATM    7  C9  UNL     1      37.954  22.574  18.842  1.00  0.00     0.301 C 
BRANCH   7   8
HETATM    8  C8  UNL     1      38.937  21.884  19.687  1.00  0.00     0.020 C 
BRANCH   8   9
HETATM    9  C7  UNL     1      39.033  22.078  21.147  1.00  0.00     0.091 C 
BRANCH   9  10
HETATM   10  N2  UNL     1      38.519  23.231  21.757  1.00  0.00    -0.313 N 
HETATM   11  C6  UNL     1      37.961  23.589  22.969  1.00  0.00     0.364 C 
HETATM   12  O3  UNL     1      37.757  22.853  23.951  1.00  0.00    -0.238 OA
ATOM     13  H2  UNL     1      38.572  24.032  21.127  1.00  0.00     0.170 HD
BRANCH  11  14
HETATM   14  O2  UNL     1      37.540  24.951  23.204  1.00  0.00    -0.297 OA
BRANCH  14  15
HETATM   15  C5  UNL     1      36.186  25.306  23.132  1.00  0.00     0.147 C 
HETATM   16  C4  UNL     1      35.775  25.795  21.767  1.00  0.00     0.112 C 
HETATM   17  C26 UNL     1      34.586  26.637  21.955  1.00  0.00     0.014 A 
HETATM   18  C25 UNL     1      34.499  26.905  23.484  1.00  0.00     0.002 A 
HETATM   19  C27 UNL     1      34.472  27.989  22.459  1.00  0.00    -0.039 A 
HETATM   20  C24 UNL     1      35.794  26.415  24.060  1.00  0.00     0.039 C 
HETATM   21  C28 UNL     1      33.054  28.603  22.335  1.00  0.00     0.015 C 
HETATM   22  C29 UNL     1      35.518  29.051  22.409  1.00  0.00     0.015 C 
BRANCH  16  23
HETATM   23  C3  UNL     1      36.869  26.295  20.940  1.00  0.00     0.224 C 
HETATM   24  N1  UNL     1      37.973  27.059  21.388  1.00  0.00    -0.361 N 
ATOM     25  H1  UNL     1      38.039  27.291  22.378  1.00  0.00     0.162 HD
HETATM   26  O1  UNL     1      36.814  26.014  19.686  1.00  0.00    -0.273 OA
BRANCH  24  27
HETATM   27  C2  UNL     1      39.009  27.522  20.497  1.00  0.00     0.118 C 
HETATM   28  C1  UNL     1      38.597  28.842  19.837  1.00  0.00     0.026 C 
ENDBRANCH  24  27
ENDBRANCH  16  23
ENDBRANCH  14  15
ENDBRANCH  11  14
ENDBRANCH   9  10
ENDBRANCH   8   9
ENDBRANCH   7   8
ENDBRANCH   1   7
BRANCH   6  29
HETATM   29  C15 UNL     1      35.207  23.668  17.967  1.00  0.00     0.055 C 
BRANCH  29  30
HETATM   30  C16 UNL     1      33.837  24.217  18.202  1.00  0.00     0.125 C 
BRANCH  30  31
HETATM   31  N5  UNL     1      33.799  25.512  18.827  1.00  0.00    -0.361 N 
HETATM   32  C17 UNL     1      33.640  26.706  18.088  1.00  0.00     0.221 C 
HETATM   33  O4  UNL     1      33.523  26.652  16.847  1.00  0.00    -0.273 OA
ATOM     34  H5  UNL     1      33.890  25.570  19.841  1.00  0.00     0.162 HD
BRANCH  32  35
HETATM   35  C18 UNL     1      33.608  28.044  18.740  1.00  0.00     0.078 C 
HETATM   36  C19 UNL     1      32.740  28.951  17.867  1.00  0.00     0.014 C 
HETATM   37  C20 UNL     1      32.569  30.312  18.473  1.00  0.00     0.001 C 
HETATM   38  C21 UNL     1      33.765  30.704  19.327  1.00  0.00     0.000 C 
HETATM   39  C22 UNL     1      35.004  30.124  18.710  1.00  0.00     0.001 C 
HETATM   40  C23 UNL     1      34.996  28.616  18.743  1.00  0.00     0.014 C 
ENDBRANCH  32  35
ENDBRANCH  30  31
ENDBRANCH  29  30
ENDBRANCH   6  29
BRANCH   3  41
HETATM   41  N4  UNL     1      34.449  19.401  18.828  1.00  0.00    -0.069 N 
ATOM     42  H43 UNL     1      34.822  18.485  19.076  1.00  0.00     0.275 HD
ATOM     43  H42 UNL     1      33.494  19.276  19.163  1.00  0.00     0.275 HD
ATOM     44  H41 UNL     1      34.477  19.560  17.821  1.00  0.00     0.275 HD
ENDBRANCH   3  41
TORSDOF 13
ENDMDL
MODEL 4
REMARK VINA RESULT: -6.463223869      1.930      3.625
REMARK  13 active torsions:
REMARK  status: ('A' for Active; 'I' for Inactive)
REMARK    1  A    between atoms: C2_2  and  N1_3 
REMARK       I    between atoms: N1_3  and  C3_5 
REMARK    2  A    between atoms: C3_5  and  C4_7 
REMARK    3  A    between atoms: C5_8  and  O2_9 
REMARK    4  A    between atoms: O2_9  and  C6_10 
REMARK       I    between atoms: C6_10  and  N2_12 
REMARK    5  A    between atoms: N2_12  and  C7_14 
REMARK    6  A    between atoms: C7_14  and  C8_15 
REMARK    7  A    between atoms: C8_15  and  C9_16 
REMARK    8  A    between atoms: C9_16  and  N3_17 
REMARK    9  A    between atoms: C11_19  and  N4_21 
REMARK   10  A    between atoms: C14_26  and  C15_27 
REMARK   11  A    between atoms: C15_27  and  C16_28 
REMARK   12  A    between atoms: C16_28  and  N5_29 
REMARK       I    between atoms: N5_29  and  C17_31 
REMARK   13  A    between atoms: C17_31  and  C18_33 
ROOT
HETATM    1  N3  UNL     1      37.008  21.508  20.476  1.00  0.00     0.099 N 
HETATM    2  C10 UNL     1      36.824  21.164  19.156  1.00  0.00     0.311 C 
HETATM    3  C11 UNL     1      35.684  20.138  19.090  1.00  0.00     0.148 C 
HETATM    4  C12 UNL     1      36.182  18.805  18.549  1.00  0.00     0.048 C 
HETATM    5  C13 UNL     1      35.254  19.920  20.511  1.00  0.00     0.075 C 
HETATM    6  C14 UNL     1      36.340  20.552  21.345  1.00  0.00     0.227 C 
ENDROOT
BRANCH   1   7
HETATM    7  C9  UNL     1      38.322  21.737  20.961  1.00  0.00     0.301 C 
BRANCH   7   8
HETATM    8  C8  UNL     1      38.731  23.133  21.163  1.00  0.00     0.020 C 
BRANCH   8   9
HETATM    9  C7  UNL     1      39.396  23.944  20.125  1.00  0.00     0.091 C 
BRANCH   9  10
HETATM   10  N2  UNL     1      38.864  25.178  19.723  1.00  0.00    -0.313 N 
HETATM   11  C6  UNL     1      38.810  26.475  20.196  1.00  0.00     0.364 C 
HETATM   12  O3  UNL     1      39.301  26.913  21.253  1.00  0.00    -0.238 OA
ATOM     13  H2  UNL     1      38.380  25.094  18.830  1.00  0.00     0.170 HD
BRANCH  11  14
HETATM   14  O2  UNL     1      38.127  27.499  19.440  1.00  0.00    -0.297 OA
BRANCH  14  15
HETATM   15  C5  UNL     1      36.965  28.104  19.938  1.00  0.00     0.147 C 
HETATM   16  C4  UNL     1      35.731  27.750  19.149  1.00  0.00     0.112 C 
HETATM   17  C26 UNL     1      34.756  28.826  19.375  1.00  0.00     0.014 A 
HETATM   18  C25 UNL     1      35.555  29.982  20.042  1.00  0.00     0.002 A 
HETATM   19  C27 UNL     1      34.705  30.167  18.830  1.00  0.00    -0.039 A 
HETATM   20  C24 UNL     1      37.001  29.602  19.926  1.00  0.00     0.039 C 
HETATM   21  C28 UNL     1      33.411  30.949  19.171  1.00  0.00     0.015 C 
HETATM   22  C29 UNL     1      35.277  30.624  17.531  1.00  0.00     0.015 C 
BRANCH  16  23
HETATM   23  C3  UNL     1      35.984  27.305  17.782  1.00  0.00     0.224 C 
HETATM   24  N1  UNL     1      36.976  27.809  16.909  1.00  0.00    -0.361 N 
ATOM     25  H1  UNL     1      37.591  28.551  17.242  1.00  0.00     0.162 HD
HETATM   26  O1  UNL     1      35.225  26.366  17.336  1.00  0.00    -0.273 OA
BRANCH  24  27
HETATM   27  C2  UNL     1      37.152  27.316  15.566  1.00  0.00     0.118 C 
HETATM   28  C1  UNL     1      36.479  28.253  14.558  1.00  0.00     0.026 C 
ENDBRANCH  24  27
ENDBRANCH  16  23
ENDBRANCH  14  15
ENDBRANCH  11  14
ENDBRANCH   9  10
ENDBRANCH   8   9
ENDBRANCH   7   8
ENDBRANCH   1   7
BRANCH   6  29
HETATM   29  C15 UNL     1      35.654  21.348  22.457  1.00  0.00     0.055 C 
BRANCH  29  30
HETATM   30  C16 UNL     1      34.723  22.371  21.894  1.00  0.00     0.125 C 
BRANCH  30  31
HETATM   31  N5  UNL     1      34.917  23.709  22.386  1.00  0.00    -0.361 N 
HETATM   32  C17 UNL     1      35.419  24.751  21.574  1.00  0.00     0.221 C 
HETATM   33  O4  UNL     1      35.705  24.519  20.381  1.00  0.00    -0.273 OA
ATOM     34  H5  UNL     1      34.684  23.912  23.358  1.00  0.00     0.162 HD
BRANCH  32  35
HETATM   35  C18 UNL     1      35.624  26.131  22.091  1.00  0.00     0.078 C 
HETATM   36  C19 UNL     1      36.396  26.011  23.406  1.00  0.00     0.014 C 
HETATM   37  C20 UNL     1      36.732  27.354  23.982  1.00  0.00     0.001 C 
HETATM   38  C21 UNL     1      35.703  28.406  23.595  1.00  0.00     0.000 C 
HETATM   39  C22 UNL     1      34.355  27.753  23.519  1.00  0.00     0.001 C 
HETATM   40  C23 UNL     1      34.285  26.734  22.409  1.00  0.00     0.014 C 
ENDBRANCH  32  35
ENDBRANCH  30  31
ENDBRANCH  29  30
ENDBRANCH   6  29
BRANCH   3  41
HETATM   41  N4  UNL     1      34.642  20.589  18.224  1.00  0.00    -0.069 N 
ATOM     42  H43 UNL     1      33.772  20.082  18.385  1.00  0.00     0.275 HD
ATOM     43  H42 UNL     1      34.324  21.526  18.473  1.00  0.00     0.275 HD
ATOM     44  H41 UNL     1      34.932  20.538  17.248  1.00  0.00     0.275 HD
ENDBRANCH   3  41
TORSDOF 13
ENDMDL
MODEL 5
REMARK VINA RESULT: -6.412858522      2.169      5.673
REMARK  13 active torsions:
REMARK  status: ('A' for Active; 'I' for Inactive)
REMARK    1  A    between atoms: C2_2  and  N1_3 
REMARK       I    between atoms: N1_3  and  C3_5 
REMARK    2  A    between atoms: C3_5  and  C4_7 
REMARK    3  A    between atoms: C5_8  and  O2_9 
REMARK    4  A    between atoms: O2_9  and  C6_10 
REMARK       I    between atoms: C6_10  and  N2_12 
REMARK    5  A    between atoms: N2_12  and  C7_14 
REMARK    6  A    between atoms: C7_14  and  C8_15 
REMARK    7  A    between atoms: C8_15  and  C9_16 
REMARK    8  A    between atoms: C9_16  and  N3_17 
REMARK    9  A    between atoms: C11_19  and  N4_21 
REMARK   10  A    between atoms: C14_26  and  C15_27 
REMARK   11  A    between atoms: C15_27  and  C16_28 
REMARK   12  A    between atoms: C16_28  and  N5_29 
REMARK       I    between atoms: N5_29  and  C17_31 
REMARK   13  A    between atoms: C17_31  and  C18_33 
ROOT
HETATM    1  N3  UNL     1      38.205  28.272  20.964  1.00  0.00     0.099 N 
HETATM    2  C10 UNL     1      39.128  27.267  21.152  1.00  0.00     0.311 C 
HETATM    3  C11 UNL     1      39.516  26.719  19.772  1.00  0.00     0.148 C 
HETATM    4  C12 UNL     1      39.122  25.254  19.638  1.00  0.00     0.048 C 
HETATM    5  C13 UNL     1      38.704  27.501  18.782  1.00  0.00     0.075 C 
HETATM    6  C14 UNL     1      37.669  28.218  19.613  1.00  0.00     0.227 C 
ENDROOT
BRANCH   1   7
HETATM    7  C9  UNL     1      37.135  28.416  21.884  1.00  0.00     0.301 C 
BRANCH   7   8
HETATM    8  C8  UNL     1      37.453  28.290  23.312  1.00  0.00     0.020 C 
BRANCH   8   9
HETATM    9  C7  UNL     1      36.780  27.335  24.215  1.00  0.00     0.091 C 
BRANCH   9  10
HETATM   10  N2  UNL     1      36.284  26.115  23.733  1.00  0.00    -0.313 N 
HETATM   11  C6  UNL     1      36.777  24.970  23.136  1.00  0.00     0.364 C 
HETATM   12  O3  UNL     1      37.962  24.723  22.846  1.00  0.00    -0.238 OA
ATOM     13  H2  UNL     1      35.274  26.055  23.858  1.00  0.00     0.170 HD
BRANCH  11  14
HETATM   14  O2  UNL     1      35.885  23.893  22.776  1.00  0.00    -0.297 OA
BRANCH  14  15
HETATM   15  C5  UNL     1      34.842  24.099  21.863  1.00  0.00     0.147 C 
HETATM   16  C4  UNL     1      34.629  22.930  20.936  1.00  0.00     0.112 C 
HETATM   17  C26 UNL     1      33.969  23.454  19.733  1.00  0.00     0.014 A 
HETATM   18  C25 UNL     1      34.094  25.001  19.825  1.00  0.00     0.002 A 
HETATM   19  C27 UNL     1      34.513  24.215  18.628  1.00  0.00    -0.039 A 
HETATM   20  C24 UNL     1      35.050  25.268  20.950  1.00  0.00     0.039 C 
HETATM   21  C28 UNL     1      33.528  24.429  17.450  1.00  0.00     0.015 C 
HETATM   22  C29 UNL     1      35.924  24.205  18.147  1.00  0.00     0.015 C 
BRANCH  16  23
HETATM   23  C3  UNL     1      35.786  22.054  20.779  1.00  0.00     0.224 C 
HETATM   24  N1  UNL     1      37.141  22.458  20.735  1.00  0.00    -0.361 N 
ATOM     25  H1  UNL     1      37.360  23.450  20.825  1.00  0.00     0.162 HD
HETATM   26  O1  UNL     1      35.540  20.795  20.668  1.00  0.00    -0.273 OA
BRANCH  24  27
HETATM   27  C2  UNL     1      38.225  21.523  20.568  1.00  0.00     0.118 C 
HETATM   28  C1  UNL     1      39.456  21.983  21.357  1.00  0.00     0.026 C 
ENDBRANCH  24  27
ENDBRANCH  16  23
ENDBRANCH  14  15
ENDBRANCH  11  14
ENDBRANCH   9  10
ENDBRANCH   8   9
ENDBRANCH   7   8
ENDBRANCH   1   7
BRANCH   6  29
HETATM   29  C15 UNL     1      37.588  29.656  19.097  1.00  0.00     0.055 C 
BRANCH  29  30
HETATM   30  C16 UNL     1      36.478  29.815  18.111  1.00  0.00     0.125 C 
BRANCH  30  31
HETATM   31  N5  UNL     1      35.162  29.900  18.684  1.00  0.00    -0.361 N 
HETATM   32  C17 UNL     1      34.207  28.866  18.551  1.00  0.00     0.221 C 
HETATM   33  O4  UNL     1      34.504  27.831  17.920  1.00  0.00    -0.273 OA
ATOM     34  H5  UNL     1      34.907  30.739  19.205  1.00  0.00     0.162 HD
BRANCH  32  35
HETATM   35  C18 UNL     1      32.844  28.964  19.141  1.00  0.00     0.078 C 
HETATM   36  C19 UNL     1      32.477  30.448  19.186  1.00  0.00     0.014 C 
HETATM   37  C20 UNL     1      31.082  30.663  19.692  1.00  0.00     0.001 C 
HETATM   38  C21 UNL     1      30.655  29.566  20.655  1.00  0.00     0.000 C 
HETATM   39  C22 UNL     1      31.856  29.122  21.438  1.00  0.00     0.001 C 
HETATM   40  C23 UNL     1      32.892  28.469  20.558  1.00  0.00     0.014 C 
ENDBRANCH  32  35
ENDBRANCH  30  31
ENDBRANCH  29  30
ENDBRANCH   6  29
BRANCH   3  41
HETATM   41  N4  UNL     1      40.928  26.802  19.569  1.00  0.00    -0.069 N 
ATOM     42  H43 UNL     1      41.414  27.085  20.420  1.00  0.00     0.275 HD
ATOM     43  H42 UNL     1      41.346  25.880  19.450  1.00  0.00     0.275 HD
ATOM     44  H41 UNL     1      41.148  27.419  18.787  1.00  0.00     0.275 HD
ENDBRANCH   3  41
TORSDOF 13
ENDMDL
