MODEL 1
REMARK VINA RESULT: -6.327045969      0.000      0.000
REMARK  13 active torsions:
REMARK  status: ('A' for Active; 'I' for Inactive)
REMARK    1  A    between atoms: C2_2  and  C3_3 
REMARK    2  A    between atoms: C2_2  and  C16_22 
REMARK    3  A    between atoms: C3_3  and  N1_4 
REMARK    4  A    between atoms: N1_4  and  C4_6 
REMARK    5  A    between atoms: C4_6  and  C5_7 
REMARK    6  A    between atoms: C4_6  and  C9_12 
REMARK    7  A    between atoms: C5_7  and  N2_8 
REMARK       I    between atoms: C9_12  and  N3_14 
REMARK    8  A    between atoms: N3_14  and  C10_16 
REMARK    9  A    between atoms: C16_22  and  C17_23 
REMARK   10  A    between atoms: C16_22  and  N4_30 
REMARK   11  A    between atoms: C17_23  and  C18_24 
REMARK       I    between atoms: N4_30  and  C24_32 
REMARK   12  A    between atoms: C24_32  and  O3_34 
REMARK   13  A    between atoms: O3_34  and  C25_35 
ROOT
HETATM    1  C1  UNL     1      33.210  25.988  17.473  1.00  0.00     0.018 C 
HETATM    2  C2  UNL     1      34.148  26.765  18.048  1.00  0.00    -0.049 C 
ENDROOT
BRANCH   2   3
HETATM    3  C3  UNL     1      34.970  27.564  16.999  1.00  0.00     0.150 C 
BRANCH   3   4
HETATM    4  N1  UNL     1      36.236  27.744  17.591  1.00  0.00    -0.404 N 
ATOM      5  H1  UNL     1      36.693  26.927  17.997  1.00  0.00     0.154 HD
BRANCH   4   6
HETATM    6  C4  UNL     1      36.900  28.961  17.658  1.00  0.00     0.196 C 
BRANCH   6   7
HETATM    7  C5  UNL     1      36.253  30.098  16.965  1.00  0.00     0.270 C 
BRANCH   7   8
HETATM    8  N2  UNL     1      36.576  30.633  15.740  1.00  0.00    -0.076 N 
HETATM    9  C6  UNL     1      37.456  31.807  15.710  1.00  0.00     0.271 C 
HETATM   10  C7  UNL     1      36.904  29.875  14.593  1.00  0.00     0.271 C 
HETATM   11  C8  UNL     1      35.263  31.303  15.307  1.00  0.00     0.271 C 
ENDBRANCH   7   8
ENDBRANCH   6   7
BRANCH   6  12
HETATM   12  C9  UNL     1      37.403  29.230  19.039  1.00  0.00     0.242 C 
HETATM   13  O1  UNL     1      38.136  30.256  19.235  1.00  0.00    -0.271 OA
HETATM   14  N3  UNL     1      37.104  28.428  20.175  1.00  0.00    -0.355 N 
ATOM     15  H3  UNL     1      36.516  27.604  20.047  1.00  0.00     0.162 HD
BRANCH  14  16
HETATM   16  C10 UNL     1      37.589  28.723  21.498  1.00  0.00     0.084 C 
HETATM   17  C11 UNL     1      36.405  28.994  22.420  1.00  0.00     0.025 C 
HETATM   18  C12 UNL     1      35.943  27.760  23.110  1.00  0.00     0.002 C 
HETATM   19  C13 UNL     1      36.944  27.177  24.084  1.00  0.00     0.000 C 
HETATM   20  C14 UNL     1      38.296  27.734  23.671  1.00  0.00     0.002 C 
HETATM   21  C15 UNL     1      38.408  27.657  22.145  1.00  0.00     0.025 C 
ENDBRANCH  14  16
ENDBRANCH   6  12
ENDBRANCH   4   6
ENDBRANCH   3   4
ENDBRANCH   2   3
BRANCH   2  22
HETATM   22  C16 UNL     1      34.366  26.722  19.458  1.00  0.00     0.117 C 
BRANCH  22  23
HETATM   23  C17 UNL     1      33.483  27.285  20.448  1.00  0.00     0.034 C 
BRANCH  23  24
HETATM   24  C18 UNL     1      33.125  28.671  20.632  1.00  0.00    -0.012 C 
HETATM   25  C19 UNL     1      31.594  28.737  20.227  1.00  0.00     0.005 C 
HETATM   26  C20 UNL     1      31.512  29.354  18.869  1.00  0.00     0.000 C 
HETATM   27  C21 UNL     1      31.773  30.869  18.984  1.00  0.00     0.000 C 
HETATM   28  C22 UNL     1      32.892  31.057  19.992  1.00  0.00     0.000 C 
HETATM   29  C23 UNL     1      33.816  29.791  19.963  1.00  0.00     0.005 C 
ENDBRANCH  23  24
ENDBRANCH  22  23
BRANCH  22  30
HETATM   30  N4  UNL     1      34.714  25.310  19.814  1.00  0.00    -0.328 N 
HETATM   31  C24 UNL     1      36.053  24.853  19.785  1.00  0.00     0.361 C 
HETATM   32  O2  UNL     1      36.993  25.673  19.457  1.00  0.00    -0.238 OA
ATOM     33  H4  UNL     1      33.972  24.664  20.082  1.00  0.00     0.165 HD
BRANCH  31  34
HETATM   34  O3  UNL     1      36.464  23.576  20.087  1.00  0.00    -0.298 OA
BRANCH  34  35
HETATM   35  C25 UNL     1      36.253  23.038  21.380  1.00  0.00     0.142 C 
HETATM   36  C26 UNL     1      36.823  23.974  22.419  1.00  0.00     0.065 C 
HETATM   37  C27 UNL     1      37.776  23.148  23.268  1.00  0.00     0.124 C 
HETATM   38  C28 UNL     1      37.144  21.755  23.078  1.00  0.00     0.041 C 
HETATM   39  O4  UNL     1      38.950  22.954  22.544  1.00  0.00    -0.385 OA
HETATM   40  C29 UNL     1      37.170  21.824  21.573  1.00  0.00     0.042 C 
HETATM   41  C30 UNL     1      38.548  22.346  21.341  1.00  0.00     0.175 C 
ENDBRANCH  34  35
ENDBRANCH  31  34
ENDBRANCH  22  30
ENDBRANCH   2  22
TORSDOF 13
ENDMDL
MODEL 2
REMARK VINA RESULT: -6.289731507      1.996      4.596
REMARK  13 active torsions:
REMARK  status: ('A' for Active; 'I' for Inactive)
REMARK    1  A    between atoms: C2_2  and  C3_3 
REMARK    2  A    between atoms: C2_2  and  C16_22 
REMARK    3  A    between atoms: C3_3  and  N1_4 
REMARK    4  A    between atoms: N1_4  and  C4_6 
REMARK    5  A    between atoms: C4_6  and  C5_7 
REMARK    6  A    between atoms: C4_6  and  C9_12 
REMARK    7  A    between atoms: C5_7  and  N2_8 
REMARK       I    between atoms: C9_12  and  N3_14 
REMARK    8  A    between atoms: N3_14  and  C10_16 
REMARK    9  A    between atoms: C16_22  and  C17_23 
REMARK   10  A    between atoms: C16_22  and  N4_30 
REMARK   11  A    between atoms: C17_23  and  C18_24 
REMARK       I    between atoms: N4_30  and  C24_32 
REMARK   12  A    between atoms: C24_32  and  O3_34 
REMARK   13  A    between atoms: O3_34  and  C25_35 
ROOT
HETATM    1  C1  UNL     1      39.407  28.065  21.457  1.00  0.00     0.018 C 
HETATM    2  C2  UNL     1      38.803  26.922  21.076  1.00  0.00    -0.049 C 
ENDROOT
BRANCH   2   3
HETATM    3  C3  UNL     1      39.171  26.524  19.619  1.00  0.00     0.150 C 
BRANCH   3   4
HETATM    4  N1  UNL     1      38.729  27.603  18.828  1.00  0.00    -0.404 N 
ATOM      5  H1  UNL     1      39.290  28.456  18.827  1.00  0.00     0.154 HD
BRANCH   4   6
HETATM    6  C4  UNL     1      37.579  27.581  18.050  1.00  0.00     0.196 C 
BRANCH   6   7
HETATM    7  C5  UNL     1      36.773  26.340  18.111  1.00  0.00     0.270 C 
BRANCH   7   8
HETATM    8  N2  UNL     1      36.300  25.590  17.059  1.00  0.00    -0.076 N 
HETATM    9  C6  UNL     1      36.463  26.125  15.703  1.00  0.00     0.271 C 
HETATM   10  C7  UNL     1      36.441  24.190  16.942  1.00  0.00     0.271 C 
HETATM   11  C8  UNL     1      34.776  25.741  17.197  1.00  0.00     0.271 C 
ENDBRANCH   7   8
ENDBRANCH   6   7
BRANCH   6  12
HETATM   12  C9  UNL     1      36.824  28.865  18.159  1.00  0.00     0.242 C 
HETATM   13  O1  UNL     1      37.480  29.953  18.269  1.00  0.00    -0.271 OA
HETATM   14  N3  UNL     1      35.405  28.969  18.128  1.00  0.00    -0.355 N 
ATOM     15  H3  UNL     1      34.857  28.114  18.037  1.00  0.00     0.162 HD
BRANCH  14  16
HETATM   16  C10 UNL     1      34.706  30.224  18.218  1.00  0.00     0.084 C 
HETATM   17  C11 UNL     1      33.544  30.225  17.232  1.00  0.00     0.025 C 
HETATM   18  C12 UNL     1      32.284  29.736  17.855  1.00  0.00     0.002 C 
HETATM   19  C13 UNL     1      31.740  30.631  18.948  1.00  0.00     0.000 C 
HETATM   20  C14 UNL     1      32.916  31.471  19.418  1.00  0.00     0.002 C 
HETATM   21  C15 UNL     1      34.140  30.560  19.557  1.00  0.00     0.025 C 
ENDBRANCH  14  16
ENDBRANCH   6  12
ENDBRANCH   4   6
ENDBRANCH   3   4
ENDBRANCH   2   3
BRANCH   2  22
HETATM   22  C16 UNL     1      37.869  26.269  21.935  1.00  0.00     0.117 C 
BRANCH  22  23
HETATM   23  C17 UNL     1      36.593  26.811  22.332  1.00  0.00     0.034 C 
BRANCH  23  24
HETATM   24  C18 UNL     1      35.514  27.250  21.481  1.00  0.00    -0.012 C 
HETATM   25  C19 UNL     1      35.012  28.597  22.148  1.00  0.00     0.005 C 
HETATM   26  C20 UNL     1      33.737  28.299  22.866  1.00  0.00     0.000 C 
HETATM   27  C21 UNL     1      32.603  28.131  21.836  1.00  0.00     0.000 C 
HETATM   28  C22 UNL     1      33.174  27.361  20.660  1.00  0.00     0.000 C 
HETATM   29  C23 UNL     1      34.325  26.429  21.176  1.00  0.00     0.005 C 
ENDBRANCH  23  24
ENDBRANCH  22  23
BRANCH  22  30
HETATM   30  N4  UNL     1      37.706  24.867  21.436  1.00  0.00    -0.328 N 
HETATM   31  C24 UNL     1      37.533  23.784  22.330  1.00  0.00     0.361 C 
HETATM   32  O2  UNL     1      37.504  24.011  23.599  1.00  0.00    -0.238 OA
ATOM     33  H4  UNL     1      37.720  24.689  20.432  1.00  0.00     0.165 HD
BRANCH  31  34
HETATM   34  O3  UNL     1      37.384  22.467  21.963  1.00  0.00    -0.298 OA
BRANCH  34  35
HETATM   35  C25 UNL     1      36.135  21.984  21.503  1.00  0.00     0.142 C 
HETATM   36  C26 UNL     1      36.078  20.485  21.667  1.00  0.00     0.065 C 
HETATM   37  C27 UNL     1      35.728  19.914  20.302  1.00  0.00     0.124 C 
HETATM   38  C28 UNL     1      34.971  21.119  19.710  1.00  0.00     0.041 C 
HETATM   39  O4  UNL     1      36.868  19.961  19.503  1.00  0.00    -0.385 OA
HETATM   40  C29 UNL     1      36.087  22.095  19.974  1.00  0.00     0.042 C 
HETATM   41  C30 UNL     1      37.264  21.310  19.498  1.00  0.00     0.175 C 
ENDBRANCH  34  35
ENDBRANCH  31  34
ENDBRANCH  22  30
ENDBRANCH   2  22
TORSDOF 13
ENDMDL
MODEL 3
REMARK VINA RESULT: -6.112835971      1.797      3.991
REMARK  13 active torsions:
REMARK  status: ('A' for Active; 'I' for Inactive)
REMARK    1  A    between atoms: C2_2  and  C3_3 
REMARK    2  A    between atoms: C2_2  and  C16_22 
REMARK    3  A    between atoms: C3_3  and  N1_4 
REMARK    4  A    between atoms: N1_4  and  C4_6 
REMARK    5  A    between atoms: C4_6  and  C5_7 
REMARK    6  A    between atoms: C4_6  and  C9_12 
REMARK    7  A    between atoms: C5_7  and  N2_8 
REMARK       I    between atoms: C9_12  and  N3_14 
REMARK    8  A    between atoms: N3_14  and  C10_16 
REMARK    9  A    between atoms: C16_22  and  C17_23 
REMARK   10  A    between atoms: C16_22  and  N4_30 
REMARK   11  A    between atoms: C17_23  and  C18_24 
REMARK       I    between atoms: N4_30  and  C24_32 
REMARK   12  A    between atoms: C24_32  and  O3_34 
REMARK   13  A    between atoms: O3_34  and  C25_35 
ROOT
HETATM    1  C1  UNL     1      39.292  27.941  21.672  1.00  0.00     0.018 C 
HETATM    2  C2  UNL     1      38.102  28.351  21.190  1.00  0.00    -0.049 C 
ENDROOT
BRANCH   2   3
HETATM    3  C3  UNL     1      38.241  29.047  19.807  1.00  0.00     0.150 C 
BRANCH   3   4
HETATM    4  N1  UNL     1      38.087  28.011  18.864  1.00  0.00    -0.404 N 
ATOM      5  H1  UNL     1      38.899  27.428  18.659  1.00  0.00     0.154 HD
BRANCH   4   6
HETATM    6  C4  UNL     1      36.901  27.733  18.197  1.00  0.00     0.196 C 
BRANCH   6   7
HETATM    7  C5  UNL     1      36.910  27.945  16.732  1.00  0.00     0.270 C 
BRANCH   7   8
HETATM    8  N2  UNL     1      36.422  29.026  16.034  1.00  0.00    -0.076 N 
HETATM    9  C6  UNL     1      36.370  30.322  16.719  1.00  0.00     0.271 C 
HETATM   10  C7  UNL     1      36.723  29.313  14.684  1.00  0.00     0.271 C 
HETATM   11  C8  UNL     1      34.916  28.729  15.963  1.00  0.00     0.271 C 
ENDBRANCH   7   8
ENDBRANCH   6   7
BRANCH   6  12
HETATM   12  C9  UNL     1      36.297  26.453  18.675  1.00  0.00     0.242 C 
HETATM   13  O1  UNL     1      37.068  25.542  19.125  1.00  0.00    -0.271 OA
HETATM   14  N3  UNL     1      34.901  26.177  18.687  1.00  0.00    -0.355 N 
ATOM     15  H3  UNL     1      34.262  26.891  18.337  1.00  0.00     0.162 HD
BRANCH  14  16
HETATM   16  C10 UNL     1      34.347  24.939  19.171  1.00  0.00     0.084 C 
HETATM   17  C11 UNL     1      33.435  25.227  20.358  1.00  0.00     0.025 C 
HETATM   18  C12 UNL     1      32.023  25.433  19.938  1.00  0.00     0.002 C 
HETATM   19  C13 UNL     1      31.360  24.205  19.350  1.00  0.00     0.000 C 
HETATM   20  C14 UNL     1      32.493  23.300  18.899  1.00  0.00     0.002 C 
HETATM   21  C15 UNL     1      33.545  24.156  18.187  1.00  0.00     0.025 C 
ENDBRANCH  14  16
ENDBRANCH   6  12
ENDBRANCH   4   6
ENDBRANCH   3   4
ENDBRANCH   2   3
BRANCH   2  22
HETATM   22  C16 UNL     1      36.914  28.215  21.968  1.00  0.00     0.117 C 
BRANCH  22  23
HETATM   23  C17 UNL     1      35.746  29.050  21.846  1.00  0.00     0.034 C 
BRANCH  23  24
HETATM   24  C18 UNL     1      34.453  28.694  21.314  1.00  0.00    -0.012 C 
HETATM   25  C19 UNL     1      34.316  29.567  19.999  1.00  0.00     0.005 C 
HETATM   26  C20 UNL     1      33.388  30.697  20.301  1.00  0.00     0.000 C 
HETATM   27  C21 UNL     1      31.943  30.164  20.360  1.00  0.00     0.000 C 
HETATM   28  C22 UNL     1      31.986  28.823  21.068  1.00  0.00     0.000 C 
HETATM   29  C23 UNL     1      33.192  28.820  22.071  1.00  0.00     0.005 C 
ENDBRANCH  23  24
ENDBRANCH  22  23
BRANCH  22  30
HETATM   30  N4  UNL     1      36.525  26.770  21.942  1.00  0.00    -0.328 N 
HETATM   31  C24 UNL     1      36.377  26.026  23.136  1.00  0.00     0.361 C 
HETATM   32  O2  UNL     1      36.571  26.608  24.271  1.00  0.00    -0.238 OA
ATOM     33  H4  UNL     1      36.364  26.312  21.045  1.00  0.00     0.165 HD
BRANCH  31  34
HETATM   34  O3  UNL     1      36.032  24.697  23.208  1.00  0.00    -0.298 OA
BRANCH  34  35
HETATM   35  C25 UNL     1      36.303  23.823  22.127  1.00  0.00     0.142 C 
HETATM   36  C26 UNL     1      35.373  22.635  22.188  1.00  0.00     0.065 C 
HETATM   37  C27 UNL     1      36.253  21.396  22.170  1.00  0.00     0.124 C 
HETATM   38  C28 UNL     1      37.479  21.965  21.428  1.00  0.00     0.041 C 
HETATM   39  O4  UNL     1      36.817  21.242  23.434  1.00  0.00    -0.385 OA
HETATM   40  C29 UNL     1      37.649  23.130  22.369  1.00  0.00     0.042 C 
HETATM   41  C30 UNL     1      37.495  22.448  23.688  1.00  0.00     0.175 C 
ENDBRANCH  34  35
ENDBRANCH  31  34
ENDBRANCH  22  30
ENDBRANCH   2  22
TORSDOF 13
ENDMDL
MODEL 4
REMARK VINA RESULT: -6.081172853      2.358      5.610
REMARK  13 active torsions:
REMARK  status: ('A' for Active; 'I' for Inactive)
REMARK    1  A    between atoms: C2_2  and  C3_3 
REMARK    2  A    between atoms: C2_2  and  C16_22 
REMARK    3  A    between atoms: C3_3  and  N1_4 
REMARK    4  A    between atoms: N1_4  and  C4_6 
REMARK    5  A    between atoms: C4_6  and  C5_7 
REMARK    6  A    between atoms: C4_6  and  C9_12 
REMARK    7  A    between atoms: C5_7  and  N2_8 
REMARK       I    between atoms: C9_12  and  N3_14 
REMARK    8  A    between atoms: N3_14  and  C10_16 
REMARK    9  A    between atoms: C16_22  and  C17_23 
REMARK   10  A    between atoms: C16_22  and  N4_30 
REMARK   11  A    between atoms: C17_23  and  C18_24 
REMARK       I    between atoms: N4_30  and  C24_32 
REMARK   12  A    between atoms: C24_32  and  O3_34 
REMARK   13  A    between atoms: O3_34  and  C25_35 
ROOT
HETATM    1  C1  UNL     1      34.606  28.147  23.581  1.00  0.00     0.018 C 
HETATM    2  C2  UNL     1      34.096  27.120  22.873  1.00  0.00    -0.049 C 
ENDROOT
BRANCH   2   3
HETATM    3  C3  UNL     1      34.496  25.742  23.471  1.00  0.00     0.150 C 
BRANCH   3   4
HETATM    4  N1  UNL     1      35.880  25.843  23.716  1.00  0.00    -0.404 N 
ATOM      5  H1  UNL     1      36.182  26.353  24.546  1.00  0.00     0.154 HD
BRANCH   4   6
HETATM    6  C4  UNL     1      36.859  25.293  22.899  1.00  0.00     0.196 C 
BRANCH   6   7
HETATM    7  C5  UNL     1      36.489  24.051  22.181  1.00  0.00     0.270 C 
BRANCH   7   8
HETATM    8  N2  UNL     1      37.193  22.871  22.122  1.00  0.00    -0.076 N 
HETATM    9  C6  UNL     1      36.438  21.614  22.181  1.00  0.00     0.271 C 
HETATM   10  C7  UNL     1      38.283  22.626  21.258  1.00  0.00     0.271 C 
HETATM   11  C8  UNL     1      37.868  22.812  23.501  1.00  0.00     0.271 C 
ENDBRANCH   7   8
ENDBRANCH   6   7
BRANCH   6  12
HETATM   12  C9  UNL     1      37.545  26.344  22.089  1.00  0.00     0.242 C 
HETATM   13  O1  UNL     1      38.617  26.865  22.543  1.00  0.00    -0.271 OA
HETATM   14  N3  UNL     1      37.097  26.800  20.818  1.00  0.00    -0.355 N 
ATOM     15  H3  UNL     1      36.244  26.397  20.430  1.00  0.00     0.162 HD
BRANCH  14  16
HETATM   16  C10 UNL     1      37.790  27.804  20.052  1.00  0.00     0.084 C 
HETATM   17  C11 UNL     1      37.830  27.380  18.588  1.00  0.00     0.025 C 
HETATM   18  C12 UNL     1      36.674  27.917  17.822  1.00  0.00     0.002 C 
HETATM   19  C13 UNL     1      36.657  29.425  17.690  1.00  0.00     0.000 C 
HETATM   20  C14 UNL     1      37.537  29.948  18.813  1.00  0.00     0.002 C 
HETATM   21  C15 UNL     1      37.203  29.175  20.092  1.00  0.00     0.025 C 
ENDBRANCH  14  16
ENDBRANCH   6  12
ENDBRANCH   4   6
ENDBRANCH   3   4
ENDBRANCH   2   3
BRANCH   2  22
HETATM   22  C16 UNL     1      33.370  27.355  21.667  1.00  0.00     0.117 C 
BRANCH  22  23
HETATM   23  C17 UNL     1      33.106  28.654  21.101  1.00  0.00     0.034 C 
BRANCH  23  24
HETATM   24  C18 UNL     1      33.460  29.136  19.787  1.00  0.00    -0.012 C 
HETATM   25  C19 UNL     1      33.774  30.674  20.006  1.00  0.00     0.005 C 
HETATM   26  C20 UNL     1      32.606  31.451  19.493  1.00  0.00     0.000 C 
HETATM   27  C21 UNL     1      32.628  31.441  17.952  1.00  0.00     0.000 C 
HETATM   28  C22 UNL     1      33.042  30.047  17.517  1.00  0.00     0.000 C 
HETATM   29  C23 UNL     1      32.580  29.019  18.607  1.00  0.00     0.005 C 
ENDBRANCH  23  24
ENDBRANCH  22  23
BRANCH  22  30
HETATM   30  N4  UNL     1      33.925  26.435  20.624  1.00  0.00    -0.328 N 
HETATM   31  C24 UNL     1      33.111  25.467  19.989  1.00  0.00     0.361 C 
HETATM   32  O2  UNL     1      31.864  25.383  20.308  1.00  0.00    -0.238 OA
ATOM     33  H4  UNL     1      34.909  26.508  20.366  1.00  0.00     0.165 HD
BRANCH  31  34
HETATM   34  O3  UNL     1      33.535  24.579  19.029  1.00  0.00    -0.298 OA
BRANCH  34  35
HETATM   35  C25 UNL     1      34.605  23.690  19.292  1.00  0.00     0.142 C 
HETATM   36  C26 UNL     1      35.840  24.149  18.557  1.00  0.00     0.065 C 
HETATM   37  C27 UNL     1      36.315  22.966  17.728  1.00  0.00     0.124 C 
HETATM   38  C28 UNL     1      35.744  21.815  18.579  1.00  0.00     0.041 C 
HETATM   39  O4  UNL     1      35.483  22.849  16.618  1.00  0.00    -0.385 OA
HETATM   40  C29 UNL     1      34.339  22.359  18.578  1.00  0.00     0.042 C 
HETATM   41  C30 UNL     1      34.182  22.725  17.139  1.00  0.00     0.175 C 
ENDBRANCH  34  35
ENDBRANCH  31  34
ENDBRANCH  22  30
ENDBRANCH   2  22
TORSDOF 13
ENDMDL
MODEL 5
REMARK VINA RESULT: -6.066200964      2.024      4.893
REMARK  13 active torsions:
REMARK  status: ('A' for Active; 'I' for Inactive)
REMARK    1  A    between atoms: C2_2  and  C3_3 
REMARK    2  A    between atoms: C2_2  and  C16_22 
REMARK    3  A    between atoms: C3_3  and  N1_4 
REMARK    4  A    between atoms: N1_4  and  C4_6 
REMARK    5  A    between atoms: C4_6  and  C5_7 
REMARK    6  A    between atoms: C4_6  and  C9_12 
REMARK    7  A    between atoms: C5_7  and  N2_8 
REMARK       I    between atoms: C9_12  and  N3_14 
REMARK    8  A    between atoms: N3_14  and  C10_16 
REMARK    9  A    between atoms: C16_22  and  C17_23 
REMARK   10  A    between atoms: C16_22  and  N4_30 
REMARK   11  A    between atoms: C17_23  and  C18_24 
REMARK       I    between atoms: N4_30  and  C24_32 
REMARK   12  A    between atoms: C24_32  and  O3_34 
REMARK   13  A    between atoms: O3_34  and  C25_35 
ROOT
HETATM    1  C1  UNL     1      37.088  28.446  23.664  1.00  0.00     0.018 C 
HETATM    2  C2  UNL     1      36.123  28.449  22.723  1.00  0.00    -0.049 C 
ENDROOT
BRANCH   2   3
HETATM    3  C3  UNL     1      36.349  29.557  21.657  1.00  0.00     0.150 C 
BRANCH   3   4
HETATM    4  N1  UNL     1      36.403  28.868  20.428  1.00  0.00    -0.404 N 
ATOM      5  H1  UNL     1      35.738  28.109  20.276  1.00  0.00     0.154 HD
BRANCH   4   6
HETATM    6  C4  UNL     1      37.303  29.158  19.411  1.00  0.00     0.196 C 
BRANCH   6   7
HETATM    7  C5  UNL     1      38.232  28.069  19.030  1.00  0.00     0.270 C 
BRANCH   7   8
HETATM    8  N2  UNL     1      39.199  27.477  19.808  1.00  0.00    -0.076 N 
HETATM    9  C6  UNL     1      40.331  26.834  19.131  1.00  0.00     0.271 C 
HETATM   10  C7  UNL     1      39.724  28.028  20.998  1.00  0.00     0.271 C 
HETATM   11  C8  UNL     1      38.486  26.220  20.333  1.00  0.00     0.271 C 
ENDBRANCH   7   8
ENDBRANCH   6   7
BRANCH   6  12
HETATM   12  C9  UNL     1      36.637  29.880  18.285  1.00  0.00     0.242 C 
HETATM   13  O1  UNL     1      37.365  30.480  17.426  1.00  0.00    -0.271 OA
HETATM   14  N3  UNL     1      35.229  29.932  18.083  1.00  0.00    -0.355 N 
ATOM     15  H3  UNL     1      34.625  29.457  18.754  1.00  0.00     0.162 HD
BRANCH  14  16
HETATM   16  C10 UNL     1      34.618  30.622  16.978  1.00  0.00     0.084 C 
HETATM   17  C11 UNL     1      34.365  29.634  15.845  1.00  0.00     0.025 C 
HETATM   18  C12 UNL     1      33.008  29.029  15.926  1.00  0.00     0.002 C 
HETATM   19  C13 UNL     1      31.874  30.009  15.717  1.00  0.00     0.000 C 
HETATM   20  C14 UNL     1      32.457  31.383  16.003  1.00  0.00     0.002 C 
HETATM   21  C15 UNL     1      33.316  31.292  17.268  1.00  0.00     0.025 C 
ENDBRANCH  14  16
ENDBRANCH   6  12
ENDBRANCH   4   6
ENDBRANCH   3   4
ENDBRANCH   2   3
BRANCH   2  22
HETATM   22  C16 UNL     1      35.002  27.571  22.826  1.00  0.00     0.117 C 
BRANCH  22  23
HETATM   23  C17 UNL     1      33.665  27.883  22.388  1.00  0.00     0.034 C 
BRANCH  23  24
HETATM   24  C18 UNL     1      33.203  28.104  21.039  1.00  0.00    -0.012 C 
HETATM   25  C19 UNL     1      32.692  29.604  21.041  1.00  0.00     0.005 C 
HETATM   26  C20 UNL     1      31.199  29.573  21.075  1.00  0.00     0.000 C 
HETATM   27  C21 UNL     1      30.668  29.163  19.688  1.00  0.00     0.000 C 
HETATM   28  C22 UNL     1      31.578  28.069  19.163  1.00  0.00     0.000 C 
HETATM   29  C23 UNL     1      32.172  27.278  20.380  1.00  0.00     0.005 C 
ENDBRANCH  23  24
ENDBRANCH  22  23
BRANCH  22  30
HETATM   30  N4  UNL     1      35.428  26.239  22.291  1.00  0.00    -0.328 N 
HETATM   31  C24 UNL     1      35.917  25.225  23.147  1.00  0.00     0.361 C 
HETATM   32  O2  UNL     1      35.988  25.449  24.416  1.00  0.00    -0.238 OA
ATOM     33  H4  UNL     1      35.363  26.059  21.289  1.00  0.00     0.165 HD
BRANCH  31  34
HETATM   34  O3  UNL     1      36.337  23.979  22.745  1.00  0.00    -0.298 OA
BRANCH  34  35
HETATM   35  C25 UNL     1      35.597  23.244  21.787  1.00  0.00     0.142 C 
HETATM   36  C26 UNL     1      35.476  21.807  22.231  1.00  0.00     0.065 C 
HETATM   37  C27 UNL     1      35.995  20.955  21.084  1.00  0.00     0.124 C 
HETATM   38  C28 UNL     1      35.708  21.910  19.909  1.00  0.00     0.041 C 
HETATM   39  O4  UNL     1      37.386  21.023  21.084  1.00  0.00    -0.385 OA
HETATM   40  C29 UNL     1      36.447  23.070  20.523  1.00  0.00     0.042 C 
HETATM   41  C30 UNL     1      37.692  22.392  20.991  1.00  0.00     0.175 C 
ENDBRANCH  34  35
ENDBRANCH  31  34
ENDBRANCH  22  30
ENDBRANCH   2  22
TORSDOF 13
ENDMDL
