MODEL 1
REMARK VINA RESULT: -6.616120989      0.000      0.000
REMARK  13 active torsions:
REMARK  status: ('A' for Active; 'I' for Inactive)
REMARK    1  A    between atoms: N1_2  and  C2_4 
REMARK    2  A    between atoms: C2_4  and  C3_5 
REMARK    3  A    between atoms: C2_4  and  C27_38 
REMARK       I    between atoms: C3_5  and  N2_7 
REMARK    4  A    between atoms: C7_11  and  C8_12 
REMARK       I    between atoms: C8_12  and  N3_14 
REMARK    5  A    between atoms: N3_14  and  C9_16 
REMARK    6  A    between atoms: C9_16  and  C10_17 
REMARK    7  A    between atoms: C9_16  and  C14_21 
REMARK    8  A    between atoms: C10_17  and  C11_18 
REMARK    9  A    between atoms: C14_21  and  N4_22 
REMARK   10  A    between atoms: C14_21  and  C21_32 
REMARK   11  A    between atoms: N4_22  and  C15_24 
REMARK   12  A    between atoms: C15_24  and  C16_25 
REMARK   13  A    between atoms: C15_24  and  C17_28 
ROOT
HETATM    1  C9  UNL     1      33.994  26.081  21.187  1.00  0.00     0.130 C 
ENDROOT
BRANCH   1   2
HETATM    2  N3  UNL     1      35.176  25.193  21.236  1.00  0.00    -0.350 N 
HETATM    3  C8  UNL     1      35.195  24.023  22.037  1.00  0.00     0.241 C 
HETATM    4  O2  UNL     1      34.159  23.776  22.723  1.00  0.00    -0.271 OA
ATOM      5  H3  UNL     1      35.998  25.428  20.678  1.00  0.00     0.163 HD
BRANCH   3   6
HETATM    6  C7  UNL     1      36.323  23.141  22.078  1.00  0.00     0.179 C 
HETATM    7  N2  UNL     1      36.454  22.088  21.110  1.00  0.00    -0.337 N 
HETATM    8  C3  UNL     1      35.732  21.734  19.951  1.00  0.00     0.243 C 
HETATM    9  C4  UNL     1      37.654  21.380  21.619  1.00  0.00     0.127 C 
HETATM   10  O1  UNL     1      34.756  22.524  19.682  1.00  0.00    -0.271 OA
HETATM   11  C5  UNL     1      38.583  22.549  22.001  1.00  0.00     0.022 C 
HETATM   12  C6  UNL     1      37.693  23.800  21.931  1.00  0.00     0.037 C 
BRANCH   8  13
HETATM   13  C2  UNL     1      36.032  20.583  19.093  1.00  0.00     0.176 C 
BRANCH  13  14
HETATM   14  N1  UNL     1      36.197  20.954  17.732  1.00  0.00    -0.413 N 
HETATM   15  C1  UNL     1      37.318  21.673  17.304  1.00  0.00     0.140 C 
ATOM     16  H1  UNL     1      35.483  20.691  17.052  1.00  0.00     0.153 HD
ENDBRANCH  13  14
BRANCH  13  17
HETATM   17  C27 UNL     1      35.151  19.387  19.265  1.00  0.00    -0.022 C 
HETATM   18  C28 UNL     1      33.821  19.449  18.589  1.00  0.00     0.017 C 
HETATM   19  C29 UNL     1      35.904  18.220  18.575  1.00  0.00     0.017 C 
HETATM   20  C30 UNL     1      34.927  18.932  20.666  1.00  0.00     0.017 C 
ENDBRANCH  13  17
ENDBRANCH   8  13
ENDBRANCH   3   6
ENDBRANCH   1   2
BRANCH   1  21
HETATM   21  C10 UNL     1      33.330  25.666  19.862  1.00  0.00     0.035 C 
BRANCH  21  22
HETATM   22  C11 UNL     1      31.849  25.509  19.978  1.00  0.00    -0.020 C 
HETATM   23  C12 UNL     1      31.582  23.994  19.905  1.00  0.00     0.009 C 
HETATM   24  C13 UNL     1      31.181  26.130  18.764  1.00  0.00     0.009 C 
ENDBRANCH  21  22
ENDBRANCH   1  21
BRANCH   1  25
HETATM   25  C14 UNL     1      34.424  27.527  21.035  1.00  0.00     0.010 C 
BRANCH  25  26
HETATM   26  N4  UNL     1      35.736  27.574  20.545  1.00  0.00    -0.380 N 
ATOM     27  H4  UNL     1      35.991  27.069  19.696  1.00  0.00     0.160 HD
BRANCH  26  28
HETATM   28  C15 UNL     1      36.704  28.334  21.247  1.00  0.00     0.190 C 
BRANCH  28  29
HETATM   29  C16 UNL     1      36.740  28.077  22.698  1.00  0.00     0.197 C 
HETATM   30  O3  UNL     1      36.827  26.938  23.237  1.00  0.00    -0.646 OA
HETATM   31  O4  UNL     1      36.677  29.134  23.634  1.00  0.00    -0.646 OA
ENDBRANCH  28  29
BRANCH  28  32
HETATM   32  C17 UNL     1      38.087  28.222  20.622  1.00  0.00    -0.021 C 
HETATM   33  C18 UNL     1      39.185  28.221  21.650  1.00  0.00     0.017 C 
HETATM   34  C19 UNL     1      38.222  26.923  19.848  1.00  0.00     0.017 C 
HETATM   35  C20 UNL     1      38.345  29.348  19.656  1.00  0.00     0.017 C 
ENDBRANCH  28  32
ENDBRANCH  26  28
ENDBRANCH  25  26
BRANCH  25  36
HETATM   36  C21 UNL     1      33.414  28.443  20.475  1.00  0.00     0.033 C 
HETATM   37  C22 UNL     1      32.660  29.326  21.393  1.00  0.00     0.010 C 
HETATM   38  C23 UNL     1      31.598  30.033  20.530  1.00  0.00     0.001 C 
HETATM   39  C24 UNL     1      32.288  31.123  19.734  1.00  0.00     0.000 C 
HETATM   40  C25 UNL     1      33.735  30.784  19.582  1.00  0.00     0.001 C 
HETATM   41  C26 UNL     1      34.026  29.321  19.402  1.00  0.00     0.010 C 
ENDBRANCH  25  36
ENDBRANCH   1  25
TORSDOF 13
ENDMDL
MODEL 2
REMARK VINA RESULT: -6.525722858      2.467      6.628
REMARK  13 active torsions:
REMARK  status: ('A' for Active; 'I' for Inactive)
REMARK    1  A    between atoms: N1_2  and  C2_4 
REMARK    2  A    between atoms: C2_4  and  C3_5 
REMARK    3  A    between atoms: C2_4  and  C27_38 
REMARK       I    between atoms: C3_5  and  N2_7 
REMARK    4  A    between atoms: C7_11  and  C8_12 
REMARK       I    between atoms: C8_12  and  N3_14 
REMARK    5  A    between atoms: N3_14  and  C9_16 
REMARK    6  A    between atoms: C9_16  and  C10_17 
REMARK    7  A    between atoms: C9_16  and  C14_21 
REMARK    8  A    between atoms: C10_17  and  C11_18 
REMARK    9  A    between atoms: C14_21  and  N4_22 
REMARK   10  A    between atoms: C14_21  and  C21_32 
REMARK   11  A    between atoms: N4_22  and  C15_24 
REMARK   12  A    between atoms: C15_24  and  C16_25 
REMARK   13  A    between atoms: C15_24  and  C17_28 
ROOT
HETATM    1  C9  UNL     1      35.304  24.189  20.879  1.00  0.00     0.130 C 
ENDROOT
BRANCH   1   2
HETATM    2  N3  UNL     1      34.022  24.871  20.589  1.00  0.00    -0.350 N 
HETATM    3  C8  UNL     1      33.386  24.755  19.327  1.00  0.00     0.241 C 
HETATM    4  O2  UNL     1      33.969  24.052  18.449  1.00  0.00    -0.271 OA
ATOM      5  H3  UNL     1      33.585  25.438  21.317  1.00  0.00     0.163 HD
BRANCH   3   6
HETATM    6  C7  UNL     1      32.135  25.390  19.038  1.00  0.00     0.179 C 
HETATM    7  N2  UNL     1      32.082  26.803  18.786  1.00  0.00    -0.337 N 
HETATM    8  C3  UNL     1      33.064  27.804  18.635  1.00  0.00     0.243 C 
HETATM    9  C4  UNL     1      30.618  27.018  18.680  1.00  0.00     0.127 C 
HETATM   10  O1  UNL     1      34.270  27.371  18.723  1.00  0.00    -0.271 OA
HETATM   11  C5  UNL     1      30.172  25.806  17.841  1.00  0.00     0.022 C 
HETATM   12  C6  UNL     1      31.396  24.879  17.803  1.00  0.00     0.037 C 
BRANCH   8  13
HETATM   13  C2  UNL     1      32.787  29.223  18.392  1.00  0.00     0.176 C 
BRANCH  13  14
HETATM   14  N1  UNL     1      33.391  29.694  17.196  1.00  0.00    -0.413 N 
HETATM   15  C1  UNL     1      33.008  29.199  15.944  1.00  0.00     0.140 C 
ATOM     16  H1  UNL     1      34.119  30.407  17.250  1.00  0.00     0.153 HD
ENDBRANCH  13  14
BRANCH  13  17
HETATM   17  C27 UNL     1      33.004  30.144  19.551  1.00  0.00    -0.022 C 
HETATM   18  C28 UNL     1      34.414  30.567  19.798  1.00  0.00     0.017 C 
HETATM   19  C29 UNL     1      32.245  31.446  19.188  1.00  0.00     0.017 C 
HETATM   20  C30 UNL     1      32.428  29.707  20.854  1.00  0.00     0.017 C 
ENDBRANCH  13  17
ENDBRANCH   8  13
ENDBRANCH   3   6
ENDBRANCH   1   2
BRANCH   1  21
HETATM   21  C10 UNL     1      34.931  23.289  22.069  1.00  0.00     0.035 C 
BRANCH  21  22
HETATM   22  C11 UNL     1      35.353  21.868  21.878  1.00  0.00    -0.020 C 
HETATM   23  C12 UNL     1      36.706  21.733  22.601  1.00  0.00     0.009 C 
HETATM   24  C13 UNL     1      35.615  21.615  20.404  1.00  0.00     0.009 C 
ENDBRANCH  21  22
ENDBRANCH   1  21
BRANCH   1  25
HETATM   25  C14 UNL     1      36.331  25.185  21.379  1.00  0.00     0.010 C 
BRANCH  25  26
HETATM   26  N4  UNL     1      37.131  25.608  20.309  1.00  0.00    -0.380 N 
ATOM     27  H4  UNL     1      36.706  25.922  19.436  1.00  0.00     0.160 HD
BRANCH  26  28
HETATM   28  C15 UNL     1      38.540  25.592  20.458  1.00  0.00     0.190 C 
BRANCH  28  29
HETATM   29  C16 UNL     1      39.191  24.376  19.938  1.00  0.00     0.197 C 
HETATM   30  O3  UNL     1      40.311  23.929  20.314  1.00  0.00    -0.646 OA
HETATM   31  O4  UNL     1      38.582  23.587  18.937  1.00  0.00    -0.646 OA
ENDBRANCH  28  29
BRANCH  28  32
HETATM   32  C17 UNL     1      39.189  26.855  19.911  1.00  0.00    -0.021 C 
HETATM   33  C18 UNL     1      40.477  26.572  19.187  1.00  0.00     0.017 C 
HETATM   34  C19 UNL     1      38.276  27.538  18.911  1.00  0.00     0.017 C 
HETATM   35  C20 UNL     1      39.472  27.846  21.009  1.00  0.00     0.017 C 
ENDBRANCH  28  32
ENDBRANCH  26  28
ENDBRANCH  25  26
BRANCH  25  36
HETATM   36  C21 UNL     1      35.840  26.182  22.348  1.00  0.00     0.033 C 
HETATM   37  C22 UNL     1      36.619  26.424  23.583  1.00  0.00     0.010 C 
HETATM   38  C23 UNL     1      35.777  27.390  24.438  1.00  0.00     0.001 C 
HETATM   39  C24 UNL     1      35.911  28.780  23.847  1.00  0.00     0.000 C 
HETATM   40  C25 UNL     1      36.274  28.670  22.402  1.00  0.00     0.001 C 
HETATM   41  C26 UNL     1      35.632  27.524  21.674  1.00  0.00     0.010 C 
ENDBRANCH  25  36
ENDBRANCH   1  25
TORSDOF 13
ENDMDL
MODEL 3
REMARK VINA RESULT: -6.364414274      1.100      1.360
REMARK  13 active torsions:
REMARK  status: ('A' for Active; 'I' for Inactive)
REMARK    1  A    between atoms: N1_2  and  C2_4 
REMARK    2  A    between atoms: C2_4  and  C3_5 
REMARK    3  A    between atoms: C2_4  and  C27_38 
REMARK       I    between atoms: C3_5  and  N2_7 
REMARK    4  A    between atoms: C7_11  and  C8_12 
REMARK       I    between atoms: C8_12  and  N3_14 
REMARK    5  A    between atoms: N3_14  and  C9_16 
REMARK    6  A    between atoms: C9_16  and  C10_17 
REMARK    7  A    between atoms: C9_16  and  C14_21 
REMARK    8  A    between atoms: C10_17  and  C11_18 
REMARK    9  A    between atoms: C14_21  and  N4_22 
REMARK   10  A    between atoms: C14_21  and  C21_32 
REMARK   11  A    between atoms: N4_22  and  C15_24 
REMARK   12  A    between atoms: C15_24  and  C16_25 
REMARK   13  A    between atoms: C15_24  and  C17_28 
ROOT
HETATM    1  C9  UNL     1      33.552  25.571  21.148  1.00  0.00     0.130 C 
ENDROOT
BRANCH   1   2
HETATM    2  N3  UNL     1      34.648  24.592  20.968  1.00  0.00    -0.350 N 
HETATM    3  C8  UNL     1      34.714  23.400  21.734  1.00  0.00     0.241 C 
HETATM    4  O2  UNL     1      33.799  23.213  22.590  1.00  0.00    -0.271 OA
ATOM      5  H3  UNL     1      35.374  24.780  20.277  1.00  0.00     0.163 HD
BRANCH   3   6
HETATM    6  C7  UNL     1      35.754  22.433  21.558  1.00  0.00     0.179 C 
HETATM    7  N2  UNL     1      35.698  21.501  20.466  1.00  0.00    -0.337 N 
HETATM    8  C3  UNL     1      34.844  21.352  19.354  1.00  0.00     0.243 C 
HETATM    9  C4  UNL     1      36.871  20.642  20.765  1.00  0.00     0.127 C 
HETATM   10  O1  UNL     1      33.923  22.244  19.280  1.00  0.00    -0.271 OA
HETATM   11  C5  UNL     1      37.934  21.676  21.181  1.00  0.00     0.022 C 
HETATM   12  C6  UNL     1      37.159  22.993  21.348  1.00  0.00     0.037 C 
BRANCH   8  13
HETATM   13  C2  UNL     1      34.957  20.295  18.343  1.00  0.00     0.176 C 
BRANCH  13  14
HETATM   14  N1  UNL     1      34.978  20.815  17.021  1.00  0.00    -0.413 N 
HETATM   15  C1  UNL     1      36.131  21.400  16.488  1.00  0.00     0.140 C 
ATOM     16  H1  UNL     1      34.135  20.759  16.449  1.00  0.00     0.153 HD
ENDBRANCH  13  14
BRANCH  13  17
HETATM   17  C27 UNL     1      34.024  19.136  18.495  1.00  0.00    -0.022 C 
HETATM   18  C28 UNL     1      32.600  19.386  18.119  1.00  0.00     0.017 C 
HETATM   19  C29 UNL     1      34.529  18.068  17.491  1.00  0.00     0.017 C 
HETATM   20  C30 UNL     1      34.030  18.457  19.822  1.00  0.00     0.017 C 
ENDBRANCH  13  17
ENDBRANCH   8  13
ENDBRANCH   3   6
ENDBRANCH   1   2
BRANCH   1  21
HETATM   21  C10 UNL     1      32.892  25.578  19.758  1.00  0.00     0.035 C 
BRANCH  21  22
HETATM   22  C11 UNL     1      31.402  25.499  19.822  1.00  0.00    -0.020 C 
HETATM   23  C12 UNL     1      31.059  23.999  19.754  1.00  0.00     0.009 C 
HETATM   24  C13 UNL     1      30.811  26.140  18.579  1.00  0.00     0.009 C 
ENDBRANCH  21  22
ENDBRANCH   1  21
BRANCH   1  25
HETATM   25  C14 UNL     1      34.116  26.959  21.379  1.00  0.00     0.010 C 
BRANCH  25  26
HETATM   26  N4  UNL     1      35.513  26.919  21.274  1.00  0.00    -0.380 N 
ATOM     27  H4  UNL     1      35.958  26.542  20.437  1.00  0.00     0.160 HD
BRANCH  26  28
HETATM   28  C15 UNL     1      36.296  27.412  22.346  1.00  0.00     0.190 C 
BRANCH  28  29
HETATM   29  C16 UNL     1      36.133  26.667  23.608  1.00  0.00     0.197 C 
HETATM   30  O3  UNL     1      36.300  25.423  23.749  1.00  0.00    -0.646 OA
HETATM   31  O4  UNL     1      35.763  27.319  24.805  1.00  0.00    -0.646 OA
ENDBRANCH  28  29
BRANCH  28  32
HETATM   32  C17 UNL     1      37.761  27.562  21.966  1.00  0.00    -0.021 C 
HETATM   33  C18 UNL     1      38.322  26.315  21.338  1.00  0.00     0.017 C 
HETATM   34  C19 UNL     1      37.941  28.673  20.949  1.00  0.00     0.017 C 
HETATM   35  C20 UNL     1      38.606  27.909  23.163  1.00  0.00     0.017 C 
ENDBRANCH  28  32
ENDBRANCH  26  28
ENDBRANCH  25  26
BRANCH  25  36
HETATM   36  C21 UNL     1      33.377  28.066  20.744  1.00  0.00     0.033 C 
HETATM   37  C22 UNL     1      32.639  29.019  21.602  1.00  0.00     0.010 C 
HETATM   38  C23 UNL     1      31.865  29.946  20.645  1.00  0.00     0.001 C 
HETATM   39  C24 UNL     1      32.849  30.937  20.053  1.00  0.00     0.000 C 
HETATM   40  C25 UNL     1      34.224  30.357  20.100  1.00  0.00     0.001 C 
HETATM   41  C26 UNL     1      34.295  28.877  19.851  1.00  0.00     0.010 C 
ENDBRANCH  25  36
ENDBRANCH   1  25
TORSDOF 13
ENDMDL
MODEL 4
REMARK VINA RESULT: -6.341683414      0.733      1.664
REMARK  13 active torsions:
REMARK  status: ('A' for Active; 'I' for Inactive)
REMARK    1  A    between atoms: N1_2  and  C2_4 
REMARK    2  A    between atoms: C2_4  and  C3_5 
REMARK    3  A    between atoms: C2_4  and  C27_38 
REMARK       I    between atoms: C3_5  and  N2_7 
REMARK    4  A    between atoms: C7_11  and  C8_12 
REMARK       I    between atoms: C8_12  and  N3_14 
REMARK    5  A    between atoms: N3_14  and  C9_16 
REMARK    6  A    between atoms: C9_16  and  C10_17 
REMARK    7  A    between atoms: C9_16  and  C14_21 
REMARK    8  A    between atoms: C10_17  and  C11_18 
REMARK    9  A    between atoms: C14_21  and  N4_22 
REMARK   10  A    between atoms: C14_21  and  C21_32 
REMARK   11  A    between atoms: N4_22  and  C15_24 
REMARK   12  A    between atoms: C15_24  and  C16_25 
REMARK   13  A    between atoms: C15_24  and  C17_28 
ROOT
HETATM    1  C9  UNL     1      33.838  26.061  21.066  1.00  0.00     0.130 C 
ENDROOT
BRANCH   1   2
HETATM    2  N3  UNL     1      34.974  25.113  21.111  1.00  0.00    -0.350 N 
HETATM    3  C8  UNL     1      34.970  23.989  21.974  1.00  0.00     0.241 C 
HETATM    4  O2  UNL     1      33.956  23.835  22.718  1.00  0.00    -0.271 OA
ATOM      5  H3  UNL     1      35.780  25.274  20.505  1.00  0.00     0.163 HD
BRANCH   3   6
HETATM    6  C7  UNL     1      36.051  23.050  22.014  1.00  0.00     0.179 C 
HETATM    7  N2  UNL     1      36.137  22.004  21.033  1.00  0.00    -0.337 N 
HETATM    8  C3  UNL     1      35.410  21.701  19.864  1.00  0.00     0.243 C 
HETATM    9  C4  UNL     1      37.296  21.229  21.544  1.00  0.00     0.127 C 
HETATM   10  O1  UNL     1      34.477  22.543  19.596  1.00  0.00    -0.271 OA
HETATM   11  C5  UNL     1      38.278  22.345  21.949  1.00  0.00     0.022 C 
HETATM   12  C6  UNL     1      37.454  23.640  21.887  1.00  0.00     0.037 C 
BRANCH   8  13
HETATM   13  C2  UNL     1      35.659  20.547  18.994  1.00  0.00     0.176 C 
BRANCH  13  14
HETATM   14  N1  UNL     1      35.863  19.351  19.732  1.00  0.00    -0.413 N 
HETATM   15  C1  UNL     1      34.798  18.686  20.350  1.00  0.00     0.140 C 
ATOM     16  H1  UNL     1      36.806  18.968  19.813  1.00  0.00     0.153 HD
ENDBRANCH  13  14
BRANCH  13  17
HETATM   17  C27 UNL     1      36.676  20.744  17.915  1.00  0.00    -0.022 C 
HETATM   18  C28 UNL     1      37.966  21.369  18.336  1.00  0.00     0.017 C 
HETATM   19  C29 UNL     1      37.053  19.316  17.441  1.00  0.00     0.017 C 
HETATM   20  C30 UNL     1      36.208  21.451  16.690  1.00  0.00     0.017 C 
ENDBRANCH  13  17
ENDBRANCH   8  13
ENDBRANCH   3   6
ENDBRANCH   1   2
BRANCH   1  21
HETATM   21  C10 UNL     1      33.164  25.697  19.731  1.00  0.00     0.035 C 
BRANCH  21  22
HETATM   22  C11 UNL     1      31.680  25.565  19.846  1.00  0.00    -0.020 C 
HETATM   23  C12 UNL     1      31.392  24.053  19.815  1.00  0.00     0.009 C 
HETATM   24  C13 UNL     1      31.026  26.162  18.613  1.00  0.00     0.009 C 
ENDBRANCH  21  22
ENDBRANCH   1  21
BRANCH   1  25
HETATM   25  C14 UNL     1      34.343  27.485  20.935  1.00  0.00     0.010 C 
BRANCH  25  26
HETATM   26  N4  UNL     1      35.672  27.471  20.491  1.00  0.00    -0.380 N 
ATOM     27  H4  UNL     1      35.933  26.948  19.655  1.00  0.00     0.160 HD
BRANCH  26  28
HETATM   28  C15 UNL     1      36.647  28.193  21.223  1.00  0.00     0.190 C 
BRANCH  28  29
HETATM   29  C16 UNL     1      36.614  27.954  22.677  1.00  0.00     0.197 C 
HETATM   30  O3  UNL     1      36.669  26.821  23.233  1.00  0.00    -0.646 OA
HETATM   31  O4  UNL     1      36.514  29.022  23.595  1.00  0.00    -0.646 OA
ENDBRANCH  28  29
BRANCH  28  32
HETATM   32  C17 UNL     1      38.046  28.006  20.653  1.00  0.00    -0.021 C 
HETATM   33  C18 UNL     1      38.193  26.712  19.900  1.00  0.00     0.017 C 
HETATM   34  C19 UNL     1      38.378  29.115  19.671  1.00  0.00     0.017 C 
HETATM   35  C20 UNL     1      39.089  28.042  21.739  1.00  0.00     0.017 C 
ENDBRANCH  28  32
ENDBRANCH  26  28
ENDBRANCH  25  26
BRANCH  25  36
HETATM   36  C21 UNL     1      33.397  28.450  20.344  1.00  0.00     0.033 C 
HETATM   37  C22 UNL     1      32.663  29.372  21.239  1.00  0.00     0.010 C 
HETATM   38  C23 UNL     1      31.664  30.131  20.344  1.00  0.00     0.001 C 
HETATM   39  C24 UNL     1      32.432  31.182  19.568  1.00  0.00     0.000 C 
HETATM   40  C25 UNL     1      33.863  30.770  19.460  1.00  0.00     0.001 C 
HETATM   41  C26 UNL     1      34.085  29.294  19.290  1.00  0.00     0.010 C 
ENDBRANCH  25  36
ENDBRANCH   1  25
TORSDOF 13
ENDMDL
MODEL 5
REMARK VINA RESULT: -6.262966874      1.224      1.683
REMARK  13 active torsions:
REMARK  status: ('A' for Active; 'I' for Inactive)
REMARK    1  A    between atoms: N1_2  and  C2_4 
REMARK    2  A    between atoms: C2_4  and  C3_5 
REMARK    3  A    between atoms: C2_4  and  C27_38 
REMARK       I    between atoms: C3_5  and  N2_7 
REMARK    4  A    between atoms: C7_11  and  C8_12 
REMARK       I    between atoms: C8_12  and  N3_14 
REMARK    5  A    between atoms: N3_14  and  C9_16 
REMARK    6  A    between atoms: C9_16  and  C10_17 
REMARK    7  A    between atoms: C9_16  and  C14_21 
REMARK    8  A    between atoms: C10_17  and  C11_18 
REMARK    9  A    between atoms: C14_21  and  N4_22 
REMARK   10  A    between atoms: C14_21  and  C21_32 
REMARK   11  A    between atoms: N4_22  and  C15_24 
REMARK   12  A    between atoms: C15_24  and  C16_25 
REMARK   13  A    between atoms: C15_24  and  C17_28 
ROOT
HETATM    1  C9  UNL     1      34.320  26.013  20.845  1.00  0.00     0.130 C 
ENDROOT
BRANCH   1   2
HETATM    2  N3  UNL     1      35.053  24.817  21.318  1.00  0.00    -0.350 N 
HETATM    3  C8  UNL     1      34.374  23.629  21.692  1.00  0.00     0.241 C 
HETATM    4  O2  UNL     1      33.109  23.639  21.618  1.00  0.00    -0.271 OA
ATOM      5  H3  UNL     1      36.071  24.847  21.375  1.00  0.00     0.163 HD
BRANCH   3   6
HETATM    6  C7  UNL     1      35.068  22.456  22.130  1.00  0.00     0.179 C 
HETATM    7  N2  UNL     1      35.342  21.390  21.206  1.00  0.00    -0.337 N 
HETATM    8  C3  UNL     1      35.174  21.239  19.814  1.00  0.00     0.243 C 
HETATM    9  C4  UNL     1      35.928  20.372  22.112  1.00  0.00     0.127 C 
HETATM   10  O1  UNL     1      34.687  22.275  19.232  1.00  0.00    -0.271 OA
HETATM   11  C5  UNL     1      36.851  21.224  23.004  1.00  0.00     0.022 C 
HETATM   12  C6  UNL     1      36.471  22.679  22.691  1.00  0.00     0.037 C 
BRANCH   8  13
HETATM   13  C2  UNL     1      35.513  20.033  19.053  1.00  0.00     0.176 C 
BRANCH  13  14
HETATM   14  N1  UNL     1      36.283  20.325  17.895  1.00  0.00    -0.413 N 
HETATM   15  C1  UNL     1      37.614  20.743  17.994  1.00  0.00     0.140 C 
ATOM     16  H1  UNL     1      35.856  20.227  16.973  1.00  0.00     0.153 HD
ENDBRANCH  13  14
BRANCH  13  17
HETATM   17  C27 UNL     1      34.384  19.091  18.775  1.00  0.00    -0.022 C 
HETATM   18  C28 UNL     1      33.190  19.679  18.099  1.00  0.00     0.017 C 
HETATM   19  C29 UNL     1      34.952  18.055  17.771  1.00  0.00     0.017 C 
HETATM   20  C30 UNL     1      33.899  18.287  19.932  1.00  0.00     0.017 C 
ENDBRANCH  13  17
ENDBRANCH   8  13
ENDBRANCH   3   6
ENDBRANCH   1   2
BRANCH   1  21
HETATM   21  C10 UNL     1      34.374  25.845  19.317  1.00  0.00     0.035 C 
BRANCH  21  22
HETATM   22  C11 UNL     1      33.045  26.040  18.663  1.00  0.00    -0.020 C 
HETATM   23  C12 UNL     1      32.580  24.636  18.233  1.00  0.00     0.009 C 
HETATM   24  C13 UNL     1      33.224  26.851  17.393  1.00  0.00     0.009 C 
ENDBRANCH  21  22
ENDBRANCH   1  21
BRANCH   1  25
HETATM   25  C14 UNL     1      35.094  27.273  21.181  1.00  0.00     0.010 C 
BRANCH  25  26
HETATM   26  N4  UNL     1      36.352  27.227  20.564  1.00  0.00    -0.380 N 
ATOM     27  H4  UNL     1      36.448  26.874  19.611  1.00  0.00     0.160 HD
BRANCH  26  28
HETATM   28  C15 UNL     1      37.486  27.678  21.283  1.00  0.00     0.190 C 
BRANCH  28  29
HETATM   29  C16 UNL     1      37.958  26.741  22.318  1.00  0.00     0.197 C 
HETATM   30  O3  UNL     1      38.208  25.516  22.137  1.00  0.00    -0.646 OA
HETATM   31  O4  UNL     1      38.177  27.163  23.648  1.00  0.00    -0.646 OA
ENDBRANCH  28  29
BRANCH  28  32
HETATM   32  C17 UNL     1      38.615  28.113  20.361  1.00  0.00    -0.021 C 
HETATM   33  C18 UNL     1      38.902  27.101  19.285  1.00  0.00     0.017 C 
HETATM   34  C19 UNL     1      38.259  29.406  19.650  1.00  0.00     0.017 C 
HETATM   35  C20 UNL     1      39.887  28.360  21.129  1.00  0.00     0.017 C 
ENDBRANCH  28  32
ENDBRANCH  26  28
ENDBRANCH  25  26
BRANCH  25  36
HETATM   36  C21 UNL     1      34.322  28.529  21.149  1.00  0.00     0.033 C 
HETATM   37  C22 UNL     1      34.251  29.293  19.883  1.00  0.00     0.010 C 
HETATM   38  C23 UNL     1      33.513  30.604  20.216  1.00  0.00     0.001 C 
HETATM   39  C24 UNL     1      32.035  30.293  20.340  1.00  0.00     0.000 C 
HETATM   40  C25 UNL     1      31.860  28.851  20.686  1.00  0.00     0.001 C 
HETATM   41  C26 UNL     1      32.900  28.293  21.616  1.00  0.00     0.010 C 
ENDBRANCH  25  36
ENDBRANCH   1  25
TORSDOF 13
ENDMDL
